@<TRIPOS>MOLECULE
*****
   24    25     0     0     0
SMALL
NO_CHARGES

@<TRIPOS>ATOM
      1 C1          0.9282    0.1260    2.9499 C.ar      1 <0>         0.0000
      2 C2          0.9509   -1.1689    0.9233 C.ar      1 <0>         0.0000
      3 C3          0.0392   -0.8015    3.4688 C.ar      1 <0>         0.0000
      4 C4          0.0610   -2.0385    1.5329 C.ar      1 <0>         0.0000
      5 C5          5.3220    1.7071   -4.1942 C.ar      1 <0>         0.0000
      6 C6          1.3879   -0.0684    1.6522 C.ar      1 <0>         0.0000
      7 C7          4.4566    0.7074   -3.8308 C.ar      1 <0>         0.0000
      8 C8          4.2170    1.6920   -1.8127 C.ar      1 <0>         0.0000
      9 C9          2.3223    0.8750    1.0600 C.2       1 <0>         0.0000
     10 N1         -0.4079   -1.8826    2.7913 N.ar      1 <0>         0.0000
     11 N2          5.6244    2.7015   -3.3400 N.ar      1 <0>         0.0000
     12 N3          3.8784    0.6762   -2.6206 N.ar      1 <0>         0.0000
     13 N4          5.0598    2.6992   -2.1145 N.ar      1 <0>         0.0000
     14 N5          2.7849    0.7404   -0.1515 N.2       1 <0>         0.0000
     15 N6          3.6404    1.7088   -0.5331 N.pl3     1 <0>         0.0000
     16 O1          4.1563   -0.2966   -4.7071 O.3       1 <0>         0.0000
     17 H1          1.2498    0.9729    3.5467 H         1 <0>         0.0000
     18 H2          1.2905   -1.3501   -0.0910 H         1 <0>         0.0000
     19 H3         -0.3483   -0.6959    4.4765 H         1 <0>         0.0000
     20 H4         -0.3104   -2.9117    1.0070 H         1 <0>         0.0000
     21 H5          5.7975    1.7490   -5.1653 H         1 <0>         0.0000
     22 H6          2.6428    1.7409    1.6854 H         1 <0>         0.0000
     23 H7          3.8834    2.4684    0.0931 H         1 <0>         0.0000
     24 H8          3.5349   -0.9178   -4.2990 H         1 <0>         0.0000
@<TRIPOS>BOND
     1    1    3 ar
     2    1    6 ar
     3    1   17 1
     4    2    4 ar
     5    2    6 ar
     6    2   18 1
     7    3   10 ar
     8    3   19 1
     9    4   10 ar
    10    4   20 1
    11    5    7 ar
    12    5   11 ar
    13    5   21 1
    14    6    9 1
    15    7   12 ar
    16    7   16 1
    17    8   12 ar
    18    8   13 ar
    19    8   15 1
    20    9   14 2
    21    9   22 1
    22   11   13 ar
    23   14   15 1
    24   15   23 1
    25   16   24 1
