@<TRIPOS>MOLECULE
*****
   33    35     0     0     0
SMALL
NO_CHARGES

@<TRIPOS>ATOM
      1 C1          0.5586   -6.5476    4.7676 C.ar      1 <0>         0.0000
      2 C2          0.1265   -1.4818    1.3543 C.ar      1 <0>         0.0000
      3 C3          1.7007   -5.9886    5.3474 C.ar      1 <0>         0.0000
      4 C4          0.6256   -1.0688    0.1110 C.ar      1 <0>         0.0000
      5 C5          0.2783   -6.2922    3.4246 C.ar      1 <0>         0.0000
      6 C6          0.1529   -2.8327    1.6851 C.ar      1 <0>         0.0000
      7 C7          2.5521   -5.1915    4.5770 C.ar      1 <0>         0.0000
      8 C8          1.1115   -2.0090   -0.7924 C.ar      1 <0>         0.0000
      9 C9          1.1155   -5.4697    2.6571 C.ar      1 <0>         0.0000
     10 C10         0.6471   -3.8015    0.7918 C.ar      1 <0>         0.0000
     11 C11         2.2801   -4.9136    3.2303 C.ar      1 <0>         0.0000
     12 C12         1.1149   -3.3778   -0.4716 C.ar      1 <0>         0.0000
     13 C13         0.7389   -5.2187    1.2312 C.2       1 <0>         0.0000
     14 C14         1.1473   -5.5200   -1.7655 C.2       1 <0>         0.0000
     15 C15         0.0249   -6.0283   -0.8696 C.3       1 <0>         0.0000
     16 C16         3.2525   -4.0727    2.4315 C.3       1 <0>         0.0000
     17 N1          0.4831   -6.2435    0.4973 N.2       1 <0>         0.0000
     18 N2          1.6624   -4.2805   -1.4017 N.am      1 <0>         0.0000
     19 O1          1.5833   -6.1223   -2.7346 O.2       1 <0>         0.0000
     20 H1         -0.1038   -7.1796    5.3532 H         1 <0>         0.0000
     21 H2         -0.2645   -0.7538    2.0591 H         1 <0>         0.0000
     22 H3          1.9363   -6.1811    6.3911 H         1 <0>         0.0000
     23 H4          0.6288   -0.0155   -0.1563 H         1 <0>         0.0000
     24 H5         -0.5962   -6.7279    2.9506 H         1 <0>         0.0000
     25 H6         -0.1952   -3.1588    2.6605 H         1 <0>         0.0000
     26 H7          3.4548   -4.7839    5.0269 H         1 <0>         0.0000
     27 H8          1.4874   -1.6915   -1.7623 H         1 <0>         0.0000
     28 H9         -0.8014   -5.3017   -0.9127 H         1 <0>         0.0000
     29 H10        -0.3140   -6.9757   -1.2880 H         1 <0>         0.0000
     30 H11         3.4045   -4.4753    1.4259 H         1 <0>         0.0000
     31 H12         2.8987   -3.0424    2.3184 H         1 <0>         0.0000
     32 H13         4.2252   -4.0382    2.9297 H         1 <0>         0.0000
     33 H14         2.2906   -3.8964   -2.1008 H         1 <0>         0.0000
@<TRIPOS>BOND
     1    1    3 ar
     2    1    5 ar
     3    1   20 1
     4    2    4 ar
     5    2    6 ar
     6    2   21 1
     7    3    7 ar
     8    3   22 1
     9    4    8 ar
    10    4   23 1
    11    5    9 ar
    12    5   24 1
    13    6   10 ar
    14    6   25 1
    15    7   11 ar
    16    7   26 1
    17    8   12 ar
    18    8   27 1
    19    9   11 ar
    20    9   13 1
    21   10   12 ar
    22   10   13 1
    23   11   16 1
    24   12   18 1
    25   13   17 2
    26   14   15 1
    27   14   18 am
    28   14   19 2
    29   15   17 1
    30   15   28 1
    31   15   29 1
    32   16   30 1
    33   16   31 1
    34   16   32 1
    35   18   33 1
