@<TRIPOS>MOLECULE
*****
   22    22     0     0     0
SMALL
NO_CHARGES

@<TRIPOS>ATOM
      1 C1          2.2362    0.3125   -0.1641 C.2       1 <0>         0.0000
      2 C2          0.8964    0.6538   -0.4990 C.2       1 <0>         0.0000
      3 C3          3.2290    0.6829   -1.0288 C.2       1 <0>         0.0000
      4 C4          0.5757    1.2989   -1.6693 C.2       1 <0>         0.0000
      5 C5          1.6237    1.7231   -2.5898 C.2       1 <0>         0.0000
      6 C6         -0.8570    1.7152   -1.8892 C.2       1 <0>         0.0000
      7 C7         -2.7686    1.9374   -3.3784 C.3       1 <0>         0.0000
      8 C8         -0.8425    0.5816   -4.1191 C.3       1 <0>         0.0000
      9 N1          2.9194    1.3511   -2.1767 N.am      1 <0>         0.0000
     10 N2         -1.4440    1.4072   -3.0816 N.am      1 <0>         0.0000
     11 O1          1.4840    2.3564   -3.6403 O.2       1 <0>         0.0000
     12 O2         -1.4540    2.3000   -0.9770 O.2       1 <0>         0.0000
     13 H1          2.4765   -0.2134    0.7521 H         1 <0>         0.0000
     14 H2          0.0914    0.4112    0.1899 H         1 <0>         0.0000
     15 H3          4.2809    0.4790   -0.8565 H         1 <0>         0.0000
     16 H4         -2.7454    2.4808   -4.3305 H         1 <0>         0.0000
     17 H5         -3.0681    2.6121   -2.5782 H         1 <0>         0.0000
     18 H6         -3.5026    1.1254   -3.4568 H         1 <0>         0.0000
     19 H7         -1.6003   -0.1121   -4.5014 H         1 <0>         0.0000
     20 H8         -0.0217   -0.0097   -3.7138 H         1 <0>         0.0000
     21 H9         -0.4588    1.1914   -4.9430 H         1 <0>         0.0000
     22 H10         3.6544    1.6536   -2.8087 H         1 <0>         0.0000
@<TRIPOS>BOND
     1    1    2 1
     2    1    3 2
     3    1   13 1
     4    2    4 2
     5    2   14 1
     6    3    9 1
     7    3   15 1
     8    4    5 1
     9    4    6 1
    10    5    9 am
    11    5   11 2
    12    6   10 am
    13    6   12 2
    14    7   10 1
    15    7   16 1
    16    7   17 1
    17    7   18 1
    18    8   10 1
    19    8   19 1
    20    8   20 1
    21    8   21 1
    22    9   22 1
