@<TRIPOS>MOLECULE
*****
   20    21     0     0     0
SMALL
NO_CHARGES

@<TRIPOS>ATOM
      1 C1          0.6236    0.9618    1.9085 C.ar      1 <0>         0.0000
      2 C2          0.2206   -0.2372    1.3243 C.ar      1 <0>         0.0000
      3 C3         -0.0890    1.3587    3.0459 C.ar      1 <0>         0.0000
      4 C4         -4.1353   -1.9132    4.7406 C.2       1 <0>         0.0000
      5 C5         -4.0093   -2.8846    3.7632 C.2       1 <0>         0.0000
      6 C6         -1.4049   -0.4980    2.9136 C.ar      1 <0>         0.0000
      7 C7         -2.5118   -1.2849    3.4705 C.2       1 <0>         0.0000
      8 C8         -2.5188   -3.2452    1.7893 C.3       1 <0>         0.0000
      9 N1         -0.7847   -0.9717    1.8128 N.ar      1 <0>         0.0000
     10 N2         -1.0940    0.6473    3.5541 N.ar      1 <0>         0.0000
     11 N3         -3.2083   -0.9323    4.5513 N.2       1 <0>         0.0000
     12 N4         -2.9743   -2.4849    2.9528 N.pl3     1 <0>         0.0000
     13 H1          1.4406    1.5521    1.5060 H         1 <0>         0.0000
     14 H2          0.7160   -0.6266    0.4354 H         1 <0>         0.0000
     15 H3          0.1582    2.2834    3.5672 H         1 <0>         0.0000
     16 H4         -4.8428   -1.8790    5.5595 H         1 <0>         0.0000
     17 H5         -4.5511   -3.8017    3.5773 H         1 <0>         0.0000
     18 H6         -2.6137   -2.6515    0.8799 H         1 <0>         0.0000
     19 H7         -1.4728   -3.5314    1.9015 H         1 <0>         0.0000
     20 H8         -3.1390   -4.1403    1.7109 H         1 <0>         0.0000
@<TRIPOS>BOND
     1    1    3 ar
     2    1    2 ar
     3    1   13 1
     4    2    9 ar
     5    2   14 1
     6    3   10 ar
     7    3   15 1
     8    4    5 2
     9    4   11 1
    10    4   16 1
    11    5   12 1
    12    5   17 1
    13    6    7 1
    14    6   10 ar
    15    6    9 ar
    16    7   11 2
    17    7   12 1
    18    8   12 1
    19    8   18 1
    20    8   19 1
    21    8   20 1
