@<TRIPOS>MOLECULE
*****
   26    27     0     0     0
SMALL
NO_CHARGES

@<TRIPOS>ATOM
      1 C1          1.4713   -1.3327    0.6892 C.ar      1 <0>         0.0000
      2 C2          0.7506   -0.7126   -0.3376 C.ar      1 <0>         0.0000
      3 C3          2.3242   -2.3877    0.3785 C.ar      1 <0>         0.0000
      4 C4          0.8985   -1.1446   -1.6525 C.ar      1 <0>         0.0000
      5 C5          2.4995   -2.8375   -0.9433 C.ar      1 <0>         0.0000
      6 C6          1.7711   -2.1997   -1.9780 C.ar      1 <0>         0.0000
      7 C7          3.4064   -3.9856   -1.2137 C.2       1 <0>         0.0000
      8 C8          3.0265   -2.8750   -4.0000 C.2       1 <0>         0.0000
      9 C9          4.2719   -2.9192   -3.1255 C.3       1 <0>         0.0000
     10 C10         3.3765   -5.1510   -0.2508 C.3       1 <0>         0.0000
     11 C11         0.6211   -2.5741   -4.1493 C.3       1 <0>         0.0000
     12 N1          4.2120   -4.0546   -2.2109 N.2       1 <0>         0.0000
     13 N2          1.8340   -2.6347   -3.3255 N.am      1 <0>         0.0000
     14 O1          3.0531   -3.0594   -5.2104 O.2       1 <0>         0.0000
     15 H1          1.3656   -0.9991    1.7175 H         1 <0>         0.0000
     16 H2          0.0774    0.1112   -0.1162 H         1 <0>         0.0000
     17 H3          2.8763   -2.8755    1.1758 H         1 <0>         0.0000
     18 H4          0.3413   -0.6518   -2.4421 H         1 <0>         0.0000
     19 H5          5.1235   -3.0432   -3.7939 H         1 <0>         0.0000
     20 H6          4.3732   -1.9632   -2.5909 H         1 <0>         0.0000
     21 H7          2.3527   -5.5071   -0.0955 H         1 <0>         0.0000
     22 H8          3.7726   -4.8674    0.7308 H         1 <0>         0.0000
     23 H9          3.9923   -5.9584   -0.6492 H         1 <0>         0.0000
     24 H10         0.4916   -1.5929   -4.6202 H         1 <0>         0.0000
     25 H11        -0.2458   -2.7982   -3.5257 H         1 <0>         0.0000
     26 H12         0.7104   -3.3165   -4.9417 H         1 <0>         0.0000
@<TRIPOS>BOND
     1    1    2 ar
     2    1    3 ar
     3    1   15 1
     4    2    4 ar
     5    2   16 1
     6    3    5 ar
     7    3   17 1
     8    4    6 ar
     9    4   18 1
    10    5    6 ar
    11    5    7 1
    12    6   13 1
    13    7   10 1
    14    7   12 2
    15    8    9 1
    16    8   13 am
    17    8   14 2
    18    9   12 1
    19    9   19 1
    20    9   20 1
    21   10   21 1
    22   10   22 1
    23   10   23 1
    24   11   13 1
    25   11   24 1
    26   11   25 1
    27   11   26 1
