@<TRIPOS>MOLECULE
*****
   32    34     0     0     0
SMALL
NO_CHARGES

@<TRIPOS>ATOM
      1 C1          1.9221   -1.0548   -0.1427 C.ar      1 <0>         0.0000
      2 C2          6.1553   -3.4914    3.0027 C.ar      1 <0>         0.0000
      3 C3          1.3051   -2.1172    0.5259 C.ar      1 <0>         0.0000
      4 C4          2.4730   -0.0014    0.5942 C.ar      1 <0>         0.0000
      5 C5          6.1839   -2.1373    3.3520 C.ar      1 <0>         0.0000
      6 C6          5.0163   -4.2534    3.2829 C.ar      1 <0>         0.0000
      7 C7          0.5468   -0.5015    6.2112 C.ar      1 <0>         0.0000
      8 C8          1.5655   -1.0879    6.9681 C.ar      1 <0>         0.0000
      9 C9          1.2416   -2.1256    1.9223 C.ar      1 <0>         0.0000
     10 C10         2.4081   -0.0124    1.9906 C.ar      1 <0>         0.0000
     11 C11         5.0794   -1.5500    3.9759 C.ar      1 <0>         0.0000
     12 C12         3.9133   -3.6634    3.9070 C.ar      1 <0>         0.0000
     13 C13         0.6317   -0.5032    4.8163 C.ar      1 <0>         0.0000
     14 C14         2.6597   -1.6706    6.3230 C.ar      1 <0>         0.0000
     15 C15         1.7921   -1.0739    2.6684 C.ar      1 <0>         0.0000
     16 C16         3.9336   -2.3066    4.2596 C.ar      1 <0>         0.0000
     17 C17         1.7260   -1.0857    4.1605 C.ar      1 <0>         0.0000
     18 C18         2.7532   -1.6769    4.9236 C.ar      1 <0>         0.0000
     19 H1          1.9741   -1.0484   -1.2285 H         1 <0>         0.0000
     20 H2          7.0127   -3.9486    2.5154 H         1 <0>         0.0000
     21 H3          0.8757   -2.9407   -0.0394 H         1 <0>         0.0000
     22 H4          2.9557    0.8276    0.0824 H         1 <0>         0.0000
     23 H5          7.0647   -1.5376    3.1364 H         1 <0>         0.0000
     24 H6          4.9853   -5.3062    3.0134 H         1 <0>         0.0000
     25 H7         -0.3087   -0.0455    6.7031 H         1 <0>         0.0000
     26 H8          1.5093   -1.0919    8.0537 H         1 <0>         0.0000
     27 H9          0.7657   -2.9537    2.4414 H         1 <0>         0.0000
     28 H10         2.8403    0.8046    2.5629 H         1 <0>         0.0000
     29 H11         5.1007   -0.4965    4.2433 H         1 <0>         0.0000
     30 H12         3.0268   -4.2552    4.1206 H         1 <0>         0.0000
     31 H13        -0.1565   -0.0492    4.2209 H         1 <0>         0.0000
     32 H14         3.4559   -2.1286    6.9045 H         1 <0>         0.0000
@<TRIPOS>BOND
     1    1    4 ar
     2    1    3 ar
     3    1   19 1
     4    2    6 ar
     5    2    5 ar
     6    2   20 1
     7    3    9 ar
     8    3   21 1
     9    4   10 ar
    10    4   22 1
    11    5   11 ar
    12    5   23 1
    13    6   12 ar
    14    6   24 1
    15    7    8 ar
    16    7   13 ar
    17    7   25 1
    18    8   14 ar
    19    8   26 1
    20    9   15 ar
    21    9   27 1
    22   10   15 ar
    23   10   28 1
    24   11   16 ar
    25   11   29 1
    26   12   16 ar
    27   12   30 1
    28   13   17 ar
    29   13   31 1
    30   14   18 ar
    31   14   32 1
    32   15   17 1
    33   16   18 1
    34   17   18 ar
