@<TRIPOS>MOLECULE
*****
   19    20     0     0     0
SMALL
NO_CHARGES

@<TRIPOS>ATOM
      1 C1          1.3908   -0.0386    1.6038 C.ar      1 <0>         0.0000
      2 C2          0.2054   -0.4329    0.9731 C.ar      1 <0>         0.0000
      3 C3          1.7175   -0.5551    2.8553 C.ar      1 <0>         0.0000
      4 C4         -0.6137   -1.3453    1.6405 C.ar      1 <0>         0.0000
      5 C5          3.8173   -1.4065    6.6419 C.2       1 <0>         0.0000
      6 C6          3.1238   -2.2903    7.3990 C.2       1 <0>         0.0000
      7 C7          0.8154   -1.4677    3.4313 C.ar      1 <0>         0.0000
      8 C8          2.0586   -1.8980    5.5466 C.2       1 <0>         0.0000
      9 N1         -0.3256   -1.8581    2.8429 N.ar      1 <0>         0.0000
     10 N2          3.1286   -1.1566    5.4509 N.2       1 <0>         0.0000
     11 N3          1.0155   -2.0641    4.6807 N.pl3     1 <0>         0.0000
     12 O1          1.9683   -2.6238    6.6975 O.3       1 <0>         0.0000
     13 H1          2.0618    0.6698    1.1244 H         1 <0>         0.0000
     14 H2         -0.0774   -0.0486   -0.0020 H         1 <0>         0.0000
     15 H3          2.6231   -0.2784    3.3794 H         1 <0>         0.0000
     16 H4         -1.5468   -1.6842    1.1932 H         1 <0>         0.0000
     17 H5          4.7620   -0.9260    6.8573 H         1 <0>         0.0000
     18 H6          3.2557   -2.7632    8.3595 H         1 <0>         0.0000
     19 H7          0.2787   -2.7004    4.9627 H         1 <0>         0.0000
@<TRIPOS>BOND
     1    1    2 ar
     2    1    3 ar
     3    1   13 1
     4    2    4 ar
     5    2   14 1
     6    3    7 ar
     7    3   15 1
     8    4    9 ar
     9    4   16 1
    10    5    6 2
    11    5   10 1
    12    5   17 1
    13    6   12 1
    14    6   18 1
    15    7    9 ar
    16    7   11 1
    17    8   10 2
    18    8   11 1
    19    8   12 1
    20   11   19 1
