@<TRIPOS>MOLECULE
*****
   24    24     0     0     0
SMALL
NO_CHARGES

@<TRIPOS>ATOM
      1 C1          7.8673   -0.5352   -2.7990 C.ar      1 <0>         0.0000
      2 C2          6.9460   -1.5611   -2.5693 C.ar      1 <0>         0.0000
      3 C3          7.6193    0.7306   -2.2576 C.ar      1 <0>         0.0000
      4 C4          5.7890   -1.3492   -1.8141 C.ar      1 <0>         0.0000
      5 C5          6.4699    0.9587   -1.5020 C.ar      1 <0>         0.0000
      6 C6          5.5436   -0.0760   -1.2720 C.ar      1 <0>         0.0000
      7 C7          3.3571   -0.5809   -0.1275 C.2       1 <0>         0.0000
      8 C8          1.2406   -0.7461    1.0838 C.3       1 <0>         0.0000
      9 C9          2.4505    1.4356    1.0445 C.3       1 <0>         0.0000
     10 N1          4.4103    0.2478   -0.4960 N.am      1 <0>         0.0000
     11 N2          2.3875    0.0384    0.6419 N.am      1 <0>         0.0000
     12 O1          3.2862   -1.7672   -0.4549 O.2       1 <0>         0.0000
     13 H1          8.7618   -0.7168   -3.3883 H         1 <0>         0.0000
     14 H2          7.1248   -2.5504   -2.9834 H         1 <0>         0.0000
     15 H3          8.3204    1.5450   -2.4220 H         1 <0>         0.0000
     16 H4          5.0808   -2.1469   -1.6405 H         1 <0>         0.0000
     17 H5          6.2872    1.9484   -1.0854 H         1 <0>         0.0000
     18 H6          1.1925   -0.7807    2.1794 H         1 <0>         0.0000
     19 H7          1.3461   -1.7595    0.7009 H         1 <0>         0.0000
     20 H8          0.3061   -0.3152    0.7034 H         1 <0>         0.0000
     21 H9          2.4477    2.1178    0.1833 H         1 <0>         0.0000
     22 H10         3.3284    1.6501    1.6695 H         1 <0>         0.0000
     23 H11         1.5672    1.6684    1.6409 H         1 <0>         0.0000
     24 H12         4.3865    1.2071   -0.1840 H         1 <0>         0.0000
@<TRIPOS>BOND
     1    1    3 ar
     2    1    2 ar
     3    1   13 1
     4    2    4 ar
     5    2   14 1
     6    3    5 ar
     7    3   15 1
     8    4    6 ar
     9    4   16 1
    10    5    6 ar
    11    5   17 1
    12    6   10 1
    13    7   10 am
    14    7   11 am
    15    7   12 2
    16    8   11 1
    17    8   18 1
    18    8   19 1
    19    8   20 1
    20    9   11 1
    21    9   21 1
    22    9   22 1
    23    9   23 1
    24   10   24 1
