@<TRIPOS>MOLECULE
*****
   29    30     0     0     0
SMALL
NO_CHARGES

@<TRIPOS>ATOM
      1 C1          1.2820    1.4547   -7.7265 C.ar      1 <0>         0.0000
      2 C2          0.5100    2.6182   -7.6295 C.ar      1 <0>         0.0000
      3 C3          1.1802    0.4683   -6.7396 C.ar      1 <0>         0.0000
      4 C4         -0.3601    2.7944   -6.5513 C.ar      1 <0>         0.0000
      5 C5          0.3264    0.6551   -5.6494 C.ar      1 <0>         0.0000
      6 C6         -0.4431    1.8231   -5.5448 C.ar      1 <0>         0.0000
      7 C7         -1.4449    2.0200   -4.4394 C.2       1 <0>         0.0000
      8 C8         -0.3780    0.6157   -0.5667 C.3       1 <0>         0.0000
      9 C9          0.6328    0.6344   -1.7219 C.3       1 <0>         0.0000
     10 C10        -1.8163    0.6252   -1.1024 C.3       1 <0>         0.0000
     11 C11         0.3399    1.7935   -2.6788 C.3       1 <0>         0.0000
     12 C12        -2.0431    1.7826   -2.0809 C.3       1 <0>         0.0000
     13 N1         -1.0459    1.7355   -3.1542 N.am      1 <0>         0.0000
     14 O1         -2.5953    2.3754   -4.7121 O.2       1 <0>         0.0000
     15 H1          1.9515    1.3133   -8.5711 H         1 <0>         0.0000
     16 H2          0.5786    3.3820   -8.3998 H         1 <0>         0.0000
     17 H3          1.7619   -0.4464   -6.8207 H         1 <0>         0.0000
     18 H4         -0.9888    3.6773   -6.4829 H         1 <0>         0.0000
     19 H5          0.2407   -0.1161   -4.8884 H         1 <0>         0.0000
     20 H6         -0.2202    1.5029    0.0621 H         1 <0>         0.0000
     21 H7         -0.2123   -0.2580    0.0734 H         1 <0>         0.0000
     22 H8          1.6556    0.7305   -1.3397 H         1 <0>         0.0000
     23 H9          0.5791   -0.3098   -2.2785 H         1 <0>         0.0000
     24 H10        -2.0238   -0.3188   -1.6217 H         1 <0>         0.0000
     25 H11        -2.5338    0.7060   -0.2779 H         1 <0>         0.0000
     26 H12         0.4856    2.7480   -2.1479 H         1 <0>         0.0000
     27 H13         1.0233    1.7901   -3.5256 H         1 <0>         0.0000
     28 H14        -3.0308    1.7396   -2.5382 H         1 <0>         0.0000
     29 H15        -1.9647    2.7455   -1.5530 H         1 <0>         0.0000
@<TRIPOS>BOND
     1    1    3 ar
     2    1    2 ar
     3    1   15 1
     4    2    4 ar
     5    2   16 1
     6    3    5 ar
     7    3   17 1
     8    4    6 ar
     9    4   18 1
    10    5    6 ar
    11    5   19 1
    12    6    7 1
    13    7   13 am
    14    7   14 2
    15    8   10 1
    16    8    9 1
    17    8   20 1
    18    8   21 1
    19    9   11 1
    20    9   22 1
    21    9   23 1
    22   10   12 1
    23   10   24 1
    24   10   25 1
    25   11   13 1
    26   11   26 1
    27   11   27 1
    28   12   13 1
    29   12   28 1
    30   12   29 1
