@<TRIPOS>MOLECULE
*****
   29    30     0     0     0
SMALL
NO_CHARGES

@<TRIPOS>ATOM
      1 C1          1.6994   -1.6947    0.2473 C.ar      1 <0>         0.0000
      2 C2         -0.2086   -4.9487    6.1982 C.ar      1 <0>         0.0000
      3 C3          2.5722   -2.3339    1.1345 C.ar      1 <0>         0.0000
      4 C4          0.8282   -0.7097    0.7244 C.ar      1 <0>         0.0000
      5 C5          1.0438   -4.7515    6.7956 C.ar      1 <0>         0.0000
      6 C6         -0.6730   -4.0147    5.2706 C.ar      1 <0>         0.0000
      7 C7          2.5785   -1.9888    2.4888 C.ar      1 <0>         0.0000
      8 C8          0.8329   -0.3703    2.0805 C.ar      1 <0>         0.0000
      9 C9          1.8139   -3.6363    6.4713 C.ar      1 <0>         0.0000
     10 C10         0.0910   -2.8905    4.9319 C.ar      1 <0>         0.0000
     11 C11         1.7083   -1.0039    2.9710 C.ar      1 <0>         0.0000
     12 C12         1.3396   -2.6998    5.5395 C.ar      1 <0>         0.0000
     13 C13         2.7130    0.5709    4.6616 C.3       1 <0>         0.0000
     14 C14         1.7380   -0.5830    4.4306 C.3       1 <0>         0.0000
     15 O1          2.1771   -1.6387    5.2973 O.3       1 <0>         0.0000
     16 H1          1.6934   -1.9661   -0.8052 H         1 <0>         0.0000
     17 H2         -0.8085   -5.8186    6.4509 H         1 <0>         0.0000
     18 H3          3.2457   -3.1063    0.7717 H         1 <0>         0.0000
     19 H4          0.1421   -0.2121    0.0436 H         1 <0>         0.0000
     20 H5          1.4217   -5.4688    7.5198 H         1 <0>         0.0000
     21 H6         -1.6387   -4.1577    4.7920 H         1 <0>         0.0000
     22 H7          3.2465   -2.4932    3.1808 H         1 <0>         0.0000
     23 H8          0.1457    0.3898    2.4490 H         1 <0>         0.0000
     24 H9          2.7844   -3.4671    6.9292 H         1 <0>         0.0000
     25 H10        -0.2835   -2.1981    4.1881 H         1 <0>         0.0000
     26 H11         3.7267    0.2665    4.3856 H         1 <0>         0.0000
     27 H12         2.7061    0.8679    5.7145 H         1 <0>         0.0000
     28 H13         2.4311    1.4291    4.0454 H         1 <0>         0.0000
     29 H14         0.7315   -0.2681    4.7376 H         1 <0>         0.0000
@<TRIPOS>BOND
     1    1    4 ar
     2    1    3 ar
     3    1   16 1
     4    2    6 ar
     5    2    5 ar
     6    2   17 1
     7    3    7 ar
     8    3   18 1
     9    4    8 ar
    10    4   19 1
    11    5    9 ar
    12    5   20 1
    13    6   10 ar
    14    6   21 1
    15    7   11 ar
    16    7   22 1
    17    8   11 ar
    18    8   23 1
    19    9   12 ar
    20    9   24 1
    21   10   12 ar
    22   10   25 1
    23   11   14 1
    24   12   15 1
    25   13   14 1
    26   13   26 1
    27   13   27 1
    28   13   28 1
    29   14   15 1
    30   14   29 1
