@<TRIPOS>MOLECULE
*****
   28    29     0     0     0
SMALL
NO_CHARGES

@<TRIPOS>ATOM
      1 C1          6.4889    2.8560   -2.4842 C.ar      1 <0>         0.0000
      2 C2          7.0483    4.0165   -1.9428 C.ar      1 <0>         0.0000
      3 C3          5.4209    2.2380   -1.8359 C.ar      1 <0>         0.0000
      4 C4          6.4940    4.5036   -0.7567 C.ar      1 <0>         0.0000
      5 C5          4.9462    2.8156   -0.6409 C.ar      1 <0>         0.0000
      6 C6          0.6592   -0.3399   -0.5675 C.3       1 <0>         0.0000
      7 C7          1.3391    0.2749   -1.7990 C.3       1 <0>         0.0000
      8 C8          1.6846   -0.6698    0.5268 C.3       1 <0>         0.0000
      9 C9          2.1824    1.5017   -1.4189 C.3       1 <0>         0.0000
     10 C10         2.5307    0.5576    0.8956 C.3       1 <0>         0.0000
     11 C11         3.2094    1.1432   -0.3409 C.3       1 <0>         0.0000
     12 N1          5.4715    3.9261   -0.1163 N.ar      1 <0>         0.0000
     13 O1          3.9306    2.3080    0.1049 O.3       1 <0>         0.0000
     14 H1          6.8762    2.4313   -3.4072 H         1 <0>         0.0000
     15 H2          7.8790    4.5279   -2.4191 H         1 <0>         0.0000
     16 H3          4.9792    1.3415   -2.2530 H         1 <0>         0.0000
     17 H4          6.8907    5.4062   -0.2931 H         1 <0>         0.0000
     18 H5          0.1045   -1.2418   -0.8514 H         1 <0>         0.0000
     19 H6         -0.0769    0.3719   -0.1700 H         1 <0>         0.0000
     20 H7          1.9835   -0.4793   -2.2723 H         1 <0>         0.0000
     21 H8          0.5912    0.5581   -2.5481 H         1 <0>         0.0000
     22 H9          1.1795   -1.0516    1.4210 H         1 <0>         0.0000
     23 H10         2.3439   -1.4752    0.1742 H         1 <0>         0.0000
     24 H11         2.6784    1.9171   -2.3020 H         1 <0>         0.0000
     25 H12         1.5362    2.2917   -1.0169 H         1 <0>         0.0000
     26 H13         1.8964    1.3336    1.3410 H         1 <0>         0.0000
     27 H14         3.2935    0.3011    1.6380 H         1 <0>         0.0000
     28 H15         3.9209    0.4017   -0.7288 H         1 <0>         0.0000
@<TRIPOS>BOND
     1    1    2 ar
     2    1    3 ar
     3    1   14 1
     4    2    4 ar
     5    2   15 1
     6    3    5 ar
     7    3   16 1
     8    4   12 ar
     9    4   17 1
    10    5   12 ar
    11    5   13 1
    12    6    8 1
    13    6    7 1
    14    6   18 1
    15    6   19 1
    16    7    9 1
    17    7   20 1
    18    7   21 1
    19    8   10 1
    20    8   22 1
    21    8   23 1
    22    9   11 1
    23    9   24 1
    24    9   25 1
    25   10   11 1
    26   10   26 1
    27   10   27 1
    28   11   13 1
    29   11   28 1
