@<TRIPOS>MOLECULE
*****
   33    35     0     0     0
SMALL
NO_CHARGES

@<TRIPOS>ATOM
      1 C1          5.2355    5.5090   -1.5675 C.ar      1 <0>         0.0000
      2 C2          1.4905    0.8781   -0.1503 C.ar      1 <0>         0.0000
      3 C3          5.0614    5.1612   -2.9099 C.ar      1 <0>         0.0000
      4 C4          0.1063    0.7241    0.0096 C.ar      1 <0>         0.0000
      5 C5          4.1749    5.3451   -0.6755 C.ar      1 <0>         0.0000
      6 C6          2.0390    2.1564   -0.1558 C.ar      1 <0>         0.0000
      7 C7          3.8293    4.6651   -3.3450 C.ar      1 <0>         0.0000
      8 C8         -0.7026    1.8414    0.1933 C.ar      1 <0>         0.0000
      9 C9          2.9468    4.8209   -1.1037 C.ar      1 <0>         0.0000
     10 C10         1.2405    3.3020    0.0196 C.ar      1 <0>         0.0000
     11 C11         2.7568    4.4818   -2.4612 C.ar      1 <0>         0.0000
     12 C12        -0.1479    3.1329    0.2148 C.ar      1 <0>         0.0000
     13 C13         1.8633    4.6477   -0.0869 C.2       1 <0>         0.0000
     14 C14        -0.8209    5.3532    1.1517 C.2       1 <0>         0.0000
     15 C15         0.5889    5.4982    1.7108 C.3       1 <0>         0.0000
     16 C16         1.4333    3.9731   -2.9905 C.3       1 <0>         0.0000
     17 N1          1.5751    5.6615    0.6501 N.2       1 <0>         0.0000
     18 N2         -1.0171    4.2307    0.3549 N.am      1 <0>         0.0000
     19 O1         -1.7319    6.1379    1.3672 O.2       1 <0>         0.0000
     20 H1          6.1849    5.9080   -1.2201 H         1 <0>         0.0000
     21 H2          2.1285    0.0091   -0.2825 H         1 <0>         0.0000
     22 H3          5.8758    5.2867   -3.6190 H         1 <0>         0.0000
     23 H4         -0.3404   -0.2664   -0.0014 H         1 <0>         0.0000
     24 H5          4.2842    5.6219    0.3690 H         1 <0>         0.0000
     25 H6          3.1046    2.2886   -0.3178 H         1 <0>         0.0000
     26 H7          3.6917    4.4242   -4.3969 H         1 <0>         0.0000
     27 H8         -1.7751    1.7231    0.3302 H         1 <0>         0.0000
     28 H9          0.5917    6.3855    2.3433 H         1 <0>         0.0000
     29 H10         0.8017    4.6146    2.3325 H         1 <0>         0.0000
     30 H11         1.2959    2.9072   -2.7794 H         1 <0>         0.0000
     31 H12         0.5875    4.5037   -2.5437 H         1 <0>         0.0000
     32 H13         1.3790    4.1079   -4.0743 H         1 <0>         0.0000
     33 H14        -1.9947    4.0759    0.1283 H         1 <0>         0.0000
@<TRIPOS>BOND
     1    1    3 ar
     2    1    5 ar
     3    1   20 1
     4    2    4 ar
     5    2    6 ar
     6    2   21 1
     7    3    7 ar
     8    3   22 1
     9    4    8 ar
    10    4   23 1
    11    5    9 ar
    12    5   24 1
    13    6   10 ar
    14    6   25 1
    15    7   11 ar
    16    7   26 1
    17    8   12 ar
    18    8   27 1
    19    9   11 ar
    20    9   13 1
    21   10   12 ar
    22   10   13 1
    23   11   16 1
    24   12   18 1
    25   13   17 2
    26   14   15 1
    27   14   18 am
    28   14   19 2
    29   15   17 1
    30   15   28 1
    31   15   29 1
    32   16   30 1
    33   16   31 1
    34   16   32 1
    35   18   33 1
