@<TRIPOS>MOLECULE
*****
   34    36     0     0     0
SMALL
NO_CHARGES

@<TRIPOS>ATOM
      1 C1          1.0733    9.4321   -2.7228 C.ar      1 <0>         0.0000
      2 C2          2.0157    8.1710   -0.9132 C.ar      1 <0>         0.0000
      3 C3          0.1746    8.3967   -2.9819 C.ar      1 <0>         0.0000
      4 C4          1.1258    7.1244   -1.1544 C.ar      1 <0>         0.0000
      5 C5         -0.3936    2.5722   -0.3805 C.2       1 <0>         0.0000
      6 C6         -0.4240    1.2815    0.0699 C.2       1 <0>         0.0000
      7 C7         -1.3006    2.8019   -1.4716 C.2       1 <0>         0.0000
      8 C8          2.0106    9.3440   -1.6837 C.ar      1 <0>         0.0000
      9 C9          0.1952    7.2337   -2.1979 C.ar      1 <0>         0.0000
     10 C10        -1.9823    1.6391   -1.7922 C.2       1 <0>         0.0000
     11 C11        -1.4880    4.0804   -2.1595 C.2       1 <0>         0.0000
     12 C12        -2.5861    4.2249   -3.1991 C.3       1 <0>         0.0000
     13 C13        -3.7514    3.2447   -3.0347 C.3       1 <0>         0.0000
     14 C14         2.9599   10.4813   -1.3842 C.3       1 <0>         0.0000
     15 N1         -0.6566    5.0300   -1.8534 N.2       1 <0>         0.0000
     16 N2         -0.7333    6.2165   -2.4750 N.pl3     1 <0>         0.0000
     17 O1         -2.4740    1.3598   -4.3987 O.2       1 <0>         0.0000
     18 O2         -4.2333    0.6065   -2.7177 O.2       1 <0>         0.0000
     19 S1         -1.5542    0.2874   -0.7945 S.3       1 <0>         0.0000
     20 S2         -3.1615    1.5327   -3.1090 S.o2      1 <0>         0.0000
     21 H1          1.0434   10.3233   -3.3458 H         1 <0>         0.0000
     22 H2          2.7353    8.0693   -0.1034 H         1 <0>         0.0000
     23 H3         -0.5402    8.4916   -3.7976 H         1 <0>         0.0000
     24 H4          1.1471    6.2238   -0.5521 H         1 <0>         0.0000
     25 H5          0.2389    3.3483    0.0328 H         1 <0>         0.0000
     26 H6          0.1530    0.8477    0.8773 H         1 <0>         0.0000
     27 H7         -3.0121    5.2341   -3.1400 H         1 <0>         0.0000
     28 H8         -2.1652    4.1076   -4.2062 H         1 <0>         0.0000
     29 H9         -4.2667    3.3558   -2.0782 H         1 <0>         0.0000
     30 H10        -4.4709    3.3389   -3.8523 H         1 <0>         0.0000
     31 H11         2.5489   11.1496   -0.6173 H         1 <0>         0.0000
     32 H12         3.9212   10.1122   -1.0136 H         1 <0>         0.0000
     33 H13         3.1532   11.0858   -2.2755 H         1 <0>         0.0000
     34 H14        -1.2869    6.3204   -3.3205 H         1 <0>         0.0000
@<TRIPOS>BOND
     1    1    3 ar
     2    1    8 ar
     3    1   21 1
     4    2    4 ar
     5    2    8 ar
     6    2   22 1
     7    3    9 ar
     8    3   23 1
     9    4    9 ar
    10    4   24 1
    11    5    6 2
    12    5    7 1
    13    5   25 1
    14    6   19 1
    15    6   26 1
    16    7   10 2
    17    7   11 1
    18    8   14 1
    19    9   16 1
    20   10   19 1
    21   10   20 1
    22   11   12 1
    23   11   15 2
    24   12   13 1
    25   12   27 1
    26   12   28 1
    27   13   20 1
    28   13   29 1
    29   13   30 1
    30   14   31 1
    31   14   32 1
    32   14   33 1
    33   15   16 1
    34   16   34 1
    35   17   20 2
    36   18   20 2
