@<TRIPOS>MOLECULE
*****
   40    42     0     0     0
SMALL
NO_CHARGES

@<TRIPOS>ATOM
      1 C1         -2.1910    5.0313    2.0356 C.1       1 <0>         0.0000
      2 C2          4.4857    6.2965    4.0304 C.ar      1 <0>         0.0000
      3 C3          2.7551    7.8542    4.6256 C.ar      1 <0>         0.0000
      4 C4          3.5499    5.5037    3.3651 C.ar      1 <0>         0.0000
      5 C5          1.8039    7.0777    3.9665 C.ar      1 <0>         0.0000
      6 C6          4.1100    7.4858    4.6710 C.ar      1 <0>         0.0000
      7 C7          2.2042    5.8937    3.3313 C.ar      1 <0>         0.0000
      8 C8         -0.4726    3.3617    1.2420 C.2       1 <0>         0.0000
      9 C9         -0.4292    1.5146    0.0706 C.2       1 <0>         0.0000
     10 C10        -0.8306    4.5872    1.9544 C.2       1 <0>         0.0000
     11 C11        -0.8697    0.3375   -0.7345 C.3       1 <0>         0.0000
     12 C12        -1.9641   -0.5053   -0.0474 C.3       1 <0>         0.0000
     13 C13        -3.3654    0.1230   -0.0655 C.3       1 <0>         0.0000
     14 C14        -3.5189    1.4581    0.6783 C.3       1 <0>         0.0000
     15 C15        -2.6878    2.6123    0.1071 C.3       1 <0>         0.0000
     16 C16         5.1308    8.3594    5.3623 C.3       1 <0>         0.0000
     17 N1         -3.3065    5.3699    2.0977 N.1       1 <0>         0.0000
     18 N2          0.7669    2.8703    1.2617 N.2       1 <0>         0.0000
     19 N3          0.7906    1.7099    0.5311 N.2       1 <0>         0.0000
     20 N4          0.0196    5.3634    2.6034 N.2       1 <0>         0.0000
     21 N5         -1.2683    2.5265    0.4787 N.pl3     1 <0>         0.0000
     22 N6          1.2947    5.0639    2.6525 N.pl3     1 <0>         0.0000
     23 H1          5.5260    5.9799    4.0511 H         1 <0>         0.0000
     24 H2          2.4352    8.7698    5.1187 H         1 <0>         0.0000
     25 H3          3.8599    4.5828    2.8765 H         1 <0>         0.0000
     26 H4          0.7607    7.3720    3.9406 H         1 <0>         0.0000
     27 H5         -1.2227    0.6648   -1.7219 H         1 <0>         0.0000
     28 H6          0.0250   -0.2674   -0.8998 H         1 <0>         0.0000
     29 H7         -2.0153   -1.4727   -0.5594 H         1 <0>         0.0000
     30 H8         -1.6574   -0.7142    0.9846 H         1 <0>         0.0000
     31 H9         -3.6753    0.2662   -1.1101 H         1 <0>         0.0000
     32 H10        -4.0733   -0.5946    0.3651 H         1 <0>         0.0000
     33 H11        -4.5701    1.7635    0.6321 H         1 <0>         0.0000
     34 H12        -3.2750    1.3411    1.7408 H         1 <0>         0.0000
     35 H13        -2.7462    2.6244   -0.9871 H         1 <0>         0.0000
     36 H14        -3.0745    3.5632    0.4591 H         1 <0>         0.0000
     37 H15         5.4826    9.1570    4.6963 H         1 <0>         0.0000
     38 H16         4.7095    8.8393    6.2511 H         1 <0>         0.0000
     39 H17         6.0062    7.7818    5.6733 H         1 <0>         0.0000
     40 H18         1.6160    4.1930    2.1967 H         1 <0>         0.0000
@<TRIPOS>BOND
     1    1   10 1
     2    1   17 3
     3    2    4 ar
     4    2    6 ar
     5    2   23 1
     6    3    5 ar
     7    3    6 ar
     8    3   24 1
     9    4    7 ar
    10    4   25 1
    11    5    7 ar
    12    5   26 1
    13    6   16 1
    14    7   22 1
    15    8   10 1
    16    8   18 2
    17    8   21 1
    18    9   11 1
    19    9   19 2
    20    9   21 1
    21   10   20 2
    22   11   12 1
    23   11   27 1
    24   11   28 1
    25   12   13 1
    26   12   29 1
    27   12   30 1
    28   13   14 1
    29   13   31 1
    30   13   32 1
    31   14   15 1
    32   14   33 1
    33   14   34 1
    34   15   21 1
    35   15   35 1
    36   15   36 1
    37   16   37 1
    38   16   38 1
    39   16   39 1
    40   18   19 1
    41   20   22 1
    42   22   40 1
