@<TRIPOS>MOLECULE
*****
   27    29     0     0     0
SMALL
NO_CHARGES

@<TRIPOS>ATOM
      1 C1         -0.1616    1.0404   -0.0972 C.ar      1 <0>         0.0000
      2 C2         -0.0711    2.0576    0.8717 C.ar      1 <0>         0.0000
      3 C3          2.9993   -0.6305   -0.8957 C.2       1 <0>         0.0000
      4 C4          3.7644    0.2783   -1.6830 C.2       1 <0>         0.0000
      5 C5         -0.8845   -0.5930    1.5819 C.ar      1 <0>         0.0000
      6 C6         -0.5600   -0.2531    0.2491 C.ar      1 <0>         0.0000
      7 C7         -0.4019    1.7151    2.1698 C.ar      1 <0>         0.0000
      8 C8         -0.8038    0.4218    2.5137 C.ar      1 <0>         0.0000
      9 C9          1.9458   -1.1653   -1.5930 C.2       1 <0>         0.0000
     10 C10         3.2557    0.4015   -2.9530 C.2       1 <0>         0.0000
     11 C11        -0.6611    1.6309    4.3929 C.3       1 <0>         0.0000
     12 N1         -0.6012   -1.2406   -0.7957 N.pl3     1 <0>         0.0000
     13 O1          1.2554   -2.6753    0.3975 O.2       1 <0>         0.0000
     14 O2          0.3577   -3.2764   -1.9150 O.2       1 <0>         0.0000
     15 O3         -0.4328    2.5205    3.2855 O.3       1 <0>         0.0000
     16 O4         -1.1004    0.3715    3.8578 O.3       1 <0>         0.0000
     17 S1          1.8476   -0.5828   -3.2291 S.3       1 <0>         0.0000
     18 S2          0.7515   -2.2787   -0.9199 S.o2      1 <0>         0.0000
     19 Cl1         3.8903    1.3866   -4.2227 Cl        1 <0>         0.0000
     20 H1          0.0739    1.2520   -1.1347 H         1 <0>         0.0000
     21 H2          0.2326    3.0663    0.6118 H         1 <0>         0.0000
     22 H3          3.1977   -0.8832    0.1397 H         1 <0>         0.0000
     23 H4          4.6423    0.8116   -1.3371 H         1 <0>         0.0000
     24 H5         -1.1575   -1.6057    1.8584 H         1 <0>         0.0000
     25 H6          0.2796    1.4850    4.9403 H         1 <0>         0.0000
     26 H7         -1.4424    2.0448    5.0335 H         1 <0>         0.0000
     27 H8         -1.4347   -1.8305   -0.7978 H         1 <0>         0.0000
@<TRIPOS>BOND
     1    1    2 ar
     2    1    6 ar
     3    1   20 1
     4    2    7 ar
     5    2   21 1
     6    3    4 1
     7    3    9 2
     8    3   22 1
     9    4   10 2
    10    4   23 1
    11    5    6 ar
    12    5    8 ar
    13    5   24 1
    14    6   12 1
    15    7    8 ar
    16    7   15 1
    17    8   16 1
    18    9   17 1
    19    9   18 1
    20   10   17 1
    21   10   19 1
    22   11   15 1
    23   11   16 1
    24   11   25 1
    25   11   26 1
    26   12   18 1
    27   12   27 1
    28   13   18 2
    29   14   18 2
