@<TRIPOS>MOLECULE
*****
   27    29     0     0     0
SMALL
NO_CHARGES

@<TRIPOS>ATOM
      1 C1         -0.1493    1.9068    0.9719 C.ar      1 <0>         0.0000
      2 C2         -0.0690    2.5576    2.2179 C.ar      1 <0>         0.0000
      3 C3          2.8557    0.1216   -1.2866 C.2       1 <0>         0.0000
      4 C4          4.0209    0.6733   -0.6801 C.2       1 <0>         0.0000
      5 C5         -0.9903   -0.1467    2.0155 C.ar      1 <0>         0.0000
      6 C6         -0.6067    0.5882    0.8726 C.ar      1 <0>         0.0000
      7 C7         -0.4255    1.8212    3.3315 C.ar      1 <0>         0.0000
      8 C8         -0.8694    0.5006    3.2286 C.ar      1 <0>         0.0000
      9 C9          2.0523   -0.5272   -0.3806 C.2       1 <0>         0.0000
     10 C10         4.0562    0.4249    0.6713 C.2       1 <0>         0.0000
     11 C11        -0.7392    1.0265    5.4019 C.3       1 <0>         0.0000
     12 N1         -0.6759   -0.0548   -0.4042 N.pl3     1 <0>         0.0000
     13 O1          0.2714   -2.3290    0.2369 O.2       1 <0>         0.0000
     14 O2          0.3989   -1.4681   -2.1838 O.2       1 <0>         0.0000
     15 O3         -0.4558    2.2194    4.6496 O.3       1 <0>         0.0000
     16 O4         -1.1949    0.0242    4.4777 O.3       1 <0>         0.0000
     17 S1          2.6901   -0.4877    1.2371 S.3       1 <0>         0.0000
     18 S2          0.4794   -1.2647   -0.7391 S.o2      1 <0>         0.0000
     19 Cl1         5.2945    0.9141    1.7732 Cl        1 <0>         0.0000
     20 H1          0.1629    2.4346    0.0746 H         1 <0>         0.0000
     21 H2          0.2718    3.5843    2.3021 H         1 <0>         0.0000
     22 H3          2.6199    0.1772   -2.3439 H         1 <0>         0.0000
     23 H4          4.7981    1.2138   -1.2084 H         1 <0>         0.0000
     24 H5         -1.3438   -1.1674    1.9300 H         1 <0>         0.0000
     25 H6          0.1806    0.6787    5.8904 H         1 <0>         0.0000
     26 H7         -1.5285    1.2353    6.1269 H         1 <0>         0.0000
     27 H8         -0.6957    0.5935   -1.1899 H         1 <0>         0.0000
@<TRIPOS>BOND
     1    1    2 ar
     2    1    6 ar
     3    1   20 1
     4    2    7 ar
     5    2   21 1
     6    3    4 1
     7    3    9 2
     8    3   22 1
     9    4   10 2
    10    4   23 1
    11    5    6 ar
    12    5    8 ar
    13    5   24 1
    14    6   12 1
    15    7    8 ar
    16    7   15 1
    17    8   16 1
    18    9   17 1
    19    9   18 1
    20   10   17 1
    21   10   19 1
    22   11   15 1
    23   11   16 1
    24   11   25 1
    25   11   26 1
    26   12   18 1
    27   12   27 1
    28   13   18 2
    29   14   18 2
