@<TRIPOS>MOLECULE
*****
   37    39     0     0     0
SMALL
NO_CHARGES

@<TRIPOS>ATOM
      1 C1          4.8542   -4.9252    1.8852 C.ar      1 <0>         0.0000
      2 C2          5.2918   -3.5950    1.9408 C.ar      1 <0>         0.0000
      3 C3          3.7849   -5.2968    1.0605 C.ar      1 <0>         0.0000
      4 C4         -3.3298   -8.1842   -4.3299 C.ar      1 <0>         0.0000
      5 C5         -2.9568   -6.8387   -4.3417 C.ar      1 <0>         0.0000
      6 C6          4.6675   -2.6040    1.1701 C.ar      1 <0>         0.0000
      7 C7         -1.6074   -8.6314   -2.7369 C.ar      1 <0>         0.0000
      8 C8          3.1615   -4.3107    0.2919 C.ar      1 <0>         0.0000
      9 C9         -1.2179   -7.2753   -2.7372 C.ar      1 <0>         0.0000
     10 C10        -2.6579   -9.1102   -3.5196 C.ar      1 <0>         0.0000
     11 C11        -1.9061   -6.3435   -3.5588 C.ar      1 <0>         0.0000
     12 C12         3.6122   -2.9950    0.3621 C.ar      1 <0>         0.0000
     13 C13         2.0175   -4.3991   -0.6649 C.2       1 <0>         0.0000
     14 C14        -0.0985   -6.9333   -1.8636 C.2       1 <0>         0.0000
     15 C15        -3.0743  -10.5624   -3.4809 C.3       1 <0>         0.0000
     16 C16        -1.5583   -4.8782   -3.6248 C.3       1 <0>         0.0000
     17 N1          1.6258   -3.3105   -1.2606 N.2       1 <0>         0.0000
     18 N2          0.3842   -5.7461   -1.7379 N.2       1 <0>         0.0000
     19 N3          1.4330   -5.6091   -0.8746 N.pl3     1 <0>         0.0000
     20 O1          1.7738   -1.0655    0.0201 O.2       1 <0>         0.0000
     21 O2          3.3908   -1.5177   -1.8714 O.2       1 <0>         0.0000
     22 S1          2.5863   -2.0054   -0.7516 S.o2      1 <0>         0.0000
     23 H1          5.3506   -5.6788    2.4898 H         1 <0>         0.0000
     24 H2          6.1232   -3.3294    2.5876 H         1 <0>         0.0000
     25 H3          3.4657   -6.3359    1.0363 H         1 <0>         0.0000
     26 H4         -4.1521   -8.5171   -4.9600 H         1 <0>         0.0000
     27 H5         -3.4979   -6.1472   -4.9831 H         1 <0>         0.0000
     28 H6          4.9970   -1.5700    1.2041 H         1 <0>         0.0000
     29 H7         -1.0643   -9.3293   -2.1011 H         1 <0>         0.0000
     30 H8          0.3300   -7.7727   -1.2940 H         1 <0>         0.0000
     31 H9         -3.3108  -10.9351   -4.4825 H         1 <0>         0.0000
     32 H10        -2.2853  -11.1947   -3.0636 H         1 <0>         0.0000
     33 H11        -3.9694  -10.6982   -2.8623 H         1 <0>         0.0000
     34 H12        -1.6381   -4.3986   -2.6452 H         1 <0>         0.0000
     35 H13        -0.5232   -4.7215   -3.9416 H         1 <0>         0.0000
     36 H14        -2.2230   -4.3646   -4.3245 H         1 <0>         0.0000
     37 H15         1.7888   -6.4219   -0.3740 H         1 <0>         0.0000
@<TRIPOS>BOND
     1    1    2 ar
     2    1    3 ar
     3    1   23 1
     4    2    6 ar
     5    2   24 1
     6    3    8 ar
     7    3   25 1
     8    4    5 ar
     9    4   10 ar
    10    4   26 1
    11    5   11 ar
    12    5   27 1
    13    6   12 ar
    14    6   28 1
    15    7    9 ar
    16    7   10 ar
    17    7   29 1
    18    8   12 ar
    19    8   13 1
    20    9   11 ar
    21    9   14 1
    22   10   15 1
    23   11   16 1
    24   12   22 1
    25   13   17 2
    26   13   19 1
    27   14   18 2
    28   14   30 1
    29   15   31 1
    30   15   32 1
    31   15   33 1
    32   16   34 1
    33   16   35 1
    34   16   36 1
    35   17   22 1
    36   18   19 1
    37   19   37 1
    38   20   22 2
    39   21   22 2
