@<TRIPOS>MOLECULE
*****
   40    43     0     0     0
SMALL
NO_CHARGES

@<TRIPOS>ATOM
      1 C1         -4.6696   -0.2434   -2.7465 C.1       1 <0>         0.0000
      2 C2         -1.9920   -8.5506    1.2151 C.ar      1 <0>         0.0000
      3 C3         -1.2650   -7.8064    2.1511 C.ar      1 <0>         0.0000
      4 C4         -2.3771   -7.9620    0.0064 C.ar      1 <0>         0.0000
      5 C5         -0.9360   -6.4752    1.8910 C.ar      1 <0>         0.0000
      6 C6         -2.0416   -6.6347   -0.2706 C.ar      1 <0>         0.0000
      7 C7         -3.7158   -1.2209   -3.1525 C.2       1 <0>         0.0000
      8 C8         -0.9490   -2.3758   -0.1001 C.2       1 <0>         0.0000
      9 C9         -3.9141   -2.1435   -4.2302 C.2       1 <0>         0.0000
     10 C10        -1.3343   -5.8951    0.6823 C.ar      1 <0>         0.0000
     11 C11        -2.8483   -2.9711   -4.4306 C.2       1 <0>         0.0000
     12 C12         0.3093   -2.8116    0.4203 C.2       1 <0>         0.0000
     13 C13        -2.4917   -1.4003   -2.5109 C.2       1 <0>         0.0000
     14 C14        -1.7450   -3.5195   -0.0527 C.2       1 <0>         0.0000
     15 C15        -1.3017   -1.0154   -0.5003 C.2       1 <0>         0.0000
     16 C16        -4.9706   -2.3479   -5.2854 C.3       1 <0>         0.0000
     17 C17        -2.9870   -3.8322   -5.6569 C.3       1 <0>         0.0000
     18 C18        -4.5090   -3.6735   -5.9639 C.3       1 <0>         0.0000
     19 C19         1.5544   -1.9992    0.5953 C.3       1 <0>         0.0000
     20 N1         -5.4797    0.5413   -2.4476 N.1       1 <0>         0.0000
     21 N2          0.2891   -4.1067    0.7186 N.2       1 <0>         0.0000
     22 N3         -2.0292   -0.6149   -1.4852 N.2       1 <0>         0.0000
     23 N4         -0.9796   -4.5395    0.4243 N.pl3     1 <0>         0.0000
     24 S1         -1.5636   -2.6970   -3.2954 S.3       1 <0>         0.0000
     25 Cl1        -3.4289   -3.6649   -0.3561 Cl        1 <0>         0.0000
     26 H1         -2.2509   -9.5850    1.4239 H         1 <0>         0.0000
     27 H2         -0.9577   -8.2609    3.0889 H         1 <0>         0.0000
     28 H3         -2.9280   -8.5392   -0.7310 H         1 <0>         0.0000
     29 H4         -0.3713   -5.8838    2.6038 H         1 <0>         0.0000
     30 H5         -2.3135   -6.1841   -1.2191 H         1 <0>         0.0000
     31 H6         -0.9019   -0.2209    0.1344 H         1 <0>         0.0000
     32 H7         -5.9825   -2.4206   -4.8752 H         1 <0>         0.0000
     33 H8         -4.9720   -1.5080   -5.9916 H         1 <0>         0.0000
     34 H9         -2.3648   -3.4467   -6.4753 H         1 <0>         0.0000
     35 H10        -2.7029   -4.8777   -5.4993 H         1 <0>         0.0000
     36 H11        -5.0490   -4.5114   -5.5128 H         1 <0>         0.0000
     37 H12        -4.7161   -3.6872   -7.0370 H         1 <0>         0.0000
     38 H13         1.3758   -1.1383    1.2489 H         1 <0>         0.0000
     39 H14         2.3384   -2.6163    1.0389 H         1 <0>         0.0000
     40 H15         1.9135   -1.6142   -0.3647 H         1 <0>         0.0000
@<TRIPOS>BOND
     1    1    7 1
     2    1   20 3
     3    2    4 ar
     4    2    3 ar
     5    2   26 1
     6    3    5 ar
     7    3   27 1
     8    4    6 ar
     9    4   28 1
    10    5   10 ar
    11    5   29 1
    12    6   10 ar
    13    6   30 1
    14    7    9 1
    15    7   13 2
    16    8   12 1
    17    8   14 2
    18    8   15 1
    19    9   11 2
    20    9   16 1
    21   10   23 1
    22   11   17 1
    23   11   24 1
    24   12   19 1
    25   12   21 2
    26   13   22 1
    27   13   24 1
    28   14   23 1
    29   14   25 1
    30   15   22 2
    31   15   31 1
    32   16   18 1
    33   16   32 1
    34   16   33 1
    35   17   18 1
    36   17   34 1
    37   17   35 1
    38   18   36 1
    39   18   37 1
    40   19   38 1
    41   19   39 1
    42   19   40 1
    43   21   23 1
