@<TRIPOS>MOLECULE
*****
   26    27     0     0     0
SMALL
NO_CHARGES

@<TRIPOS>ATOM
      1 C1          6.4663    0.6797    0.4310 C.ar      1 <0>         0.0000
      2 C2          5.6124   -0.5551   -1.4684 C.ar      1 <0>         0.0000
      3 C3          3.0056    0.1799    0.7559 C.ar      1 <0>         0.0000
      4 C4          7.0331    1.6233   -0.4291 C.ar      1 <0>         0.0000
      5 C5          6.1743    0.3821   -2.3385 C.ar      1 <0>         0.0000
      6 C6          1.7288    0.6788    0.9952 C.ar      1 <0>         0.0000
      7 C7          1.2604   -1.2087    2.4228 C.ar      1 <0>         0.0000
      8 C8          2.5497   -1.7181    2.1849 C.ar      1 <0>         0.0000
      9 C9          5.7462   -0.4078   -0.0813 C.ar      1 <0>         0.0000
     10 C10         3.4503   -1.0212    1.3371 C.ar      1 <0>         0.0000
     11 C11         6.8788    1.4661   -1.8086 C.ar      1 <0>         0.0000
     12 C12         0.8558   -0.0207    1.8321 C.ar      1 <0>         0.0000
     13 C13         2.9446   -2.9891    2.8344 C.2       1 <0>         0.0000
     14 O1          4.0312   -3.5300    2.7103 O.2       1 <0>         0.0000
     15 O2          1.9660   -3.5311    3.6117 O.3       1 <0>         0.0000
     16 S1          5.0922   -1.6591    1.0264 S.3       1 <0>         0.0000
     17 Cl1         7.5860    2.6474   -2.8947 Cl        1 <0>         0.0000
     18 Cl2        -0.7541    0.6068    2.1347 Cl        1 <0>         0.0000
     19 H1          6.5789    0.7917    1.5054 H         1 <0>         0.0000
     20 H2          5.0623   -1.4017   -1.8685 H         1 <0>         0.0000
     21 H3          3.6616    0.7423    0.1034 H         1 <0>         0.0000
     22 H4          7.5893    2.4679   -0.0347 H         1 <0>         0.0000
     23 H5          6.0699    0.2717   -3.4132 H         1 <0>         0.0000
     24 H6          1.4140    1.6091    0.5321 H         1 <0>         0.0000
     25 H7          0.5878   -1.7551    3.0726 H         1 <0>         0.0000
     26 H8          2.3456   -4.3524    3.9778 H         1 <0>         0.0000
@<TRIPOS>BOND
     1    1    4 ar
     2    1    9 ar
     3    1   19 1
     4    2    5 ar
     5    2    9 ar
     6    2   20 1
     7    3    6 ar
     8    3   10 ar
     9    3   21 1
    10    4   11 ar
    11    4   22 1
    12    5   11 ar
    13    5   23 1
    14    6   12 ar
    15    6   24 1
    16    7    8 ar
    17    7   12 ar
    18    7   25 1
    19    8   10 ar
    20    8   13 1
    21    9   16 1
    22   10   16 1
    23   11   17 1
    24   12   18 1
    25   13   14 2
    26   13   15 1
    27   15   26 1
