@<TRIPOS>MOLECULE
*****
   36    39     0     0     0
SMALL
NO_CHARGES

@<TRIPOS>ATOM
      1 C1          6.8860   -2.5925    3.5437 C.2       1 <0>         0.0000
      2 C2          5.2590   -3.7144    2.8486 C.2       1 <0>         0.0000
      3 C3          3.1918   -4.3620    0.4521 C.2       1 <0>         0.0000
      4 C4          2.0151   -4.0449    2.4245 C.2       1 <0>         0.0000
      5 C5          0.2427   -3.3191   -1.7355 C.3       1 <0>         0.0000
      6 C6          0.7070   -1.9692   -1.1278 C.3       1 <0>         0.0000
      7 C7          8.6216   -2.6872    5.4331 C.3       1 <0>         0.0000
      8 C8          9.3541   -2.9523    4.1528 C.3       1 <0>         0.0000
      9 C9          1.0766   -4.4207   -1.0207 C.3       1 <0>         0.0000
     10 C10         2.0657   -2.2798   -0.4802 C.3       1 <0>         0.0000
     11 C11         8.1148   -2.0620    4.1367 C.3       1 <0>         0.0000
     12 C12         1.8631   -3.6989    0.0934 C.3       1 <0>         0.0000
     13 C13         4.3687   -4.8969    2.5891 C.3       1 <0>         0.0000
     14 N1          6.4405   -3.8241    3.5472 N.2       1 <0>         0.0000
     15 N2          4.9721   -2.5061    2.4300 N.2       1 <0>         0.0000
     16 N3          1.1784   -3.6974    1.3921 N.am      1 <0>         0.0000
     17 N4          3.1980   -4.5334    1.8230 N.am      1 <0>         0.0000
     18 O1          4.0872   -4.6700   -0.3150 O.2       1 <0>         0.0000
     19 O2          1.8109   -3.9911    3.6249 O.2       1 <0>         0.0000
     20 O3          6.0676   -1.7400    2.8955 O.3       1 <0>         0.0000
     21 H1         -0.8315   -3.4696   -1.5973 H         1 <0>         0.0000
     22 H2          0.4294   -3.3437   -2.8128 H         1 <0>         0.0000
     23 H3          0.7753   -1.1703   -1.8712 H         1 <0>         0.0000
     24 H4         -0.0039   -1.6275   -0.3654 H         1 <0>         0.0000
     25 H5          8.0181   -3.4887    5.8457 H         1 <0>         0.0000
     26 H6          9.0610   -2.0089    6.1578 H         1 <0>         0.0000
     27 H7         10.3059   -2.4593    3.9817 H         1 <0>         0.0000
     28 H8          9.2452   -3.9327    3.7015 H         1 <0>         0.0000
     29 H9          0.4670   -5.2248   -0.6023 H         1 <0>         0.0000
     30 H10         1.7994   -4.8684   -1.7079 H         1 <0>         0.0000
     31 H11         2.8526   -2.3341   -1.2396 H         1 <0>         0.0000
     32 H12         2.3812   -1.5676    0.2868 H         1 <0>         0.0000
     33 H13         8.2560   -0.9961    3.9965 H         1 <0>         0.0000
     34 H14         4.9311   -5.6557    2.0392 H         1 <0>         0.0000
     35 H15         4.0458   -5.3203    3.5430 H         1 <0>         0.0000
     36 H16         0.4106   -3.0723    1.6009 H         1 <0>         0.0000
@<TRIPOS>BOND
     1    1   11 1
     2    1   14 2
     3    1   20 1
     4    2   13 1
     5    2   14 1
     6    2   15 2
     7    3   12 1
     8    3   17 am
     9    3   18 2
    10    4   16 am
    11    4   17 am
    12    4   19 2
    13    5    6 1
    14    5    9 1
    15    5   21 1
    16    5   22 1
    17    6   10 1
    18    6   23 1
    19    6   24 1
    20    7    8 1
    21    7   11 1
    22    7   25 1
    23    7   26 1
    24    8   11 1
    25    8   27 1
    26    8   28 1
    27    9   12 1
    28    9   29 1
    29    9   30 1
    30   10   12 1
    31   10   31 1
    32   10   32 1
    33   11   33 1
    34   12   16 1
    35   13   17 1
    36   13   34 1
    37   13   35 1
    38   15   20 1
    39   16   36 1
