@<TRIPOS>MOLECULE
*****
   28    29     0     0     0
SMALL
NO_CHARGES

@<TRIPOS>ATOM
      1 C1         -2.1827    2.4837   -0.8519 C.ar      1 <0>         0.0000
      2 C2         -5.3737    0.7659   -1.1396 C.2       1 <0>         0.0000
      3 C3         -3.3574    1.7156   -0.9335 C.ar      1 <0>         0.0000
      4 C4         -0.9828    1.8432   -0.5132 C.ar      1 <0>         0.0000
      5 C5         -4.7209    1.9732   -1.2341 C.2       1 <0>         0.0000
      6 C6         -2.1012   -0.3134   -0.3361 C.ar      1 <0>         0.0000
      7 C7         -3.2786    0.3511   -0.6747 C.ar      1 <0>         0.0000
      8 C8         -0.9455    0.4696   -0.2604 C.ar      1 <0>         0.0000
      9 C9         -5.0465    3.6552   -3.0179 C.2       1 <0>         0.0000
     10 C10         0.2649    2.6628   -0.4268 C.3       1 <0>         0.0000
     11 C11        -2.0598   -1.7791   -0.0667 C.3       1 <0>         0.0000
     12 C12        -5.3270    3.2722   -1.5802 C.3       1 <0>         0.0000
     13 O1         -4.3214    3.0128   -3.7670 O.2       1 <0>         0.0000
     14 O2         -4.5075   -0.2244   -0.8009 O.3       1 <0>         0.0000
     15 O3          0.2431   -0.1215    0.0674 O.3       1 <0>         0.0000
     16 O4         -5.6473    4.8164   -3.3798 O.3       1 <0>         0.0000
     17 H1         -2.2058    3.5520   -1.0473 H         1 <0>         0.0000
     18 H2         -6.4004    0.4578   -1.2763 H         1 <0>         0.0000
     19 H3          0.3944    3.0481    0.5905 H         1 <0>         0.0000
     20 H4          1.1468    2.0679   -0.6919 H         1 <0>         0.0000
     21 H5          0.2290    3.5103   -1.1215 H         1 <0>         0.0000
     22 H6         -1.8631   -2.3329   -0.9932 H         1 <0>         0.0000
     23 H7         -1.2762   -2.0292    0.6605 H         1 <0>         0.0000
     24 H8         -3.0092   -2.1342    0.3555 H         1 <0>         0.0000
     25 H9         -4.9894    4.0895   -0.9203 H         1 <0>         0.0000
     26 H10        -6.4241    3.2614   -1.4577 H         1 <0>         0.0000
     27 H11         0.1112   -1.0698    0.2125 H         1 <0>         0.0000
     28 H12        -6.2035    5.2345   -2.6883 H         1 <0>         0.0000
@<TRIPOS>BOND
     1    1    3 ar
     2    1    4 ar
     3    1   17 1
     4    2    5 2
     5    2   14 1
     6    2   18 1
     7    3    5 1
     8    3    7 ar
     9    4    8 ar
    10    4   10 1
    11    5   12 1
    12    6    7 ar
    13    6    8 ar
    14    6   11 1
    15    7   14 1
    16    8   15 1
    17    9   12 1
    18    9   13 2
    19    9   16 1
    20   10   19 1
    21   10   20 1
    22   10   21 1
    23   11   22 1
    24   11   23 1
    25   11   24 1
    26   12   25 1
    27   12   26 1
    28   15   27 1
    29   16   28 1
