@<TRIPOS>MOLECULE
*****
   33    35     0     0     0
SMALL
NO_CHARGES

@<TRIPOS>ATOM
      1 C1         -5.1637   -0.5158   -4.7570 C.ar      1 <0>         0.0000
      2 C2         -6.9026   -2.0604   -5.3621 C.ar      1 <0>         0.0000
      3 C3         -4.6855   -1.4589   -3.8428 C.ar      1 <0>         0.0000
      4 C4         -6.2790   -0.8238   -5.5282 C.ar      1 <0>         0.0000
      5 C5         -5.3822   -2.6815   -3.7248 C.ar      1 <0>         0.0000
      6 C6         -2.3864   -1.2836   -6.2790 C.3       1 <0>         0.0000
      7 C7         -0.9211   -1.4189   -5.9247 C.3       1 <0>         0.0000
      8 C8         -4.8979   -5.1512   -3.1655 C.3       1 <0>         0.0000
      9 C9         -3.6550   -4.3865   -2.7607 C.3       1 <0>         0.0000
     10 C10        -1.8834   -0.8100   -4.9332 C.3       1 <0>         0.0000
     11 C11        -5.0165   -3.7216   -2.6985 C.3       1 <0>         0.0000
     12 C12        -5.6515   -3.4694   -1.3374 C.3       1 <0>         0.0000
     13 C13        -3.4273   -1.1462   -3.0584 C.3       1 <0>         0.0000
     14 N1         -6.4653   -2.9564   -4.4732 N.ar      1 <0>         0.0000
     15 N2         -2.2177   -1.5949   -3.7698 N.3       1 <0>         0.0000
     16 Br1        -6.9514    0.4301   -6.8130 Br        1 <0>         0.0000
     17 H1         -4.6598    0.4391   -4.8714 H         1 <0>         0.0000
     18 H2         -7.7749   -2.3308   -5.9536 H         1 <0>         0.0000
     19 H3         -2.6791   -0.5358   -7.0103 H         1 <0>         0.0000
     20 H4         -2.9860   -2.1874   -6.2787 H         1 <0>         0.0000
     21 H5         -0.5536   -2.4150   -5.6975 H         1 <0>         0.0000
     22 H6         -0.2057   -0.7624   -6.4109 H         1 <0>         0.0000
     23 H7         -5.0586   -5.3472   -4.2208 H         1 <0>         0.0000
     24 H8         -5.2674   -5.9279   -2.5014 H         1 <0>         0.0000
     25 H9         -3.1798   -4.6390   -1.8154 H         1 <0>         0.0000
     26 H10        -2.9710   -4.0612   -3.5371 H         1 <0>         0.0000
     27 H11        -1.8205    0.2754   -4.7977 H         1 <0>         0.0000
     28 H12        -5.3697   -4.2537   -0.6270 H         1 <0>         0.0000
     29 H13        -6.7436   -3.4607   -1.4211 H         1 <0>         0.0000
     30 H14        -5.3384   -2.5063   -0.9168 H         1 <0>         0.0000
     31 H15        -3.4048   -0.0623   -2.8509 H         1 <0>         0.0000
     32 H16        -3.4489   -1.6610   -2.0962 H         1 <0>         0.0000
     33 H17        -1.4341   -1.5861   -3.1198 H         1 <0>         0.0000
@<TRIPOS>BOND
     1    1    3 ar
     2    1    4 ar
     3    1   17 1
     4    2    4 ar
     5    2   14 ar
     6    2   18 1
     7    3    5 ar
     8    3   13 1
     9    4   16 1
    10    5   11 1
    11    5   14 ar
    12    6    7 1
    13    6   10 1
    14    6   19 1
    15    6   20 1
    16    7   10 1
    17    7   21 1
    18    7   22 1
    19    8    9 1
    20    8   11 1
    21    8   23 1
    22    8   24 1
    23    9   11 1
    24    9   25 1
    25    9   26 1
    26   10   15 1
    27   10   27 1
    28   11   12 1
    29   12   28 1
    30   12   29 1
    31   12   30 1
    32   13   15 1
    33   13   31 1
    34   13   32 1
    35   15   33 1
