@<TRIPOS>MOLECULE
*****
   44    46     0     0     0
SMALL
NO_CHARGES

@<TRIPOS>ATOM
      1 C1         -1.6946   -0.5137   -0.8723 C.ar      1 <0>         0.0000
      2 C2          2.8410   -3.3497    0.4137 C.ar      1 <0>         0.0000
      3 C3          1.3091   -3.7019    2.2483 C.ar      1 <0>         0.0000
      4 C4         -2.7359    0.4118   -0.9611 C.ar      1 <0>         0.0000
      5 C5          3.3531   -4.6338    0.5866 C.ar      1 <0>         0.0000
      6 C6          1.8084   -4.9934    2.4339 C.ar      1 <0>         0.0000
      7 C7         -1.2150    2.1056   -0.1225 C.ar      1 <0>         0.0000
      8 C8         -0.4326   -0.1618   -0.3798 C.ar      1 <0>         0.0000
      9 C9          1.8140   -2.8679    1.2421 C.ar      1 <0>         0.0000
     10 C10        -0.1783    1.1808   -0.0141 C.ar      1 <0>         0.0000
     11 C11        -2.4935    1.7353   -0.5725 C.ar      1 <0>         0.0000
     12 C12         2.8241   -5.4469    1.5929 C.ar      1 <0>         0.0000
     13 C13         0.5639   -1.2728   -0.2692 C.2       1 <0>         0.0000
     14 C14         1.2023    1.6808    0.3661 C.3       1 <0>         0.0000
     15 C15         1.8622    1.0131    1.5815 C.3       1 <0>         0.0000
     16 C16         2.3774   -0.4071    1.3362 C.3       1 <0>         0.0000
     17 C17         1.2731   -1.4642    1.0863 C.3       1 <0>         0.0000
     18 C18        -4.7260    2.4240   -1.0863 C.3       1 <0>         0.0000
     19 C19         2.4301   -8.0821    0.6672 C.3       1 <0>         0.0000
     20 O1          0.7232   -2.0612   -1.1913 O.2       1 <0>         0.0000
     21 O2          4.8363   -7.1533    1.2853 O.2       1 <0>         0.0000
     22 O3          3.1427   -7.5597    3.1687 O.2       1 <0>         0.0000
     23 O4         -3.4193    2.7372   -0.6081 O.3       1 <0>         0.0000
     24 S1          3.4578   -7.1151    1.8007 S.o2      1 <0>         0.0000
     25 H1         -1.8629   -1.5413   -1.1814 H         1 <0>         0.0000
     26 H2          3.2388   -2.7206   -0.3754 H         1 <0>         0.0000
     27 H3          0.5201   -3.3375    2.9023 H         1 <0>         0.0000
     28 H4         -3.7047    0.0948   -1.3294 H         1 <0>         0.0000
     29 H5          4.1627   -5.0022   -0.0363 H         1 <0>         0.0000
     30 H6          1.4358   -5.6337    3.2277 H         1 <0>         0.0000
     31 H7         -1.0494    3.1505    0.1257 H         1 <0>         0.0000
     32 H8          1.8680    1.5666   -0.5004 H         1 <0>         0.0000
     33 H9          1.1333    2.7563    0.5539 H         1 <0>         0.0000
     34 H10         2.7158    1.6309    1.8840 H         1 <0>         0.0000
     35 H11         1.1630    1.0135    2.4271 H         1 <0>         0.0000
     36 H12         3.0821   -0.4066    0.4959 H         1 <0>         0.0000
     37 H13         2.9442   -0.7345    2.2141 H         1 <0>         0.0000
     38 H14         0.5042   -1.3048    1.8520 H         1 <0>         0.0000
     39 H15        -5.2924    3.3544   -1.0342 H         1 <0>         0.0000
     40 H16        -5.2097    1.6676   -0.4566 H         1 <0>         0.0000
     41 H17        -4.6961    2.0732   -2.1248 H         1 <0>         0.0000
     42 H18         2.7763   -9.1148    0.7470 H         1 <0>         0.0000
     43 H19         1.3880   -7.9997    0.9786 H         1 <0>         0.0000
     44 H20         2.5718   -7.7057   -0.3467 H         1 <0>         0.0000
@<TRIPOS>BOND
     1    1    4 ar
     2    1    8 ar
     3    1   25 1
     4    2    5 ar
     5    2    9 ar
     6    2   26 1
     7    3    6 ar
     8    3    9 ar
     9    3   27 1
    10    4   11 ar
    11    4   28 1
    12    5   12 ar
    13    5   29 1
    14    6   12 ar
    15    6   30 1
    16    7   10 ar
    17    7   11 ar
    18    7   31 1
    19    8   10 ar
    20    8   13 1
    21    9   17 1
    22   10   14 1
    23   11   23 1
    24   12   24 1
    25   13   17 1
    26   13   20 2
    27   14   15 1
    28   14   32 1
    29   14   33 1
    30   15   16 1
    31   15   34 1
    32   15   35 1
    33   16   17 1
    34   16   36 1
    35   16   37 1
    36   17   38 1
    37   18   23 1
    38   18   39 1
    39   18   40 1
    40   18   41 1
    41   19   24 1
    42   19   42 1
    43   19   43 1
    44   19   44 1
    45   21   24 2
    46   22   24 2
