@<TRIPOS>MOLECULE
*****
   33    34     0     0     0
SMALL
NO_CHARGES

@<TRIPOS>ATOM
      1 C1         -1.7178    0.0774   -1.5590 C.ar      1 <0>         0.0000
      2 C2         -2.1771    1.0293   -0.6397 C.ar      1 <0>         0.0000
      3 C3         -0.6617   -0.7832   -1.2258 C.ar      1 <0>         0.0000
      4 C4         -1.5858    1.1329    0.6274 C.ar      1 <0>         0.0000
      5 C5         -0.0716   -0.6756    0.0326 C.ar      1 <0>         0.0000
      6 C6         -0.5344    0.2771    0.9487 C.ar      1 <0>         0.0000
      7 C7          0.5876    1.6050    4.2219 C.2       1 <0>         0.0000
      8 C8          1.0639   -1.4728    0.6400 C.3       1 <0>         0.0000
      9 C9          0.2551    0.1824    2.2375 C.3       1 <0>         0.0000
     10 C10         1.5546   -0.5748    1.8079 C.3       1 <0>         0.0000
     11 C11         2.6613    0.3796    1.3479 C.3       1 <0>         0.0000
     12 C12         1.2004    5.2702    4.0410 C.3       1 <0>         0.0000
     13 C13         0.8467    3.0270    4.7099 C.3       1 <0>         0.0000
     14 N1          0.4536    1.4690    2.8791 N.am      1 <0>         0.0000
     15 O1          0.5028    0.6819    5.0332 O.2       1 <0>         0.0000
     16 O2          0.9649    3.9328    3.6222 O.3       1 <0>         0.0000
     17 H1         -2.1805    0.0099   -2.5404 H         1 <0>         0.0000
     18 H2         -2.9947    1.6919   -0.9121 H         1 <0>         0.0000
     19 H3         -0.3048   -1.5163   -1.9461 H         1 <0>         0.0000
     20 H4         -1.9396    1.8695    1.3451 H         1 <0>         0.0000
     21 H5          0.6868   -2.4308    1.0218 H         1 <0>         0.0000
     22 H6          1.8594   -1.7027   -0.0767 H         1 <0>         0.0000
     23 H7         -0.2835   -0.4371    2.9629 H         1 <0>         0.0000
     24 H8          1.9256   -1.1739    2.6443 H         1 <0>         0.0000
     25 H9          2.3319    0.9959    0.5028 H         1 <0>         0.0000
     26 H10         3.5403   -0.1871    1.0238 H         1 <0>         0.0000
     27 H11         2.9730    1.0491    2.1549 H         1 <0>         0.0000
     28 H12         1.2765    5.8806    3.1389 H         1 <0>         0.0000
     29 H13         2.1368    5.3489    4.6117 H         1 <0>         0.0000
     30 H14         0.3736    5.6434    4.6624 H         1 <0>         0.0000
     31 H15         0.0163    3.3102    5.3726 H         1 <0>         0.0000
     32 H16         1.7652    3.0106    5.3133 H         1 <0>         0.0000
     33 H17         0.6081    2.2954    2.3128 H         1 <0>         0.0000
@<TRIPOS>BOND
     1    1    2 ar
     2    1    3 ar
     3    1   17 1
     4    2    4 ar
     5    2   18 1
     6    3    5 ar
     7    3   19 1
     8    4    6 ar
     9    4   20 1
    10    5    6 ar
    11    5    8 1
    12    6    9 1
    13    7   13 1
    14    7   14 am
    15    7   15 2
    16    8   10 1
    17    8   21 1
    18    8   22 1
    19    9   10 1
    20    9   14 1
    21    9   23 1
    22   10   11 1
    23   10   24 1
    24   11   25 1
    25   11   26 1
    26   11   27 1
    27   12   16 1
    28   12   28 1
    29   12   29 1
    30   12   30 1
    31   13   16 1
    32   13   31 1
    33   13   32 1
    34   14   33 1
