@<TRIPOS>MOLECULE
*****
   47    48     0     0     0
SMALL
NO_CHARGES

@<TRIPOS>ATOM
      1 C1          5.4895    1.0577    5.6160 C.ar      1 <0>         0.0000
      2 C2          4.1113    1.2317    5.8111 C.ar      1 <0>         0.0000
      3 C3          5.9715    0.8372    4.3253 C.ar      1 <0>         0.0000
      4 C4          3.2282    1.1852    4.7348 C.ar      1 <0>         0.0000
      5 C5          5.0982    0.7883    3.2298 C.ar      1 <0>         0.0000
      6 C6          0.2690    2.9800    3.2065 C.2       1 <0>         0.0000
      7 C7         -0.7535    1.1393    3.1864 C.2       1 <0>         0.0000
      8 C8          3.7234    0.9629    3.4389 C.ar      1 <0>         0.0000
      9 C9         -0.6513   -2.3387   -1.2870 C.3       1 <0>         0.0000
     10 C10        -0.0834   -0.0766   -2.1759 C.3       1 <0>         0.0000
     11 C11        -2.4056   -0.5771   -1.3795 C.3       1 <0>         0.0000
     12 C12         1.9406    0.6124    0.2405 C.3       1 <0>         0.0000
     13 C13         0.9697   -0.4845    0.7153 C.3       1 <0>         0.0000
     14 C14        -1.1089    1.0125    0.6638 C.3       1 <0>         0.0000
     15 C15         3.1939    0.6426    1.1099 C.3       1 <0>         0.0000
     16 C16        -0.9056   -0.8268   -1.1096 C.3       1 <0>         0.0000
     17 C17        -0.5335   -0.3863    0.3586 C.3       1 <0>         0.0000
     18 N1         -0.1849    1.9919    4.0326 N.2       1 <0>         0.0000
     19 N2          0.0169    2.7904    1.9172 N.2       1 <0>         0.0000
     20 N3         -0.6413    1.5934    1.9165 N.pl3     1 <0>         0.0000
     21 O1         -1.2501   -1.2394    1.2890 O.3       1 <0>         0.0000
     22 O2          2.7823    0.9367    2.4439 O.3       1 <0>         0.0000
     23 H1          6.1737    1.0944    6.4593 H         1 <0>         0.0000
     24 H2          3.7208    1.4043    6.8109 H         1 <0>         0.0000
     25 H3          7.0373    0.7016    4.1580 H         1 <0>         0.0000
     26 H4          2.1584    1.3187    4.8687 H         1 <0>         0.0000
     27 H5          5.4972    0.6197    2.2358 H         1 <0>         0.0000
     28 H6          0.8031    3.8530    3.5583 H         1 <0>         0.0000
     29 H7         -1.2369    0.2035    3.4282 H         1 <0>         0.0000
     30 H8         -1.3125   -2.9365   -0.6524 H         1 <0>         0.0000
     31 H9         -0.8556   -2.6244   -2.3239 H         1 <0>         0.0000
     32 H10         0.3856   -2.6194   -1.0771 H         1 <0>         0.0000
     33 H11        -0.0966    1.0085   -2.0365 H         1 <0>         0.0000
     34 H12        -0.5012   -0.2817   -3.1674 H         1 <0>         0.0000
     35 H13         0.9591   -0.4027   -2.1919 H         1 <0>         0.0000
     36 H14        -2.6384    0.4877   -1.4773 H         1 <0>         0.0000
     37 H15        -2.6943   -1.0547   -2.3218 H         1 <0>         0.0000
     38 H16        -3.0258   -0.9980   -0.5832 H         1 <0>         0.0000
     39 H17         1.4781    1.6001    0.2907 H         1 <0>         0.0000
     40 H18         2.2589    0.4540   -0.7930 H         1 <0>         0.0000
     41 H19         1.3472   -1.4613    0.3902 H         1 <0>         0.0000
     42 H20         1.0099   -0.4917    1.8065 H         1 <0>         0.0000
     43 H21        -0.8470    1.7314   -0.1100 H         1 <0>         0.0000
     44 H22        -2.1959    0.9330    0.7054 H         1 <0>         0.0000
     45 H23         3.7138   -0.3265    1.0852 H         1 <0>         0.0000
     46 H24         3.8873    1.4142    0.7502 H         1 <0>         0.0000
     47 H25        -0.7666   -2.0771    1.3628 H         1 <0>         0.0000
@<TRIPOS>BOND
     1    1    3 ar
     2    1    2 ar
     3    1   23 1
     4    2    4 ar
     5    2   24 1
     6    3    5 ar
     7    3   25 1
     8    4    8 ar
     9    4   26 1
    10    5    8 ar
    11    5   27 1
    12    6   18 1
    13    6   19 2
    14    6   28 1
    15    7   18 2
    16    7   20 1
    17    7   29 1
    18    8   22 1
    19    9   16 1
    20    9   30 1
    21    9   31 1
    22    9   32 1
    23   10   16 1
    24   10   33 1
    25   10   34 1
    26   10   35 1
    27   11   16 1
    28   11   36 1
    29   11   37 1
    30   11   38 1
    31   12   13 1
    32   12   15 1
    33   12   39 1
    34   12   40 1
    35   13   17 1
    36   13   41 1
    37   13   42 1
    38   14   17 1
    39   14   20 1
    40   14   43 1
    41   14   44 1
    42   15   22 1
    43   15   45 1
    44   15   46 1
    45   16   17 1
    46   17   21 1
    47   19   20 1
    48   21   47 1
