@<TRIPOS>MOLECULE
*****
   59    62     0     0     0
SMALL
NO_CHARGES

@<TRIPOS>ATOM
      1 C1          1.3723    1.8862    0.4472 C.ar      1 <0>         0.0000
      2 C2          0.7543    3.5640   -1.1809 C.ar      1 <0>         0.0000
      3 C3         -1.1356    0.4403   -0.3961 C.ar      1 <0>         0.0000
      4 C4          2.6402    2.4574    0.5476 C.ar      1 <0>         0.0000
      5 C5          2.0261    4.1256   -1.0788 C.ar      1 <0>         0.0000
      6 C6         -2.4030   -0.1239   -0.5057 C.ar      1 <0>         0.0000
      7 C7        -11.9348   -4.7430   -1.6301 C.ar      1 <0>         0.0000
      8 C8        -10.5690   -6.5169   -0.6875 C.ar      1 <0>         0.0000
      9 C9        -13.0825   -5.5040   -1.4210 C.ar      1 <0>         0.0000
     10 C10       -11.7223   -7.2852   -0.4778 C.ar      1 <0>         0.0000
     11 C11        -2.0768    2.6225   -0.7670 C.ar      1 <0>         0.0000
     12 C12         0.4040    2.4310   -0.4196 C.ar      1 <0>         0.0000
     13 C13        -0.9386    1.8323   -0.5276 C.ar      1 <0>         0.0000
     14 C14         2.9876    3.5829   -0.2137 C.ar      1 <0>         0.0000
     15 C15        -3.3625    2.0829   -0.8863 C.ar      1 <0>         0.0000
     16 C16        -3.4995    0.6990   -0.7547 C.ar      1 <0>         0.0000
     17 C17       -10.6807   -5.2474   -1.2628 C.ar      1 <0>         0.0000
     18 C18       -12.9565   -6.7679   -0.8456 C.ar      1 <0>         0.0000
     19 C19         4.4015    4.2118   -0.1040 C.2       1 <0>         0.0000
     20 C20        -4.5627    2.9702   -1.1519 C.3       1 <0>         0.0000
     21 C21        -5.8796    2.2355   -0.8697 C.3       1 <0>         0.0000
     22 C22        -5.7928    0.8331   -1.4612 C.3       1 <0>         0.0000
     23 C23        -7.0474   -0.0023   -1.2248 C.3       1 <0>         0.0000
     24 C24        -7.6351   -2.4756   -1.0022 C.3       1 <0>         0.0000
     25 C25        -8.3090   -4.8928   -1.2272 C.3       1 <0>         0.0000
     26 C26        -7.2997   -3.8239   -1.6374 C.3       1 <0>         0.0000
     27 N1         -6.7122   -1.4344   -1.5599 N.4       1 <0>         0.0000
     28 O1          4.5825    5.2299   -0.8236 O.co2     1 <0>         0.0000
     29 O2          5.1815    3.6213    0.6896 O.co2     1 <0>         0.0000
     30 O3         -4.7611    0.0689   -0.8343 O.3       1 <0>         0.0000
     31 O4         -7.2794   -3.5529   -3.0410 O.3       1 <0>         0.0000
     32 O5         -9.6066   -4.4070   -1.5047 O.3       1 <0>         0.0000
     33 F1        -14.0717   -7.5099   -0.6418 F         1 <0>         0.0000
     34 H1          1.1146    1.0341    1.0743 H         1 <0>         0.0000
     35 H2          0.0374    3.9798   -1.8875 H         1 <0>         0.0000
     36 H3         -0.2782   -0.2051   -0.2350 H         1 <0>         0.0000
     37 H4          3.3971    2.0605    1.2184 H         1 <0>         0.0000
     38 H5          2.3212    4.9905   -1.6666 H         1 <0>         0.0000
     39 H6         -2.5459   -1.1979   -0.4116 H         1 <0>         0.0000
     40 H7        -11.9964   -3.7572   -2.0811 H         1 <0>         0.0000
     41 H8         -9.6100   -6.9277   -0.3933 H         1 <0>         0.0000
     42 H9        -14.0639   -5.1328   -1.6988 H         1 <0>         0.0000
     43 H10       -11.6622   -8.2733   -0.0328 H         1 <0>         0.0000
     44 H11        -1.9606    3.7011   -0.8345 H         1 <0>         0.0000
     45 H12        -4.5035    3.8728   -0.5369 H         1 <0>         0.0000
     46 H13        -4.5494    3.3062   -2.1963 H         1 <0>         0.0000
     47 H14        -6.0438    2.1445    0.2102 H         1 <0>         0.0000
     48 H15        -6.7309    2.7762   -1.2980 H         1 <0>         0.0000
     49 H16        -5.5824    0.9012   -2.5413 H         1 <0>         0.0000
     50 H17        -7.8927    0.3133   -1.8379 H         1 <0>         0.0000
     51 H18        -7.3264    0.0189   -0.1694 H         1 <0>         0.0000
     52 H19        -8.6548   -2.1889   -1.2597 H         1 <0>         0.0000
     53 H20        -7.5188   -2.4924    0.0825 H         1 <0>         0.0000
     54 H21        -8.1837   -5.1118   -0.1564 H         1 <0>         0.0000
     55 H22        -8.1037   -5.8182   -1.7845 H         1 <0>         0.0000
     56 H23        -6.3073   -4.1611   -1.3009 H         1 <0>         0.0000
     57 H24        -6.6792   -1.5770   -2.5790 H         1 <0>         0.0000
     58 H25        -5.7427   -1.5587   -1.2173 H         1 <0>         0.0000
     59 H26        -7.0934   -4.3637   -3.5414 H         1 <0>         0.0000
@<TRIPOS>BOND
     1    1    4 ar
     2    1   12 ar
     3    1   34 1
     4    2    5 ar
     5    2   12 ar
     6    2   35 1
     7    3    6 ar
     8    3   13 ar
     9    3   36 1
    10    4   14 ar
    11    4   37 1
    12    5   14 ar
    13    5   38 1
    14    6   16 ar
    15    6   39 1
    16    7    9 ar
    17    7   17 ar
    18    7   40 1
    19    8   10 ar
    20    8   17 ar
    21    8   41 1
    22    9   18 ar
    23    9   42 1
    24   10   18 ar
    25   10   43 1
    26   11   13 ar
    27   11   15 ar
    28   11   44 1
    29   12   13 1
    30   14   19 1
    31   15   16 ar
    32   15   20 1
    33   16   30 1
    34   17   32 1
    35   18   33 1
    36   19   28 1
    37   19   29 2
    38   20   21 1
    39   20   45 1
    40   20   46 1
    41   21   22 1
    42   21   47 1
    43   21   48 1
    44   22   23 1
    45   22   30 1
    46   22   49 1
    47   23   27 1
    48   23   50 1
    49   23   51 1
    50   24   26 1
    51   24   27 1
    52   24   52 1
    53   24   53 1
    54   25   26 1
    55   25   32 1
    56   25   54 1
    57   25   55 1
    58   26   31 1
    59   26   56 1
    60   27   57 1
    61   27   58 1
    62   31   59 1
