@<TRIPOS>MOLECULE
*****
   23    24     0     0     0
SMALL
NO_CHARGES

@<TRIPOS>ATOM
      1 C1         -4.6287   -3.9790   -4.1763 C.2       1 <0>         0.0000
      2 C2         -4.1434   -3.1422   -3.1346 C.2       1 <0>         0.0000
      3 C3         -4.3008   -5.3031   -3.9940 C.2       1 <0>         0.0000
      4 C4         -7.4301   -1.2324   -0.7335 C.2       1 <0>         0.0000
      5 C5         -3.4363   -3.8345   -2.1664 C.2       1 <0>         0.0000
      6 C6         -6.9697   -2.4892   -0.4638 C.2       1 <0>         0.0000
      7 C7         -5.0026   -1.4808   -0.6547 C.2       1 <0>         0.0000
      8 C8         -2.7126   -3.3825   -0.9900 C.2       1 <0>         0.0000
      9 C9         -7.8098   -3.7060   -0.2146 C.3       1 <0>         0.0000
     10 N1         -5.5876   -2.6168   -0.4221 N.2       1 <0>         0.0000
     11 N2         -2.7148   -2.2584   -0.3519 N.2       1 <0>         0.0000
     12 N3         -3.6261   -1.2677   -0.7481 N.pl3     1 <0>         0.0000
     13 S1         -3.3825   -5.5413   -2.5544 S.3       1 <0>         0.0000
     14 S2         -6.0954   -0.1282   -0.9820 S.3       1 <0>         0.0000
     15 H1         -5.2018   -3.6195   -5.0246 H         1 <0>         0.0000
     16 H2         -4.2937   -2.0710   -3.1042 H         1 <0>         0.0000
     17 H3         -4.5557   -6.1470   -4.6226 H         1 <0>         0.0000
     18 H4         -8.4529   -0.8857   -0.7982 H         1 <0>         0.0000
     19 H5         -1.9901   -4.0877   -0.5780 H         1 <0>         0.0000
     20 H6         -7.5780   -4.4817   -0.9522 H         1 <0>         0.0000
     21 H7         -7.5964   -4.1223    0.7755 H         1 <0>         0.0000
     22 H8         -8.8754   -3.4710   -0.2743 H         1 <0>         0.0000
     23 H9         -3.3444   -0.3909   -0.3218 H         1 <0>         0.0000
@<TRIPOS>BOND
     1    1    2 1
     2    1    3 2
     3    1   15 1
     4    2    5 2
     5    2   16 1
     6    3   13 1
     7    3   17 1
     8    4    6 2
     9    4   14 1
    10    4   18 1
    11    5    8 1
    12    5   13 1
    13    6    9 1
    14    6   10 1
    15    7   10 2
    16    7   12 1
    17    7   14 1
    18    8   11 2
    19    8   19 1
    20    9   20 1
    21    9   21 1
    22    9   22 1
    23   11   12 1
    24   12   23 1
