@<TRIPOS>MOLECULE
*****
   31    34     0     0     0
SMALL
NO_CHARGES

@<TRIPOS>ATOM
      1 C1         -1.1367    4.5004    0.7127 C.ar      1 <0>         0.0000
      2 C2         -0.9437    5.8056    1.1129 C.ar      1 <0>         0.0000
      3 C3          2.2183   -3.1684    0.4970 C.2       1 <0>         0.0000
      4 C4          1.0526   -3.4732   -0.1558 C.2       1 <0>         0.0000
      5 C5          0.1873   -2.3405   -0.3026 C.2       1 <0>         0.0000
      6 C6         -0.1053    3.5845    0.9973 C.ar      1 <0>         0.0000
      7 C7          0.7183   -1.1909    0.2555 C.2       1 <0>         0.0000
      8 C8          0.2604    6.1244    1.7711 C.ar      1 <0>         0.0000
      9 C9         -0.2346    2.1677    0.6017 C.2       1 <0>         0.0000
     10 C10         0.1622    0.1317    0.3074 C.2       1 <0>         0.0000
     11 C11        -0.6840   -4.8329   -0.8987 C.3       1 <0>         0.0000
     12 C12        -1.1909   -3.6286   -1.6757 C.3       1 <0>         0.0000
     13 C13         0.5579    7.5229    2.2426 C.3       1 <0>         0.0000
     14 N1          1.0224    3.9340    1.6260 N.ar      1 <0>         0.0000
     15 N2          1.2023    5.1992    2.0104 N.ar      1 <0>         0.0000
     16 N3          0.7171    1.2022    0.8245 N.2       1 <0>         0.0000
     17 N4         -1.3199    1.7377   -0.0145 N.2       1 <0>         0.0000
     18 O1         -1.0657    0.3713   -0.2172 O.3       1 <0>         0.0000
     19 O2          0.7257   -4.7141   -0.6372 O.3       1 <0>         0.0000
     20 O3         -1.0234   -2.4148   -0.9152 O.3       1 <0>         0.0000
     21 S1          2.2941   -1.4996    0.9518 S.3       1 <0>         0.0000
     22 H1         -2.0354    4.1726    0.2002 H         1 <0>         0.0000
     23 H2         -1.6926    6.5721    0.9300 H         1 <0>         0.0000
     24 H3          3.0286   -3.8451    0.7338 H         1 <0>         0.0000
     25 H4         -1.2252   -4.9302    0.0508 H         1 <0>         0.0000
     26 H5         -0.8088   -5.7476   -1.4813 H         1 <0>         0.0000
     27 H6         -0.6525   -3.5319   -2.6259 H         1 <0>         0.0000
     28 H7         -2.2614   -3.7116   -1.8718 H         1 <0>         0.0000
     29 H8         -0.2035    7.8671    2.9512 H         1 <0>         0.0000
     30 H9          1.5332    7.5474    2.7313 H         1 <0>         0.0000
     31 H10         0.5646    8.2255    1.4019 H         1 <0>         0.0000
@<TRIPOS>BOND
     1    1    2 ar
     2    1    6 ar
     3    1   22 1
     4    2    8 ar
     5    2   23 1
     6    3    4 2
     7    3   21 1
     8    3   24 1
     9    4    5 1
    10    4   19 1
    11    5    7 2
    12    5   20 1
    13    6    9 1
    14    6   14 ar
    15    7   10 1
    16    7   21 1
    17    8   13 1
    18    8   15 ar
    19    9   16 1
    20    9   17 2
    21   10   16 2
    22   10   18 1
    23   11   12 1
    24   11   19 1
    25   11   25 1
    26   11   26 1
    27   12   20 1
    28   12   27 1
    29   12   28 1
    30   13   29 1
    31   13   30 1
    32   13   31 1
    33   14   15 ar
    34   17   18 1
