@<TRIPOS>MOLECULE
*****
   31    33     0     0     0
SMALL
NO_CHARGES

@<TRIPOS>ATOM
      1 C1          5.4633    1.2749    3.6641 C.ar      1 <0>         0.0000
      2 C2          4.9080    2.5772    3.6466 C.ar      1 <0>         0.0000
      3 C3          6.2019    0.8102    2.5932 C.ar      1 <0>         0.0000
      4 C4          8.5528   -2.1698   -1.8425 C.ar      1 <0>         0.0000
      5 C5          5.0895    3.3980    2.5529 C.ar      1 <0>         0.0000
      6 C6          9.0859   -2.6439   -3.0382 C.ar      1 <0>         0.0000
      7 C7         10.4817   -3.0157   -0.6584 C.ar      1 <0>         0.0000
      8 C8          6.6559    3.3286   -0.6559 C.ar      1 <0>         0.0000
      9 C9          6.4096    1.6366    1.4554 C.ar      1 <0>         0.0000
     10 C10         9.2519   -2.3382   -0.6314 C.ar      1 <0>         0.0000
     11 C11         5.8356    2.9488    1.4327 C.ar      1 <0>         0.0000
     12 C12        10.3247   -3.2927   -3.0592 C.ar      1 <0>         0.0000
     13 C13        11.0225   -3.4833   -1.8558 C.ar      1 <0>         0.0000
     14 C14         7.1451    1.2884    0.2698 C.ar      1 <0>         0.0000
     15 C15         8.7343   -1.8935    0.6788 C.2       1 <0>         0.0000
     16 N1          5.9685    3.7954    0.3637 N.ar      1 <0>         0.0000
     17 N2          7.2549    2.1198   -0.7620 N.ar      1 <0>         0.0000
     18 N3          8.0585   -0.8362    0.9860 N.2       1 <0>         0.0000
     19 N4          7.7711    0.0761    0.0281 N.pl3     1 <0>         0.0000
     20 Cl1        10.9578   -3.8571   -4.5802 Cl        1 <0>         0.0000
     21 Cl2        12.5616   -4.3032   -1.8192 Cl        1 <0>         0.0000
     22 H1          5.3085    0.6352    4.5288 H         1 <0>         0.0000
     23 H2          4.3327    2.9286    4.4995 H         1 <0>         0.0000
     24 H3          6.6339   -0.1802    2.6148 H         1 <0>         0.0000
     25 H4          7.5696   -1.7108   -1.8540 H         1 <0>         0.0000
     26 H5          4.6700    4.3984    2.5094 H         1 <0>         0.0000
     27 H6          8.5406   -2.5204   -3.9683 H         1 <0>         0.0000
     28 H7         11.0339   -3.1755    0.2630 H         1 <0>         0.0000
     29 H8          6.7689    3.9811   -1.5204 H         1 <0>         0.0000
     30 H9          8.9654   -2.5274    1.5333 H         1 <0>         0.0000
     31 H10         8.2732    0.0697   -0.8608 H         1 <0>         0.0000
@<TRIPOS>BOND
     1    1    2 ar
     2    1    3 ar
     3    1   22 1
     4    2    5 ar
     5    2   23 1
     6    3    9 ar
     7    3   24 1
     8    4    6 ar
     9    4   10 ar
    10    4   25 1
    11    5   11 ar
    12    5   26 1
    13    6   12 ar
    14    6   27 1
    15    7   10 ar
    16    7   13 ar
    17    7   28 1
    18    8   16 ar
    19    8   17 ar
    20    8   29 1
    21    9   11 ar
    22    9   14 ar
    23   10   15 1
    24   11   16 ar
    25   12   13 ar
    26   12   20 1
    27   13   21 1
    28   14   17 ar
    29   14   19 1
    30   15   18 2
    31   15   30 1
    32   18   19 1
    33   19   31 1
