@<TRIPOS>MOLECULE
*****
   24    24     0     0     0
SMALL
NO_CHARGES

@<TRIPOS>ATOM
      1 C1          2.1840   -1.4727   -0.6103 C.ar      1 <0>         0.0000
      2 C2          2.0234   -0.9390    2.1084 C.ar      1 <0>         0.0000
      3 C3          1.0956   -0.7133   -0.1277 C.ar      1 <0>         0.0000
      4 C4          3.0821   -1.7020    1.6309 C.ar      1 <0>         0.0000
      5 C5          1.0114   -0.4265    1.2636 C.ar      1 <0>         0.0000
      6 C6          3.1548   -1.9624    0.2430 C.ar      1 <0>         0.0000
      7 C7          0.0575   -0.2471   -1.0517 C.2       1 <0>         0.0000
      8 C8          4.1529   -2.2283    2.5516 C.3       1 <0>         0.0000
      9 C9          3.9358   -4.0369   -0.5806 C.3       1 <0>         0.0000
     10 N1          0.0211    0.3681    1.7978 N.pl3     1 <0>         0.0000
     11 O1         -0.9588    0.3776   -0.7472 O.2       1 <0>         0.0000
     12 O2          0.2885   -0.5773   -2.3554 O.3       1 <0>         0.0000
     13 O3          4.2383   -2.6793   -0.2477 O.3       1 <0>         0.0000
     14 H1          2.2588   -1.6717   -1.6735 H         1 <0>         0.0000
     15 H2          1.9696   -0.7140    3.1720 H         1 <0>         0.0000
     16 H3          4.1925   -3.3226    2.5258 H         1 <0>         0.0000
     17 H4          5.1394   -1.8720    2.2399 H         1 <0>         0.0000
     18 H5          3.9753   -1.9158    3.5836 H         1 <0>         0.0000
     19 H6          4.8675   -4.4889   -0.9283 H         1 <0>         0.0000
     20 H7          3.1839   -4.0935   -1.3778 H         1 <0>         0.0000
     21 H8          3.5663   -4.5864    0.2955 H         1 <0>         0.0000
     22 H9         -0.1537    0.2804    2.7895 H         1 <0>         0.0000
     23 H10        -0.7793    0.5561    1.2028 H         1 <0>         0.0000
     24 H11        -0.4703   -0.2147   -2.8502 H         1 <0>         0.0000
@<TRIPOS>BOND
     1    1    3 ar
     2    1    6 ar
     3    1   14 1
     4    2    4 ar
     5    2    5 ar
     6    2   15 1
     7    3    5 ar
     8    3    7 1
     9    4    6 ar
    10    4    8 1
    11    5   10 1
    12    6   13 1
    13    7   11 2
    14    7   12 1
    15    8   16 1
    16    8   17 1
    17    8   18 1
    18    9   13 1
    19    9   19 1
    20    9   20 1
    21    9   21 1
    22   10   22 1
    23   10   23 1
    24   12   24 1
