@<TRIPOS>MOLECULE
*****
   44    46     0     0     0
SMALL
NO_CHARGES

@<TRIPOS>ATOM
      1 C1         -6.9739   -0.7016    0.2136 C.ar      1 <0>         0.0000
      2 C2         -7.2846    0.6601    0.2218 C.ar      1 <0>         0.0000
      3 C3         -5.7418   -1.1022   -0.3052 C.ar      1 <0>         0.0000
      4 C4         -6.3419    1.5535   -0.2960 C.ar      1 <0>         0.0000
      5 C5         -4.8562   -0.1337   -0.8012 C.ar      1 <0>         0.0000
      6 C6         -0.8313    0.8448    1.0231 C.3       1 <0>         0.0000
      7 C7         -0.8816   -0.2184    2.1269 C.3       1 <0>         0.0000
      8 C8         -1.4561   -2.6304    2.7142 C.3       1 <0>         0.0000
      9 C9         -2.1291    0.8587    0.2145 C.3       1 <0>         0.0000
     10 C10        -0.0327   -3.1230    3.0370 C.3       1 <0>         0.0000
     11 C11        -2.5704   -1.4583    0.7506 C.3       1 <0>         0.0000
     12 C12        -0.1410   -2.2281    0.7605 C.3       1 <0>         0.0000
     13 C13        -1.2878   -1.6003    1.5754 C.3       1 <0>         0.0000
     14 C14         1.7169   -5.1299    0.7801 C.3       1 <0>         0.0000
     15 C15        -3.4783   -0.5125   -1.3198 C.3       1 <0>         0.0000
     16 N1         -5.1576    1.1782   -0.7965 N.ar      1 <0>         0.0000
     17 N2         -2.4022   -0.4806   -0.3216 N.3       1 <0>         0.0000
     18 N3          0.7291   -2.7644    1.8198 N.pl3     1 <0>         0.0000
     19 O1          2.8416   -3.7550    2.7355 O.2       1 <0>         0.0000
     20 O2          2.7866   -2.7523    0.3769 O.2       1 <0>         0.0000
     21 S1          2.1596   -3.5107    1.4619 S.o2      1 <0>         0.0000
     22 H1         -7.6775   -1.4352    0.5993 H         1 <0>         0.0000
     23 H2         -8.2309    1.0245    0.6114 H         1 <0>         0.0000
     24 H3         -5.4667   -2.1533   -0.3345 H         1 <0>         0.0000
     25 H4         -6.5500    2.6226   -0.3132 H         1 <0>         0.0000
     26 H5         -0.6681    1.8336    1.4663 H         1 <0>         0.0000
     27 H6          0.0112    0.6543    0.3499 H         1 <0>         0.0000
     28 H7          0.0837   -0.2857    2.6397 H         1 <0>         0.0000
     29 H8         -1.6253    0.0807    2.8777 H         1 <0>         0.0000
     30 H9         -2.0689   -3.4681    2.3606 H         1 <0>         0.0000
     31 H10        -1.9512   -2.2051    3.5914 H         1 <0>         0.0000
     32 H11        -2.9576    1.2173    0.8508 H         1 <0>         0.0000
     33 H12        -2.0536    1.5556   -0.6251 H         1 <0>         0.0000
     34 H13         0.4068   -2.6176    3.9001 H         1 <0>         0.0000
     35 H14        -0.0100   -4.2001    3.2369 H         1 <0>         0.0000
     36 H15        -2.8251   -2.4264    0.3014 H         1 <0>         0.0000
     37 H16        -3.4006   -1.1923    1.4334 H         1 <0>         0.0000
     38 H17        -0.5342   -3.0209    0.1050 H         1 <0>         0.0000
     39 H18         0.4101   -1.5202    0.1454 H         1 <0>         0.0000
     40 H19         2.6502   -5.6439    0.5432 H         1 <0>         0.0000
     41 H20         1.1589   -5.6910    1.5316 H         1 <0>         0.0000
     42 H21         1.1274   -4.9824   -0.1262 H         1 <0>         0.0000
     43 H22        -3.5082   -1.5231   -1.7427 H         1 <0>         0.0000
     44 H23        -3.2107    0.1815   -2.1215 H         1 <0>         0.0000
@<TRIPOS>BOND
     1    1    2 ar
     2    1    3 ar
     3    1   22 1
     4    2    4 ar
     5    2   23 1
     6    3    5 ar
     7    3   24 1
     8    4   16 ar
     9    4   25 1
    10    5   15 1
    11    5   16 ar
    12    6    7 1
    13    6    9 1
    14    6   26 1
    15    6   27 1
    16    7   13 1
    17    7   28 1
    18    7   29 1
    19    8   10 1
    20    8   13 1
    21    8   30 1
    22    8   31 1
    23    9   17 1
    24    9   32 1
    25    9   33 1
    26   10   18 1
    27   10   34 1
    28   10   35 1
    29   11   13 1
    30   11   17 1
    31   11   36 1
    32   11   37 1
    33   12   13 1
    34   12   18 1
    35   12   38 1
    36   12   39 1
    37   14   21 1
    38   14   40 1
    39   14   41 1
    40   14   42 1
    41   15   17 1
    42   15   43 1
    43   15   44 1
    44   18   21 1
    45   19   21 2
    46   20   21 2
