@<TRIPOS>MOLECULE
*****
   44    46     0     0     0
SMALL
NO_CHARGES

@<TRIPOS>ATOM
      1 C1         -0.1560   -5.4580   -1.6428 C.2       1 <0>         0.0000
      2 C2          0.3383   -3.1228   -1.1745 C.2       1 <0>         0.0000
      3 C3         -0.1475   -4.0845   -2.0382 C.2       1 <0>         0.0000
      4 C4          0.3411   -5.8329   -0.4226 C.2       1 <0>         0.0000
      5 C5          0.8785   -3.4849    0.1253 C.2       1 <0>         0.0000
      6 C6         -2.5089    2.4242    2.4650 C.2       1 <0>         0.0000
      7 C7          0.4626   -1.6888   -1.6142 C.2       1 <0>         0.0000
      8 C8         -2.1342    0.0579    0.3334 C.3       1 <0>         0.0000
      9 C9         -0.1125    1.5427    0.0315 C.3       1 <0>         0.0000
     10 C10        -1.0471   -1.0135    0.2720 C.3       1 <0>         0.0000
     11 C11         0.0738    0.6707   -1.2092 C.3       1 <0>         0.0000
     12 C12        -2.4897    2.5874    0.1451 C.3       1 <0>         0.0000
     13 C13        -1.5375    1.4574    0.5935 C.3       1 <0>         0.0000
     14 C14        -0.6588   -3.7350   -3.4143 C.3       1 <0>         0.0000
     15 C15         0.3909   -7.2464    0.0822 C.3       1 <0>         0.0000
     16 C16        -4.2054    3.9070    1.4684 C.3       1 <0>         0.0000
     17 N1          0.8305   -4.8618    0.4059 N.am      1 <0>         0.0000
     18 N2         -3.2334    2.8359    1.3660 N.am      1 <0>         0.0000
     19 N3         -0.1709   -0.7374   -0.8732 N.am      1 <0>         0.0000
     20 O1          1.3587   -2.7155    0.9659 O.2       1 <0>         0.0000
     21 O2         -2.7332    2.6609    3.6338 O.2       1 <0>         0.0000
     22 O3          1.1143   -1.4038   -2.6273 O.2       1 <0>         0.0000
     23 O4         -1.4527    1.6619    2.0359 O.3       1 <0>         0.0000
     24 H1         -0.5514   -6.2149   -2.3111 H         1 <0>         0.0000
     25 H2         -2.6774    0.0631   -0.6181 H         1 <0>         0.0000
     26 H3         -2.8534   -0.1768    1.1227 H         1 <0>         0.0000
     27 H4          0.5749    1.2015    0.8108 H         1 <0>         0.0000
     28 H5          0.1513    2.5793   -0.1978 H         1 <0>         0.0000
     29 H6         -0.4704   -1.0437    1.2015 H         1 <0>         0.0000
     30 H7         -1.5023   -1.9966    0.1375 H         1 <0>         0.0000
     31 H8         -0.5935    0.9901   -2.0224 H         1 <0>         0.0000
     32 H9          1.0919    0.7547   -1.5919 H         1 <0>         0.0000
     33 H10        -1.9380    3.4850   -0.1752 H         1 <0>         0.0000
     34 H11        -3.1479    2.2791   -0.6727 H         1 <0>         0.0000
     35 H12        -1.3711   -4.4861   -3.7671 H         1 <0>         0.0000
     36 H13         0.1791   -3.6940   -4.1177 H         1 <0>         0.0000
     37 H14        -1.1344   -2.7527   -3.4386 H         1 <0>         0.0000
     38 H15         1.4229   -7.5504    0.2920 H         1 <0>         0.0000
     39 H16        -0.0237   -7.9330   -0.6575 H         1 <0>         0.0000
     40 H17        -0.1832   -7.3525    1.0099 H         1 <0>         0.0000
     41 H18        -3.7621    4.8791    1.2093 H         1 <0>         0.0000
     42 H19        -4.5643    3.9464    2.4976 H         1 <0>         0.0000
     43 H20        -5.0498    3.7151    0.7988 H         1 <0>         0.0000
     44 H21         1.2143   -5.1094    1.3135 H         1 <0>         0.0000
@<TRIPOS>BOND
     1    1    3 1
     2    1    4 2
     3    1   24 1
     4    2    3 2
     5    2    5 1
     6    2    7 1
     7    3   14 1
     8    4   15 1
     9    4   17 1
    10    5   17 am
    11    5   20 2
    12    6   18 am
    13    6   21 2
    14    6   23 1
    15    7   19 am
    16    7   22 2
    17    8   10 1
    18    8   13 1
    19    8   25 1
    20    8   26 1
    21    9   11 1
    22    9   13 1
    23    9   27 1
    24    9   28 1
    25   10   19 1
    26   10   29 1
    27   10   30 1
    28   11   19 1
    29   11   31 1
    30   11   32 1
    31   12   13 1
    32   12   18 1
    33   12   33 1
    34   12   34 1
    35   13   23 1
    36   14   35 1
    37   14   36 1
    38   14   37 1
    39   15   38 1
    40   15   39 1
    41   15   40 1
    42   16   18 1
    43   16   41 1
    44   16   42 1
    45   16   43 1
    46   17   44 1
