@<TRIPOS>MOLECULE
*****
   23    23     0     0     0
SMALL
NO_CHARGES

@<TRIPOS>ATOM
      1 C1          4.8393   -4.3188   -1.3349 C.1       1 <0>         0.0000
      2 C2          1.8210   -1.0722   -0.1181 C.ar      1 <0>         0.0000
      3 C3          0.7327   -0.5107    0.5472 C.ar      1 <0>         0.0000
      4 C4          1.8047   -0.9873    2.6708 C.ar      1 <0>         0.0000
      5 C5          2.9146   -1.6271    0.5664 C.ar      1 <0>         0.0000
      6 C6          2.8633   -1.5741    1.9707 C.ar      1 <0>         0.0000
      7 C7          0.7458   -0.4752    1.9390 C.ar      1 <0>         0.0000
      8 C8          3.7597   -3.7030   -0.5543 C.3       1 <0>         0.0000
      9 C9          4.0634   -2.2134   -0.2507 C.3       1 <0>         0.0000
     10 N1          5.7106   -4.7569   -1.9690 N.1       1 <0>         0.0000
     11 N2          4.1826   -1.4878   -1.5234 N.3       1 <0>         0.0000
     12 N3          3.9363   -2.1384    2.8112 N.pl3     1 <0>         0.0000
     13 O1          4.5467   -3.1269    2.3833 O.3       1 <0>         0.0000
     14 O2          4.1505   -1.6027    3.9011 O.2       1 <0>         0.0000
     15 F1         -0.2976    0.0764    2.5968 F         1 <0>         0.0000
     16 H1          1.8525   -1.0783   -1.2022 H         1 <0>         0.0000
     17 H2         -0.1116   -0.0965    0.0046 H         1 <0>         0.0000
     18 H3          1.8132   -0.9420    3.7533 H         1 <0>         0.0000
     19 H4          2.8303   -3.7762   -1.1276 H         1 <0>         0.0000
     20 H5          3.6411   -4.2513    0.3817 H         1 <0>         0.0000
     21 H6          4.9829   -2.1844    0.3420 H         1 <0>         0.0000
     22 H7          4.9008   -1.9302   -2.0969 H         1 <0>         0.0000
     23 H8          4.5007   -0.5364   -1.3443 H         1 <0>         0.0000
@<TRIPOS>BOND
     1    1    8 1
     2    1   10 3
     3    2    3 ar
     4    2    5 ar
     5    2   16 1
     6    3    7 ar
     7    3   17 1
     8    4    6 ar
     9    4    7 ar
    10    4   18 1
    11    5    6 ar
    12    5    9 1
    13    6   12 1
    14    7   15 1
    15    8    9 1
    16    8   19 1
    17    8   20 1
    18    9   11 1
    19    9   21 1
    20   11   22 1
    21   11   23 1
    22   12   13 1
    23   12   14 2
