@<TRIPOS>MOLECULE
*****
   24    25     0     0     0
SMALL
NO_CHARGES

@<TRIPOS>ATOM
      1 C1          1.5057    0.8841    0.9084 C.ar      1 <0>         0.0000
      2 C2          0.5333    0.1863    0.1866 C.ar      1 <0>         0.0000
      3 C3          2.4563    0.1776    1.6384 C.ar      1 <0>         0.0000
      4 C4          0.5344   -1.2101    0.1976 C.ar      1 <0>         0.0000
      5 C5          2.4750   -1.2346    1.6896 C.ar      1 <0>         0.0000
      6 C6          1.4928   -1.9100    0.9336 C.ar      1 <0>         0.0000
      7 C7          3.6869   -5.7753    4.0902 C.2       1 <0>         0.0000
      8 C8          4.7086   -4.7577    4.0487 C.2       1 <0>         0.0000
      9 C9          3.5281   -1.8256    2.5202 C.2       1 <0>         0.0000
     10 N1          4.2527   -6.9022    4.4523 N.2       1 <0>         0.0000
     11 N2          5.8589   -5.2773    4.3869 N.2       1 <0>         0.0000
     12 N3          3.5295   -3.0366    2.9555 N.2       1 <0>         0.0000
     13 N4          2.3355   -5.6007    3.8852 N.pl3     1 <0>         0.0000
     14 N5          4.5537   -3.4105    3.7671 N.pl3     1 <0>         0.0000
     15 O1          5.5964   -6.6057    4.6585 O.3       1 <0>         0.0000
     16 Br1         1.4161   -3.8234    0.7831 Br        1 <0>         0.0000
     17 H1          1.5232    1.9701    0.9025 H         1 <0>         0.0000
     18 H2         -0.2174    0.7182   -0.3908 H         1 <0>         0.0000
     19 H3          3.2088    0.7225    2.2037 H         1 <0>         0.0000
     20 H4         -0.2048   -1.7612   -0.3744 H         1 <0>         0.0000
     21 H5          4.3360   -1.1370    2.8000 H         1 <0>         0.0000
     22 H6          1.8258   -6.4657    3.7447 H         1 <0>         0.0000
     23 H7          2.1117   -4.8733    3.2124 H         1 <0>         0.0000
     24 H8          5.4000   -2.8412    3.8070 H         1 <0>         0.0000
@<TRIPOS>BOND
     1    1    2 ar
     2    1    3 ar
     3    1   17 1
     4    2    4 ar
     5    2   18 1
     6    3    5 ar
     7    3   19 1
     8    4    6 ar
     9    4   20 1
    10    5    6 ar
    11    5    9 1
    12    6   16 1
    13    7    8 1
    14    7   10 2
    15    7   13 1
    16    8   11 2
    17    8   14 1
    18    9   12 2
    19    9   21 1
    20   10   15 1
    21   11   15 1
    22   12   14 1
    23   13   22 1
    24   13   23 1
    25   14   24 1
