@<TRIPOS>MOLECULE
*****
   29    30     0     0     0
SMALL
NO_CHARGES

@<TRIPOS>ATOM
      1 C1          1.7005   -3.4024    1.8086 C.1       1 <0>         0.0000
      2 C2         -5.5235    2.1763    1.6486 C.2       1 <0>         0.0000
      3 C3          0.8053   -3.2622    2.8957 C.2       1 <0>         0.0000
      4 C4         -3.5218    0.7720    1.6879 C.2       1 <0>         0.0000
      5 C5         -4.2996    0.7560    2.8423 C.2       1 <0>         0.0000
      6 C6         -0.2662   -2.3924    2.9492 C.2       1 <0>         0.0000
      7 C7         -0.1432   -3.5405    4.7983 C.2       1 <0>         0.0000
      8 C8         -2.2880    0.0483    1.3950 C.2       1 <0>         0.0000
      9 C9         -4.0312   -0.0273    4.0926 C.3       1 <0>         0.0000
     10 C10        -0.6044   -3.9278    6.1560 C.3       1 <0>         0.0000
     11 C11        -1.5389    0.2806    0.1007 C.3       1 <0>         0.0000
     12 N1          2.3892   -3.4508    0.8657 N.1       1 <0>         0.0000
     13 N2         -5.4203    1.5568    2.7923 N.2       1 <0>         0.0000
     14 N3          0.8502   -3.9788    4.1013 N.2       1 <0>         0.0000
     15 N4         -1.8786   -0.7918    2.2981 N.2       1 <0>         0.0000
     16 N5         -0.7246   -1.4726    2.0565 N.pl3     1 <0>         0.0000
     17 O1         -0.8830   -2.5484    4.1419 O.3       1 <0>         0.0000
     18 S1         -4.2556    1.8445    0.5121 S.3       1 <0>         0.0000
     19 H1         -6.3305    2.8561    1.3968 H         1 <0>         0.0000
     20 H2         -3.0343    0.1867    4.4882 H         1 <0>         0.0000
     21 H3         -4.7882    0.2247    4.8376 H         1 <0>         0.0000
     22 H4         -4.0528   -1.1036    3.8962 H         1 <0>         0.0000
     23 H5         -0.5906   -3.0684    6.8342 H         1 <0>         0.0000
     24 H6         -1.6280   -4.3151    6.1255 H         1 <0>         0.0000
     25 H7          0.0601   -4.7009    6.5429 H         1 <0>         0.0000
     26 H8         -0.5103    0.6040    0.3021 H         1 <0>         0.0000
     27 H9         -1.4938   -0.6379   -0.4980 H         1 <0>         0.0000
     28 H10        -2.0000    1.0476   -0.5205 H         1 <0>         0.0000
     29 H11        -0.2318   -1.4206    1.1680 H         1 <0>         0.0000
@<TRIPOS>BOND
     1    1    3 1
     2    1   12 3
     3    2   13 2
     4    2   18 1
     5    2   19 1
     6    3    6 2
     7    3   14 1
     8    4    5 2
     9    4    8 1
    10    4   18 1
    11    5    9 1
    12    5   13 1
    13    6   16 1
    14    6   17 1
    15    7   10 1
    16    7   14 2
    17    7   17 1
    18    8   11 1
    19    8   15 2
    20    9   20 1
    21    9   21 1
    22    9   22 1
    23   10   23 1
    24   10   24 1
    25   10   25 1
    26   11   26 1
    27   11   27 1
    28   11   28 1
    29   15   16 1
    30   16   29 1
