@<TRIPOS>MOLECULE
*****
   29    30     0     0     0
SMALL
NO_CHARGES

@<TRIPOS>ATOM
      1 C1          1.2737    0.8975    1.3477 C.1       1 <0>         0.0000
      2 C2         -4.2424    1.4160    2.8084 C.2       1 <0>         0.0000
      3 C3          1.8945   -0.3671    1.1872 C.2       1 <0>         0.0000
      4 C4         -2.5120    0.4341    1.4158 C.2       1 <0>         0.0000
      5 C5         -2.9763    1.6751    1.0049 C.2       1 <0>         0.0000
      6 C6          1.3188   -1.6210    1.1297 C.2       1 <0>         0.0000
      7 C7          3.4973   -1.7803    0.9403 C.2       1 <0>         0.0000
      8 C8         -1.4703   -0.4221    0.8541 C.2       1 <0>         0.0000
      9 C9         -2.4819    2.5118   -0.1429 C.3       1 <0>         0.0000
     10 C10         4.7715   -2.5282    0.7831 C.3       1 <0>         0.0000
     11 C11        -1.0735   -0.2660   -0.5917 C.3       1 <0>         0.0000
     12 N1          0.7478    1.9351    1.4458 N.1       1 <0>         0.0000
     13 N2         -3.9652    2.2093    1.8076 N.2       1 <0>         0.0000
     14 N3          3.2895   -0.5144    1.0571 N.2       1 <0>         0.0000
     15 N4         -0.9910   -1.3127    1.6687 N.2       1 <0>         0.0000
     16 N5          0.0425   -2.1342    1.1381 N.pl3     1 <0>         0.0000
     17 O1          2.3209   -2.5319    0.9744 O.3       1 <0>         0.0000
     18 S1         -3.3238   -0.0482    2.8893 S.3       1 <0>         0.0000
     19 H1         -4.9964    1.6431    3.5556 H         1 <0>         0.0000
     20 H2         -2.7236    2.0680   -1.1136 H         1 <0>         0.0000
     21 H3         -2.9626    3.4898   -0.0879 H         1 <0>         0.0000
     22 H4         -1.3987    2.6500   -0.0871 H         1 <0>         0.0000
     23 H5          4.9160   -3.2332    1.6082 H         1 <0>         0.0000
     24 H6          4.7792   -3.0980   -0.1517 H         1 <0>         0.0000
     25 H7          5.5956   -1.8142    0.7744 H         1 <0>         0.0000
     26 H8         -0.4141    0.5929   -0.7319 H         1 <0>         0.0000
     27 H9         -0.5556   -1.1633   -0.9335 H         1 <0>         0.0000
     28 H10        -1.9637   -0.1078   -1.2038 H         1 <0>         0.0000
     29 H11         0.0107   -3.0430    1.5942 H         1 <0>         0.0000
@<TRIPOS>BOND
     1    1    3 1
     2    1   12 3
     3    2   13 2
     4    2   18 1
     5    2   19 1
     6    3    6 2
     7    3   14 1
     8    4    5 2
     9    4    8 1
    10    4   18 1
    11    5    9 1
    12    5   13 1
    13    6   16 1
    14    6   17 1
    15    7   10 1
    16    7   14 2
    17    7   17 1
    18    8   11 1
    19    8   15 2
    20    9   20 1
    21    9   21 1
    22    9   22 1
    23   10   23 1
    24   10   24 1
    25   10   25 1
    26   11   26 1
    27   11   27 1
    28   11   28 1
    29   15   16 1
    30   16   29 1
