@<TRIPOS>MOLECULE
*****
   33    35     0     0     0
SMALL
NO_CHARGES

@<TRIPOS>ATOM
      1 C1          1.8460    4.1362   -0.3755 C.ar      1 <0>         0.0000
      2 C2          0.3557    5.7975   -1.3333 C.ar      1 <0>         0.0000
      3 C3          2.8133    5.1161   -0.1849 C.ar      1 <0>         0.0000
      4 C4          1.3205    6.7864   -1.1455 C.ar      1 <0>         0.0000
      5 C5         -2.5066    1.7477   -1.6586 C.ar      1 <0>         0.0000
      6 C6         -5.6320   -0.0596   -2.5642 C.2       1 <0>         0.0000
      7 C7         -1.9218   -0.8894   -0.8559 C.ar      1 <0>         0.0000
      8 C8         -3.4697    0.7514   -1.8441 C.ar      1 <0>         0.0000
      9 C9         -4.7762    0.9875   -2.4337 C.2       1 <0>         0.0000
     10 C10         0.6050    4.4690   -0.9529 C.ar      1 <0>         0.0000
     11 C11        -1.2665    1.4534   -1.0840 C.ar      1 <0>         0.0000
     12 C12        -3.1491   -0.5699   -1.4306 C.ar      1 <0>         0.0000
     13 C13        -0.9770    0.1199   -0.6807 C.ar      1 <0>         0.0000
     14 C14         2.5445    6.4369   -0.5714 C.ar      1 <0>         0.0000
     15 C15        -5.3017   -1.4119   -2.1404 C.2       1 <0>         0.0000
     16 C16        -5.1569    2.3709   -2.8851 C.3       1 <0>         0.0000
     17 N1         -0.4499    3.5630   -1.1949 N.2       1 <0>         0.0000
     18 N2         -0.2290    2.3646   -0.8498 N.2       1 <0>         0.0000
     19 O1         -6.0173   -2.3858   -2.2291 O.2       1 <0>         0.0000
     20 O2         -4.0316   -1.5954   -1.5766 O.3       1 <0>         0.0000
     21 O3          0.2172   -0.1793   -0.1240 O.3       1 <0>         0.0000
     22 Cl1         3.7671    7.6661   -0.3285 Cl        1 <0>         0.0000
     23 H1          2.0436    3.1119   -0.0804 H         1 <0>         0.0000
     24 H2         -0.6056    6.0388   -1.7773 H         1 <0>         0.0000
     25 H3          3.7725    4.8689    0.2591 H         1 <0>         0.0000
     26 H4          1.1291    7.8135   -1.4389 H         1 <0>         0.0000
     27 H5         -2.6972    2.7725   -1.9554 H         1 <0>         0.0000
     28 H6         -6.6201    0.0553   -2.9966 H         1 <0>         0.0000
     29 H7         -1.7079   -1.9078   -0.5509 H         1 <0>         0.0000
     30 H8         -4.4620    2.7373   -3.6485 H         1 <0>         0.0000
     31 H9         -5.1226    3.0775   -2.0487 H         1 <0>         0.0000
     32 H10        -6.1650    2.3831   -3.3040 H         1 <0>         0.0000
     33 H11         0.7208    0.6613   -0.0949 H         1 <0>         0.0000
@<TRIPOS>BOND
     1    1    3 ar
     2    1   10 ar
     3    1   23 1
     4    2    4 ar
     5    2   10 ar
     6    2   24 1
     7    3   14 ar
     8    3   25 1
     9    4   14 ar
    10    4   26 1
    11    5    8 ar
    12    5   11 ar
    13    5   27 1
    14    6    9 2
    15    6   15 1
    16    6   28 1
    17    7   12 ar
    18    7   13 ar
    19    7   29 1
    20    8   12 ar
    21    8    9 1
    22    9   16 1
    23   10   17 1
    24   11   13 ar
    25   11   18 1
    26   12   20 1
    27   13   21 1
    28   14   22 1
    29   15   19 2
    30   15   20 1
    31   16   30 1
    32   16   31 1
    33   16   32 1
    34   17   18 2
    35   21   33 1
