@<TRIPOS>MOLECULE
*****
   27    28     0     0     0
SMALL
NO_CHARGES

@<TRIPOS>ATOM
      1 C1         -0.9996    0.9942    3.4269 C.1       1 <0>         0.0000
      2 C2         -0.4288    0.3617    2.5632 C.1       1 <0>         0.0000
      3 C3          0.3000   -1.3659   -0.6674 C.ar      1 <0>         0.0000
      4 C4         -0.3780   -0.6365    0.3073 C.ar      1 <0>         0.0000
      5 C5          1.5900   -1.8572   -0.4484 C.ar      1 <0>         0.0000
      6 C6          6.3457   -4.3207    0.6910 C.ar      1 <0>         0.0000
      7 C7          1.5411   -0.8736    1.7725 C.ar      1 <0>         0.0000
      8 C8          6.3383   -2.2070    1.8391 C.ar      1 <0>         0.0000
      9 C9          7.5914   -4.5658    1.2625 C.ar      1 <0>         0.0000
     10 C10         0.2459   -0.3849    1.5439 C.ar      1 <0>         0.0000
     11 C11         5.6948   -3.1181    0.9969 C.ar      1 <0>         0.0000
     12 C12         2.2142   -1.6062    0.7849 C.ar      1 <0>         0.0000
     13 C13         7.5958   -2.5646    2.3417 C.ar      1 <0>         0.0000
     14 C14         4.3514   -2.8577    0.3626 C.2       1 <0>         0.0000
     15 N1          8.2154   -3.7014    2.0822 N.ar      1 <0>         0.0000
     16 N2          3.5204   -2.0476    1.0985 N.am      1 <0>         0.0000
     17 O1          4.0605   -3.3578   -0.7204 O.2       1 <0>         0.0000
     18 Cl1         8.4263   -1.4247    3.3925 Cl        1 <0>         0.0000
     19 H1         -1.5060    1.5517    4.1862 H         1 <0>         0.0000
     20 H2         -0.1803   -1.5616   -1.6221 H         1 <0>         0.0000
     21 H3         -1.3799   -0.2600    0.1274 H         1 <0>         0.0000
     22 H4          2.1060   -2.4274   -1.2078 H         1 <0>         0.0000
     23 H5          5.8802   -5.0331    0.0187 H         1 <0>         0.0000
     24 H6          2.0172   -0.6750    2.7299 H         1 <0>         0.0000
     25 H7          5.9227   -1.2330    2.0759 H         1 <0>         0.0000
     26 H8          8.1233   -5.4927    1.0593 H         1 <0>         0.0000
     27 H9          3.8400   -1.8038    2.0271 H         1 <0>         0.0000
@<TRIPOS>BOND
     1    1    2 3
     2    1   19 1
     3    2   10 1
     4    3    4 ar
     5    3    5 ar
     6    3   20 1
     7    4   10 ar
     8    4   21 1
     9    5   12 ar
    10    5   22 1
    11    6    9 ar
    12    6   11 ar
    13    6   23 1
    14    7   10 ar
    15    7   12 ar
    16    7   24 1
    17    8   11 ar
    18    8   13 ar
    19    8   25 1
    20    9   15 ar
    21    9   26 1
    22   11   14 1
    23   12   16 1
    24   13   15 ar
    25   13   18 1
    26   14   16 am
    27   14   17 2
    28   16   27 1
