@<TRIPOS>MOLECULE
*****
   44    46     0     0     0
SMALL
NO_CHARGES

@<TRIPOS>ATOM
      1 C1          0.2479   -5.1582   -3.6538 C.2       1 <0>         0.0000
      2 C2          0.7441   -2.8060   -3.2971 C.2       1 <0>         0.0000
      3 C3          0.9943   -4.1300   -2.9995 C.2       1 <0>         0.0000
      4 C4         -0.6937   -4.8400   -4.5963 C.2       1 <0>         0.0000
      5 C5         -0.2489   -2.4304   -4.2876 C.2       1 <0>         0.0000
      6 C6         -0.9222    1.9498    2.0469 C.2       1 <0>         0.0000
      7 C7          1.6100   -1.7116   -2.7300 C.2       1 <0>         0.0000
      8 C8         -0.6464   -0.3906   -0.1656 C.3       1 <0>         0.0000
      9 C9          1.5927    0.7244   -0.0720 C.3       1 <0>         0.0000
     10 C10        -0.4168   -0.7112   -1.6481 C.3       1 <0>         0.0000
     11 C11         1.7734    0.4248   -1.5624 C.3       1 <0>         0.0000
     12 C12        -0.5352    2.1645   -0.2414 C.3       1 <0>         0.0000
     13 C13         0.1156    0.8622    0.2804 C.3       1 <0>         0.0000
     14 C14         2.0610   -4.5328   -2.0115 C.3       1 <0>         0.0000
     15 C15        -1.5166   -5.8418   -5.3541 C.3       1 <0>         0.0000
     16 C16        -2.1166    3.7823    0.9082 C.3       1 <0>         0.0000
     17 N1         -0.9108   -3.5192   -4.8795 N.am      1 <0>         0.0000
     18 N2         -1.3641    2.5436    0.8856 N.am      1 <0>         0.0000
     19 N3          1.0103   -0.7605   -1.9508 N.am      1 <0>         0.0000
     20 O1         -0.5465   -1.2792   -4.6314 O.2       1 <0>         0.0000
     21 O2         -1.2628    2.1978    3.1850 O.2       1 <0>         0.0000
     22 O3          2.8228   -1.7118   -2.9638 O.2       1 <0>         0.0000
     23 O4         -0.0064    0.9805    1.7258 O.3       1 <0>         0.0000
     24 H1          0.4290   -6.2000   -3.4134 H         1 <0>         0.0000
     25 H2         -1.7180   -0.2584    0.0206 H         1 <0>         0.0000
     26 H3         -0.3028   -1.2276    0.4506 H         1 <0>         0.0000
     27 H4          2.0163   -0.0940    0.5189 H         1 <0>         0.0000
     28 H5          2.1287    1.6404    0.1973 H         1 <0>         0.0000
     29 H6         -0.8662   -1.6763   -1.8777 H         1 <0>         0.0000
     30 H7         -0.9017    0.0275   -2.2981 H         1 <0>         0.0000
     31 H8          1.4383    1.2776   -2.1715 H         1 <0>         0.0000
     32 H9          2.8199    0.2397   -1.8001 H         1 <0>         0.0000
     33 H10         0.2167    2.9368   -0.4663 H         1 <0>         0.0000
     34 H11        -1.1339    2.0012   -1.1425 H         1 <0>         0.0000
     35 H12         3.0301   -4.5840   -2.5183 H         1 <0>         0.0000
     36 H13         1.8437   -5.5139   -1.5802 H         1 <0>         0.0000
     37 H14         2.1664   -3.8058   -1.2035 H         1 <0>         0.0000
     38 H15        -2.5873   -5.6820   -5.1824 H         1 <0>         0.0000
     39 H16        -1.2680   -6.8572   -5.0417 H         1 <0>         0.0000
     40 H17        -1.3355   -5.7607   -6.4321 H         1 <0>         0.0000
     41 H18        -1.4639    4.6525    0.7504 H         1 <0>         0.0000
     42 H19        -2.5962    3.8732    1.8836 H         1 <0>         0.0000
     43 H20        -2.8843    3.7723    0.1278 H         1 <0>         0.0000
     44 H21        -1.5989   -3.2532   -5.5781 H         1 <0>         0.0000
@<TRIPOS>BOND
     1    1    3 1
     2    1    4 2
     3    1   24 1
     4    2    3 2
     5    2    5 1
     6    2    7 1
     7    3   14 1
     8    4   15 1
     9    4   17 1
    10    5   17 am
    11    5   20 2
    12    6   18 am
    13    6   21 2
    14    6   23 1
    15    7   19 am
    16    7   22 2
    17    8   10 1
    18    8   13 1
    19    8   25 1
    20    8   26 1
    21    9   11 1
    22    9   13 1
    23    9   27 1
    24    9   28 1
    25   10   19 1
    26   10   29 1
    27   10   30 1
    28   11   19 1
    29   11   31 1
    30   11   32 1
    31   12   13 1
    32   12   18 1
    33   12   33 1
    34   12   34 1
    35   13   23 1
    36   14   35 1
    37   14   36 1
    38   14   37 1
    39   15   38 1
    40   15   39 1
    41   15   40 1
    42   16   18 1
    43   16   41 1
    44   16   42 1
    45   16   43 1
    46   17   44 1
