@<TRIPOS>MOLECULE
*****
   35    37     0     0     0
SMALL
NO_CHARGES

@<TRIPOS>ATOM
      1 C1         -0.8530   -4.0926    2.5092 C.ar      1 <0>         0.0000
      2 C2         -0.6866   -1.8608    1.0552 C.ar      1 <0>         0.0000
      3 C3          0.4761    0.1355    3.4294 C.2       1 <0>         0.0000
      4 C4         -0.5249   -1.0452   -0.1226 C.2       1 <0>         0.0000
      5 C5          1.7096    0.4676    2.7723 C.2       1 <0>         0.0000
      6 C6          0.8798   -0.5494    4.5484 C.2       1 <0>         0.0000
      7 C7         -1.3321   -1.8377    2.3162 C.ar      1 <0>         0.0000
      8 C8         -0.0992   -3.0803    0.6965 C.ar      1 <0>         0.0000
      9 C9         -1.0842    0.3055   -0.4542 C.3       1 <0>         0.0000
     10 C10         1.9336    1.2020    1.4850 C.3       1 <0>         0.0000
     11 C11         0.1678   -1.2181    5.6753 C.3       1 <0>         0.0000
     12 C12        -2.8457   -0.8221    3.9317 C.3       1 <0>         0.0000
     13 C13        -0.9248    0.4765    2.9837 C.3       1 <0>         0.0000
     14 N1         -1.4425   -2.9886    3.0034 N.ar      1 <0>         0.0000
     15 N2         -0.1288   -4.2156    1.3917 N.ar      1 <0>         0.0000
     16 N3          0.1425   -1.6982   -1.0464 N.2       1 <0>         0.0000
     17 N4          2.7525    0.0277    3.4446 N.2       1 <0>         0.0000
     18 N5         -1.8464   -0.6815    2.8699 N.pl3     1 <0>         0.0000
     19 O1          2.2280   -0.6253    4.5695 O.3       1 <0>         0.0000
     20 O2          0.4466   -2.9861   -0.5322 O.3       1 <0>         0.0000
     21 H1         -0.9677   -4.9949    3.1067 H         1 <0>         0.0000
     22 H2         -0.4905    1.1130   -0.0197 H         1 <0>         0.0000
     23 H3         -1.0917    0.4393   -1.5377 H         1 <0>         0.0000
     24 H4         -2.1060    0.3930   -0.0742 H         1 <0>         0.0000
     25 H5          1.3404    2.1206    1.4391 H         1 <0>         0.0000
     26 H6          2.9891    1.4659    1.3934 H         1 <0>         0.0000
     27 H7          1.6676    0.5761    0.6282 H         1 <0>         0.0000
     28 H8         -0.3750   -2.0994    5.3197 H         1 <0>         0.0000
     29 H9          0.8897   -1.5304    6.4329 H         1 <0>         0.0000
     30 H10        -0.5529   -0.5388    6.1413 H         1 <0>         0.0000
     31 H11        -3.4008    0.1173    4.0046 H         1 <0>         0.0000
     32 H12        -2.4178   -1.0613    4.9103 H         1 <0>         0.0000
     33 H13        -3.5409   -1.6186    3.6663 H         1 <0>         0.0000
     34 H14        -1.3947    1.1642    3.6925 H         1 <0>         0.0000
     35 H15        -0.8759    1.0122    2.0351 H         1 <0>         0.0000
@<TRIPOS>BOND
     1    1   14 ar
     2    1   15 ar
     3    1   21 1
     4    2    4 1
     5    2    7 ar
     6    2    8 ar
     7    3    5 1
     8    3    6 2
     9    3   13 1
    10    4    9 1
    11    4   16 2
    12    5   10 1
    13    5   17 2
    14    6   11 1
    15    6   19 1
    16    7   14 ar
    17    7   18 1
    18    8   15 ar
    19    8   20 1
    20    9   22 1
    21    9   23 1
    22    9   24 1
    23   10   25 1
    24   10   26 1
    25   10   27 1
    26   11   28 1
    27   11   29 1
    28   11   30 1
    29   12   18 1
    30   12   31 1
    31   12   32 1
    32   12   33 1
    33   13   18 1
    34   13   34 1
    35   13   35 1
    36   16   20 1
    37   17   19 1
