@<TRIPOS>MOLECULE
*****
   34    35     0     0     0
SMALL
NO_CHARGES

@<TRIPOS>ATOM
      1 C1         -5.2001   -1.9492   -3.7175 C.2       1 <0>         0.0000
      2 C2         -4.4556   -2.8564   -2.8866 C.2       1 <0>         0.0000
      3 C3         -4.9301   -0.6388   -3.7201 C.2       1 <0>         0.0000
      4 C4         -3.4777   -2.3872   -2.1042 C.2       1 <0>         0.0000
      5 C5         -3.8395   -0.0974   -2.8529 C.2       1 <0>         0.0000
      6 C6         -2.6007   -0.6600    0.2163 C.2       1 <0>         0.0000
      7 C7         -2.1887   -0.1772    2.6058 C.3       1 <0>         0.0000
      8 C8         -0.3484    0.2040    1.0144 C.3       1 <0>         0.0000
      9 C9         -1.1927   -0.8170    3.5724 C.3       1 <0>         0.0000
     10 C10         0.6144   -0.4381    2.0149 C.3       1 <0>         0.0000
     11 C11         1.0905   -0.8319    4.3448 C.3       1 <0>         0.0000
     12 C12        -2.0813   -0.5903   -1.1976 C.3       1 <0>         0.0000
     13 N1         -3.1386   -1.0324   -2.0553 N.am      1 <0>         0.0000
     14 N2         -1.7202   -0.2683    1.2238 N.am      1 <0>         0.0000
     15 N3          0.1483   -0.2410    3.3954 N.3       1 <0>         0.0000
     16 O1         -3.6101    1.1109   -2.8754 O.2       1 <0>         0.0000
     17 O2         -3.7520   -1.0544    0.4181 O.2       1 <0>         0.0000
     18 H1         -5.9878   -2.3564   -4.3414 H         1 <0>         0.0000
     19 H2         -4.7043   -3.9108   -2.9100 H         1 <0>         0.0000
     20 H3         -5.4838    0.0561   -4.3402 H         1 <0>         0.0000
     21 H4         -2.8980   -3.0447   -1.4660 H         1 <0>         0.0000
     22 H5         -3.1682   -0.6539    2.7152 H         1 <0>         0.0000
     23 H6         -2.3171    0.8881    2.8341 H         1 <0>         0.0000
     24 H7         -0.3626    1.2936    1.1414 H         1 <0>         0.0000
     25 H8          0.0001    0.0014   -0.0002 H         1 <0>         0.0000
     26 H9         -1.5421   -0.6327    4.5956 H         1 <0>         0.0000
     27 H10        -1.1783   -1.9048    3.4224 H         1 <0>         0.0000
     28 H11         0.7244   -1.5063    1.7855 H         1 <0>         0.0000
     29 H12         1.5998    0.0263    1.8880 H         1 <0>         0.0000
     30 H13         0.7369   -0.6812    5.3682 H         1 <0>         0.0000
     31 H14         2.0743   -0.3666    4.2403 H         1 <0>         0.0000
     32 H15         1.1891   -1.9052    4.1611 H         1 <0>         0.0000
     33 H16        -1.2150   -1.2408   -1.2728 H         1 <0>         0.0000
     34 H17        -1.8077    0.4394   -1.4078 H         1 <0>         0.0000
@<TRIPOS>BOND
     1    1    3 2
     2    1    2 1
     3    1   18 1
     4    2    4 2
     5    2   19 1
     6    3    5 1
     7    3   20 1
     8    4   13 1
     9    4   21 1
    10    5   13 am
    11    5   16 2
    12    6   12 1
    13    6   14 am
    14    6   17 2
    15    7    9 1
    16    7   14 1
    17    7   22 1
    18    7   23 1
    19    8   10 1
    20    8   14 1
    21    8   24 1
    22    8   25 1
    23    9   15 1
    24    9   26 1
    25    9   27 1
    26   10   15 1
    27   10   28 1
    28   10   29 1
    29   11   15 1
    30   11   30 1
    31   11   31 1
    32   11   32 1
    33   12   13 1
    34   12   33 1
    35   12   34 1
