@<TRIPOS>MOLECULE
*****
   33    34     0     0     0
SMALL
NO_CHARGES

@<TRIPOS>ATOM
      1 C1          2.6238    4.2636   -0.1005 C.2       1 <0>         0.0000
      2 C2          2.4762    3.7705    1.1697 C.2       1 <0>         0.0000
      3 C3          1.4050    2.4779   -0.6005 C.2       1 <0>         0.0000
      4 C4          0.0366    0.4638   -1.0233 C.2       1 <0>         0.0000
      5 C5         -1.2255   -1.6425   -1.6659 C.3       1 <0>         0.0000
      6 C6         -1.7263    0.5246   -2.8673 C.3       1 <0>         0.0000
      7 C7         -2.5255   -1.4489   -0.8777 C.3       1 <0>         0.0000
      8 C8         -2.9754    0.6577   -1.9933 C.3       1 <0>         0.0000
      9 C9         -0.6319   -0.3116   -2.1602 C.3       1 <0>         0.0000
     10 C10         3.3671    5.5007   -0.5169 C.3       1 <0>         0.0000
     11 C11         2.9905    4.2939    2.4793 C.3       1 <0>         0.0000
     12 N1          2.0088    3.5193   -1.1005 N.2       1 <0>         0.0000
     13 N2         -3.4891   -0.6802   -1.6824 N.3       1 <0>         0.0000
     14 N3          0.7212    1.5922   -1.4274 N.am      1 <0>         0.0000
     15 O1          0.0030    0.1354    0.1599 O.2       1 <0>         0.0000
     16 S1          1.5204    2.2932    1.1330 S.3       1 <0>         0.0000
     17 H1         -0.4963   -2.1699   -1.0450 H         1 <0>         0.0000
     18 H2         -1.4368   -2.2633   -2.5438 H         1 <0>         0.0000
     19 H3         -2.0046    0.0093   -3.7930 H         1 <0>         0.0000
     20 H4         -1.3578    1.5186   -3.1444 H         1 <0>         0.0000
     21 H5         -2.9641   -2.4286   -0.6603 H         1 <0>         0.0000
     22 H6         -2.2949   -0.9614    0.0813 H         1 <0>         0.0000
     23 H7         -2.7278    1.2405   -1.0863 H         1 <0>         0.0000
     24 H8         -3.7462    1.2121   -2.5389 H         1 <0>         0.0000
     25 H9          0.1598   -0.5275   -2.8906 H         1 <0>         0.0000
     26 H10         4.1670    5.2457   -1.2204 H         1 <0>         0.0000
     27 H11         2.6931    6.1957   -1.0290 H         1 <0>         0.0000
     28 H12         3.8119    6.0191    0.3346 H         1 <0>         0.0000
     29 H13         2.1733    4.5211    3.1734 H         1 <0>         0.0000
     30 H14         3.6507    3.5715    2.9727 H         1 <0>         0.0000
     31 H15         3.5608    5.2131    2.3281 H         1 <0>         0.0000
     32 H16        -4.3609   -0.5929   -1.1649 H         1 <0>         0.0000
     33 H17         0.7552    1.8435   -2.4090 H         1 <0>         0.0000
@<TRIPOS>BOND
     1    1    2 2
     2    1   10 1
     3    1   12 1
     4    2   11 1
     5    2   16 1
     6    3   12 2
     7    3   14 1
     8    3   16 1
     9    4    9 1
    10    4   14 am
    11    4   15 2
    12    5    7 1
    13    5    9 1
    14    5   17 1
    15    5   18 1
    16    6    8 1
    17    6    9 1
    18    6   19 1
    19    6   20 1
    20    7   13 1
    21    7   21 1
    22    7   22 1
    23    8   13 1
    24    8   23 1
    25    8   24 1
    26    9   25 1
    27   10   26 1
    28   10   27 1
    29   10   28 1
    30   11   29 1
    31   11   30 1
    32   11   31 1
    33   13   32 1
    34   14   33 1
