@<TRIPOS>MOLECULE
*****
   26    25     0     0     0
SMALL
NO_CHARGES

@<TRIPOS>ATOM
      1 C1         -2.7129   -0.3339    1.3710 C.2       1 <0>         0.0000
      2 C2          0.1988    0.9411   -0.4537 C.2       1 <0>         0.0000
      3 C3         -3.0239   -0.1764    2.8225 C.3       1 <0>         0.0000
      4 C4         -2.0961    1.5058   -1.2975 C.3       1 <0>         0.0000
      5 C5          2.4377    0.5537   -1.4780 C.3       1 <0>         0.0000
      6 C6          0.6044   -1.9118   -1.7787 C.3       1 <0>         0.0000
      7 C7         -1.2747    0.5356   -0.4615 C.3       1 <0>         0.0000
      8 N1         -1.7290    0.5214    0.9062 N.am      1 <0>         0.0000
      9 N2          1.0074    0.3231   -1.3791 N.am      1 <0>         0.0000
     10 O1         -3.3171   -1.1713    0.7111 O.2       1 <0>         0.0000
     11 O2          0.6284    1.7488    0.3748 O.2       1 <0>         0.0000
     12 O3          0.5373   -0.5999   -2.3312 O.3       1 <0>         0.0000
     13 H1         -3.8218    0.5615    3.0039 H         1 <0>         0.0000
     14 H2         -3.3835   -1.1123    3.2794 H         1 <0>         0.0000
     15 H3         -2.1804    0.1481    3.4526 H         1 <0>         0.0000
     16 H4         -1.9771    2.5316   -0.9324 H         1 <0>         0.0000
     17 H5         -3.1636    1.2607   -1.2548 H         1 <0>         0.0000
     18 H6         -1.7953    1.4815   -2.3497 H         1 <0>         0.0000
     19 H7          2.9771   -0.1541   -0.8432 H         1 <0>         0.0000
     20 H8          2.6798    1.5703   -1.1564 H         1 <0>         0.0000
     21 H9          2.7708    0.4244   -2.5113 H         1 <0>         0.0000
     22 H10         0.2408   -2.6358   -2.5119 H         1 <0>         0.0000
     23 H11        -0.0046   -1.9580   -0.8723 H         1 <0>         0.0000
     24 H12         1.6434   -2.1397   -1.5292 H         1 <0>         0.0000
     25 H13        -1.3984   -0.4852   -0.8315 H         1 <0>         0.0000
     26 H14        -1.3053    1.1728    1.5630 H         1 <0>         0.0000
@<TRIPOS>BOND
     1    1    3 1
     2    1    8 am
     3    1   10 2
     4    2    7 1
     5    2    9 am
     6    2   11 2
     7    3   13 1
     8    3   14 1
     9    3   15 1
    10    4    7 1
    11    4   16 1
    12    4   17 1
    13    4   18 1
    14    5    9 1
    15    5   19 1
    16    5   20 1
    17    5   21 1
    18    6   12 1
    19    6   22 1
    20    6   23 1
    21    6   24 1
    22    7    8 1
    23    7   25 1
    24    8   26 1
    25    9   12 1
