@<TRIPOS>MOLECULE
*****
   23    24     0     0     0
SMALL
NO_CHARGES

@<TRIPOS>ATOM
      1 C1          3.7566   -0.2633    5.9065 C.2       1 <0>         0.0000
      2 C2          2.4591   -0.6959    5.7655 C.2       1 <0>         0.0000
      3 C3          0.3223    0.6043    2.1546 C.2       1 <0>         0.0000
      4 C4         -0.1253   -0.0820    1.0613 C.2       1 <0>         0.0000
      5 C5          2.6844    1.3998    5.1222 C.2       1 <0>         0.0000
      6 C6         -0.9590   -1.0544    2.8668 C.cat     1 <0>         0.0000
      7 C7         -1.6002   -2.0837    0.7150 C.3       1 <0>         0.0000
      8 N1          3.8902    1.0421    5.5046 N.2       1 <0>         0.0000
      9 N2          1.7841    0.3804    5.2626 N.pl3     1 <0>         0.0000
     10 N3         -0.2093   -0.0188    3.2579 N.pl3     1 <0>         0.0000
     11 N4         -0.9155   -1.1031    1.5315 N.pl3     1 <0>         0.0000
     12 O1         -0.5592   -0.5274    5.7989 O.2       1 <0>         0.0000
     13 O2         -0.3590    1.8569    5.0079 O.2       1 <0>         0.0000
     14 S1          0.0382    0.4445    4.8584 S.o2      1 <0>         0.0000
     15 H1          4.6013   -0.8255    6.2770 H         1 <0>         0.0000
     16 H2          1.9779   -1.6417    5.9725 H         1 <0>         0.0000
     17 H3          0.9529    1.4596    2.3052 H         1 <0>         0.0000
     18 H4          0.0085    0.0104    0.0008 H         1 <0>         0.0000
     19 H5          2.4072    2.3727    4.7398 H         1 <0>         0.0000
     20 H6         -1.5000   -1.7291    3.5115 H         1 <0>         0.0000
     21 H7         -0.9395   -2.9418    0.5639 H         1 <0>         0.0000
     22 H8         -2.5199   -2.4141    1.2059 H         1 <0>         0.0000
     23 H9         -1.8587   -1.6424   -0.2519 H         1 <0>         0.0000
@<TRIPOS>BOND
     1    1    2 2
     2    1    8 1
     3    1   15 1
     4    2    9 1
     5    2   16 1
     6    3    4 2
     7    3   10 1
     8    3   17 1
     9    4   11 1
    10    4   18 1
    11    5    8 2
    12    5    9 1
    13    5   19 1
    14    6   10 1
    15    6   11 2
    16    6   20 1
    17    7   11 1
    18    7   21 1
    19    7   22 1
    20    7   23 1
    21    9   14 1
    22   10   14 1
    23   12   14 2
    24   13   14 2
