@<TRIPOS>MOLECULE
*****
   50    53     0     0     0
SMALL
NO_CHARGES

@<TRIPOS>ATOM
      1 C1          2.9544    4.1995   -7.8433 C.ar      1 <0>         0.0000
      2 C2          3.6385    4.9962   -6.8997 C.ar      1 <0>         0.0000
      3 C3          2.1407    3.1417   -7.4436 C.ar      1 <0>         0.0000
      4 C4          2.8961   -0.3850   -0.2635 C.ar      1 <0>         0.0000
      5 C5          3.5287    4.7572   -5.5278 C.ar      1 <0>         0.0000
      6 C6          3.1912   -1.7429   -0.1789 C.ar      1 <0>         0.0000
      7 C7          1.2976    1.9198   -5.2665 C.2       1 <0>         0.0000
      8 C8          2.0140    2.8812   -6.0670 C.ar      1 <0>         0.0000
      9 C9          1.5851    0.0828   -0.1136 C.ar      1 <0>         0.0000
     10 C10         0.5126   -0.7939    0.1283 C.ar      1 <0>         0.0000
     11 C11         2.7123    3.6961   -5.1510 C.ar      1 <0>         0.0000
     12 C12         0.8226   -2.1646    0.2425 C.ar      1 <0>         0.0000
     13 C13         2.1378   -2.5998    0.0786 C.ar      1 <0>         0.0000
     14 C14         1.5971    2.1997   -3.9672 C.2       1 <0>         0.0000
     15 C15         1.1420    1.5377   -2.7247 C.2       1 <0>         0.0000
     16 C16        -1.0781    1.1912   -0.0392 C.3       1 <0>         0.0000
     17 C17         1.4126    1.5901   -0.2174 C.3       1 <0>         0.0000
     18 C18        -0.9370   -0.3179    0.2790 C.3       1 <0>         0.0000
     19 C19         0.0874    2.0605    0.4194 C.3       1 <0>         0.0000
     20 C20        -1.4280   -0.6110    1.7184 C.3       1 <0>         0.0000
     21 C21        -1.8599   -1.0385   -0.7343 C.3       1 <0>         0.0000
     22 C22        -0.1983    3.5450    0.0869 C.3       1 <0>         0.0000
     23 N1          1.6410    2.0857   -1.5762 N.am      1 <0>         0.0000
     24 O1          0.3781    0.5726   -2.7713 O.2       1 <0>         0.0000
     25 O2          2.4621    3.2825   -3.8642 O.3       1 <0>         0.0000
     26 O3         -0.1518   -3.0926    0.5185 O.3       1 <0>         0.0000
     27 O4          0.3341    2.0003    1.8222 O.3       1 <0>         0.0000
     28 F1          2.3559   -3.9495    0.1955 F         1 <0>         0.0000
     29 F2         -1.1558    4.0305    0.9226 F         1 <0>         0.0000
     30 F3          0.9007    4.3227    0.2515 F         1 <0>         0.0000
     31 F4         -0.6448    3.7438   -1.1728 F         1 <0>         0.0000
     32 H1          3.0677    4.4201   -8.9011 H         1 <0>         0.0000
     33 H2          4.2639    5.8136   -7.2475 H         1 <0>         0.0000
     34 H3          1.6171    2.5337   -8.1760 H         1 <0>         0.0000
     35 H4          3.6959    0.3249   -0.4561 H         1 <0>         0.0000
     36 H5          4.0491    5.3639   -4.7931 H         1 <0>         0.0000
     37 H6          4.1979   -2.1315   -0.2937 H         1 <0>         0.0000
     38 H7          0.6444    1.1216   -5.5914 H         1 <0>         0.0000
     39 H8         -1.1723    1.3135   -1.1183 H         1 <0>         0.0000
     40 H9         -2.0100    1.5564    0.4088 H         1 <0>         0.0000
     41 H10         2.1968    2.0494    0.3888 H         1 <0>         0.0000
     42 H11        -2.4412   -0.2148    1.8551 H         1 <0>         0.0000
     43 H12        -0.7685   -0.1592    2.4636 H         1 <0>         0.0000
     44 H13        -1.4608   -1.6855    1.9052 H         1 <0>         0.0000
     45 H14        -2.8640   -0.6008   -0.6828 H         1 <0>         0.0000
     46 H15        -1.9428   -2.1034   -0.5192 H         1 <0>         0.0000
     47 H16        -1.4784   -0.9074   -1.7499 H         1 <0>         0.0000
     48 H17         2.2006    2.9236   -1.6741 H         1 <0>         0.0000
     49 H18         0.2692   -3.9693    0.5390 H         1 <0>         0.0000
     50 H19        -0.5096    2.1254    2.2861 H         1 <0>         0.0000
@<TRIPOS>BOND
     1    1    2 ar
     2    1    3 ar
     3    1   32 1
     4    2    5 ar
     5    2   33 1
     6    3    8 ar
     7    3   34 1
     8    4    6 ar
     9    4    9 ar
    10    4   35 1
    11    5   11 ar
    12    5   36 1
    13    6   13 ar
    14    6   37 1
    15    7    8 1
    16    7   14 2
    17    7   38 1
    18    8   11 ar
    19    9   10 ar
    20    9   17 1
    21   10   12 ar
    22   10   18 1
    23   11   25 1
    24   12   13 ar
    25   12   26 1
    26   13   28 1
    27   14   15 1
    28   14   25 1
    29   15   23 am
    30   15   24 2
    31   16   18 1
    32   16   19 1
    33   16   39 1
    34   16   40 1
    35   17   19 1
    36   17   23 1
    37   17   41 1
    38   18   20 1
    39   18   21 1
    40   19   22 1
    41   19   27 1
    42   20   42 1
    43   20   43 1
    44   20   44 1
    45   21   45 1
    46   21   46 1
    47   21   47 1
    48   22   29 1
    49   22   30 1
    50   22   31 1
    51   23   48 1
    52   26   49 1
    53   27   50 1
