@<TRIPOS>MOLECULE
*****
   62    65     0     0     0
SMALL
NO_CHARGES

@<TRIPOS>ATOM
      1 C1          2.3344    3.4743    2.8416 C.ar      1 <0>         0.0000
      2 C2         -2.6262    1.8638    8.2843 C.ar      1 <0>         0.0000
      3 C3          3.6467    3.9077    3.0116 C.ar      1 <0>         0.0000
      4 C4         -2.2391    1.7598    6.9485 C.ar      1 <0>         0.0000
      5 C5          1.7331    5.7145    2.1423 C.ar      1 <0>         0.0000
      6 C6         -4.5696    1.8601    6.2448 C.ar      1 <0>         0.0000
      7 C7          1.3615    4.3884    2.4117 C.ar      1 <0>         0.0000
      8 C8         -3.9817    1.9761    8.6079 C.ar      1 <0>         0.0000
      9 C9         -4.9381    1.9708    7.5882 C.ar      1 <0>         0.0000
     10 C10         4.0358    5.2315    2.7640 C.ar      1 <0>         0.0000
     11 C11         3.0569    6.1468    2.3038 C.ar      1 <0>         0.0000
     12 C12        -3.2059    1.7589    5.9276 C.ar      1 <0>         0.0000
     13 C13        -1.8727    2.8647    2.1389 C.2       1 <0>         0.0000
     14 C14        -2.1449    4.1540    1.7788 C.2       1 <0>         0.0000
     15 C15        -0.0184    3.9453    2.2470 C.2       1 <0>         0.0000
     16 C16        -4.5454    3.0266   12.3363 C.2       1 <0>         0.0000
     17 C17        -6.3321    2.0608    8.1731 C.3       1 <0>         0.0000
     18 C18        -6.0752    2.5700    9.6106 C.3       1 <0>         0.0000
     19 C19        -4.6484    2.0790    9.9694 C.3       1 <0>         0.0000
     20 C20         5.4575    5.6600    3.0339 C.3       1 <0>         0.0000
     21 C21        -3.3677    4.8928    1.3652 C.3       1 <0>         0.0000
     22 C22         2.3724    8.4951    2.1421 C.3       1 <0>         0.0000
     23 C23         4.2371    7.6872    0.8411 C.3       1 <0>         0.0000
     24 C24        -2.8134    1.7039    2.2714 C.3       1 <0>         0.0000
     25 C25        -3.9086    2.9856   10.9535 C.3       1 <0>         0.0000
     26 C26        -3.6271    1.7313    3.5653 C.3       1 <0>         0.0000
     27 N1         -0.5151    2.7524    2.4306 N.2       1 <0>         0.0000
     28 N2          3.4339    7.4996    2.0522 N.pl3     1 <0>         0.0000
     29 O1         -5.4270    2.2951   12.7208 O.2       1 <0>         0.0000
     30 O2         -0.9594    4.8608    1.8461 O.3       1 <0>         0.0000
     31 O3         -4.0291    3.9700   13.1839 O.3       1 <0>         0.0000
     32 O4         -2.7140    1.6541    4.6546 O.3       1 <0>         0.0000
     33 H1          2.0475    2.4491    3.0519 H         1 <0>         0.0000
     34 H2         -1.8616    1.8594    9.0585 H         1 <0>         0.0000
     35 H3          4.3939    3.2045    3.3737 H         1 <0>         0.0000
     36 H4         -1.1936    1.6845    6.6647 H         1 <0>         0.0000
     37 H5          0.9742    6.4067    1.7975 H         1 <0>         0.0000
     38 H6         -5.3309    1.8556    5.4717 H         1 <0>         0.0000
     39 H7         -6.9985    2.7161    7.6026 H         1 <0>         0.0000
     40 H8         -6.7962    1.0655    8.1890 H         1 <0>         0.0000
     41 H9         -6.0815    3.6674    9.6075 H         1 <0>         0.0000
     42 H10        -6.8211    2.2358   10.3334 H         1 <0>         0.0000
     43 H11        -4.7174    1.0812   10.4222 H         1 <0>         0.0000
     44 H12         6.0959    5.5481    2.1485 H         1 <0>         0.0000
     45 H13         5.4945    6.7108    3.3338 H         1 <0>         0.0000
     46 H14         5.8990    5.0488    3.8265 H         1 <0>         0.0000
     47 H15        -3.6418    5.6616    2.0971 H         1 <0>         0.0000
     48 H16        -3.2266    5.3879    0.3979 H         1 <0>         0.0000
     49 H17        -4.2062    4.1980    1.2735 H         1 <0>         0.0000
     50 H18         2.8274    9.4907    2.1685 H         1 <0>         0.0000
     51 H19         1.8056    8.3533    3.0657 H         1 <0>         0.0000
     52 H20         1.6687    8.4736    1.2911 H         1 <0>         0.0000
     53 H21         4.6717    8.6925    0.8439 H         1 <0>         0.0000
     54 H22         3.6351    7.5703   -0.0769 H         1 <0>         0.0000
     55 H23         5.0530    6.9652    0.8028 H         1 <0>         0.0000
     56 H24        -3.5206    1.6838    1.4341 H         1 <0>         0.0000
     57 H25        -2.2322    0.7788    2.2333 H         1 <0>         0.0000
     58 H26        -2.8735    2.6429   11.0859 H         1 <0>         0.0000
     59 H27        -3.8455    4.0036   10.5463 H         1 <0>         0.0000
     60 H28        -4.2100    2.6604    3.6298 H         1 <0>         0.0000
     61 H29        -4.3244    0.8820    3.5931 H         1 <0>         0.0000
     62 H30        -3.3360    4.4776   12.7283 H         1 <0>         0.0000
@<TRIPOS>BOND
     1    1    3 ar
     2    1    7 ar
     3    1   33 1
     4    2    4 ar
     5    2    8 ar
     6    2   34 1
     7    3   10 ar
     8    3   35 1
     9    4   12 ar
    10    4   36 1
    11    5    7 ar
    12    5   11 ar
    13    5   37 1
    14    6    9 ar
    15    6   12 ar
    16    6   38 1
    17    7   15 1
    18    8    9 ar
    19    8   19 1
    20    9   17 1
    21   10   11 ar
    22   10   20 1
    23   11   28 1
    24   12   32 1
    25   13   14 2
    26   13   24 1
    27   13   27 1
    28   14   21 1
    29   14   30 1
    30   15   27 2
    31   15   30 1
    32   16   25 1
    33   16   29 2
    34   16   31 1
    35   17   18 1
    36   17   39 1
    37   17   40 1
    38   18   19 1
    39   18   41 1
    40   18   42 1
    41   19   25 1
    42   19   43 1
    43   20   44 1
    44   20   45 1
    45   20   46 1
    46   21   47 1
    47   21   48 1
    48   21   49 1
    49   22   28 1
    50   22   50 1
    51   22   51 1
    52   22   52 1
    53   23   28 1
    54   23   53 1
    55   23   54 1
    56   23   55 1
    57   24   26 1
    58   24   56 1
    59   24   57 1
    60   25   58 1
    61   25   59 1
    62   26   32 1
    63   26   60 1
    64   26   61 1
    65   31   62 1
