@<TRIPOS>MOLECULE
*****
   66    70     0     0     0
SMALL
NO_CHARGES

@<TRIPOS>ATOM
      1 C1         -2.3705    3.9071  -10.1259 C.ar      1 <0>         0.0000
      2 C2         -1.4208   -1.1112   -6.3959 C.ar      1 <0>         0.0000
      3 C3         -1.5412    2.7864  -10.1183 C.ar      1 <0>         0.0000
      4 C4         -1.4232   -1.6144   -5.0953 C.ar      1 <0>         0.0000
      5 C5          0.8889   -0.4611   -6.1676 C.ar      1 <0>         0.0000
      6 C6         -3.6853    3.7682  -10.5868 C.ar      1 <0>         0.0000
      7 C7         -3.3828    1.5436  -11.0210 C.ar      1 <0>         0.0000
      8 C8         -0.2671   -0.5405   -6.9515 C.ar      1 <0>         0.0000
      9 C9         -2.0555    1.5645  -10.5744 C.ar      1 <0>         0.0000
     10 C10        -0.2588   -1.5670   -4.3195 C.ar      1 <0>         0.0000
     11 C11         0.8915   -0.9758   -4.8787 C.ar      1 <0>         0.0000
     12 C12         0.7017   -1.6305   -2.0850 C.2       1 <0>         0.0000
     13 C13        -0.1787    0.0567   -8.3321 C.2       1 <0>         0.0000
     14 C14         3.2671   -1.2539   -4.4119 C.2       1 <0>         0.0000
     15 C15         1.6592   -0.5715   -2.6325 C.3       1 <0>         0.0000
     16 C16         6.8027   -5.9559   -4.1386 C.3       1 <0>         0.0000
     17 C17         7.8764   -4.8885   -3.8930 C.3       1 <0>         0.0000
     18 C18         5.4880   -5.5951   -3.4360 C.3       1 <0>         0.0000
     19 C19        -0.7668   -4.3834   -2.0222 C.3       1 <0>         0.0000
     20 C20        -1.4425   -4.3110   -3.3686 C.3       1 <0>         0.0000
     21 C21         7.3827   -3.4923   -4.3089 C.3       1 <0>         0.0000
     22 C22         4.9861   -4.2030   -3.8574 C.3       1 <0>         0.0000
     23 C23        -1.2157   -3.0511   -2.5635 C.3       1 <0>         0.0000
     24 C24         6.0729   -3.1595   -3.5924 C.3       1 <0>         0.0000
     25 C25        -1.2212    0.3024  -10.5606 C.3       1 <0>         0.0000
     26 C26         4.4070   -1.2078   -3.3664 C.3       1 <0>         0.0000
     27 N1         -4.1929    2.6107  -11.0303 N.ar      1 <0>         0.0000
     28 N2         -0.2047   -2.1117   -3.0120 N.am      1 <0>         0.0000
     29 N3          2.0325   -0.8882   -4.0130 N.am      1 <0>         0.0000
     30 N4         -1.1385   -0.3057   -9.2266 N.am      1 <0>         0.0000
     31 N5          5.6105   -1.7788   -4.0539 N.4       1 <0>         0.0000
     32 O1          0.7607   -1.9908   -0.9199 O.2       1 <0>         0.0000
     33 O2          0.7476    0.8195   -8.6218 O.2       1 <0>         0.0000
     34 O3          3.5677   -1.6064   -5.5583 O.2       1 <0>         0.0000
     35 H1         -2.0109    4.8748   -9.7876 H         1 <0>         0.0000
     36 H2         -2.3541   -1.1433   -6.9506 H         1 <0>         0.0000
     37 H3         -0.5149    2.8457   -9.7656 H         1 <0>         0.0000
     38 H4         -2.3285   -2.0420   -4.6820 H         1 <0>         0.0000
     39 H5          1.7700    0.0078   -6.5885 H         1 <0>         0.0000
     40 H6         -4.3573    4.6248  -10.6040 H         1 <0>         0.0000
     41 H7         -3.8154    0.6159  -11.3990 H         1 <0>         0.0000
     42 H8          1.1682    0.4081   -2.6166 H         1 <0>         0.0000
     43 H9          2.5168   -0.5272   -1.9670 H         1 <0>         0.0000
     44 H10         7.1585   -6.9289   -3.7871 H         1 <0>         0.0000
     45 H11         6.6257   -6.0564   -5.2171 H         1 <0>         0.0000
     46 H12         8.1492   -4.8740   -2.8303 H         1 <0>         0.0000
     47 H13         8.7893   -5.1228   -4.4477 H         1 <0>         0.0000
     48 H14         4.7141   -6.3336   -3.6641 H         1 <0>         0.0000
     49 H15         5.6310   -5.6167   -2.3480 H         1 <0>         0.0000
     50 H16        -1.3136   -4.7782   -1.1727 H         1 <0>         0.0000
     51 H17         0.3006   -4.5726   -2.0002 H         1 <0>         0.0000
     52 H18        -0.8280   -4.4539   -4.2521 H         1 <0>         0.0000
     53 H19        -2.4651   -4.6620   -3.4656 H         1 <0>         0.0000
     54 H20         8.1463   -2.7379   -4.0797 H         1 <0>         0.0000
     55 H21         7.2152   -3.4726   -5.3940 H         1 <0>         0.0000
     56 H22         4.7398   -4.2035   -4.9258 H         1 <0>         0.0000
     57 H23         4.0657   -3.9606   -3.3147 H         1 <0>         0.0000
     58 H24        -2.0731   -2.5808   -2.0888 H         1 <0>         0.0000
     59 H25         6.2513   -3.0608   -2.5162 H         1 <0>         0.0000
     60 H26        -1.6438   -0.4430  -11.2394 H         1 <0>         0.0000
     61 H27        -0.1987    0.5107  -10.8793 H         1 <0>         0.0000
     62 H28         4.1934   -1.7991   -2.4769 H         1 <0>         0.0000
     63 H29         4.6205   -0.1811   -3.0630 H         1 <0>         0.0000
     64 H30        -1.9076   -0.8893   -8.9301 H         1 <0>         0.0000
     65 H31         6.4006   -1.1295   -4.0016 H         1 <0>         0.0000
     66 H32         5.3043   -1.8383   -5.0555 H         1 <0>         0.0000
@<TRIPOS>BOND
     1    1    3 ar
     2    1    6 ar
     3    1   35 1
     4    2    4 ar
     5    2    8 ar
     6    2   36 1
     7    3    9 ar
     8    3   37 1
     9    4   10 ar
    10    4   38 1
    11    5    8 ar
    12    5   11 ar
    13    5   39 1
    14    6   27 ar
    15    6   40 1
    16    7    9 ar
    17    7   27 ar
    18    7   41 1
    19    8   13 1
    20    9   25 1
    21   10   11 ar
    22   10   28 1
    23   11   29 1
    24   12   15 1
    25   12   28 am
    26   12   32 2
    27   13   30 am
    28   13   33 2
    29   14   26 1
    30   14   29 am
    31   14   34 2
    32   15   29 1
    33   15   42 1
    34   15   43 1
    35   16   18 1
    36   16   17 1
    37   16   44 1
    38   16   45 1
    39   17   21 1
    40   17   46 1
    41   17   47 1
    42   18   22 1
    43   18   48 1
    44   18   49 1
    45   19   20 1
    46   19   23 1
    47   19   50 1
    48   19   51 1
    49   20   23 1
    50   20   52 1
    51   20   53 1
    52   21   24 1
    53   21   54 1
    54   21   55 1
    55   22   24 1
    56   22   56 1
    57   22   57 1
    58   23   28 1
    59   23   58 1
    60   24   31 1
    61   24   59 1
    62   25   30 1
    63   25   60 1
    64   25   61 1
    65   26   31 1
    66   26   62 1
    67   26   63 1
    68   30   64 1
    69   31   65 1
    70   31   66 1
