@<TRIPOS>MOLECULE
*****
   66    68     0     0     0
SMALL
NO_CHARGES

@<TRIPOS>ATOM
      1 C1         -9.7919   -2.0187    7.3218 C.1       1 <0>         0.0000
      2 C2         -7.8975   -3.2228    8.2704 C.ar      1 <0>         0.0000
      3 C3         -6.5294   -3.4439    8.4116 C.ar      1 <0>         0.0000
      4 C4         -6.0830   -1.5945    6.9062 C.ar      1 <0>         0.0000
      5 C5         -8.3711   -2.1960    7.4404 C.ar      1 <0>         0.0000
      6 C6         -7.4474   -1.3766    6.7573 C.ar      1 <0>         0.0000
      7 C7         -5.6260   -2.6334    7.7238 C.ar      1 <0>         0.0000
      8 C8         -3.6089   -2.9042    9.1350 C.2       1 <0>         0.0000
      9 C9         -3.2934   -3.0028    6.8336 C.2       1 <0>         0.0000
     10 C10        -2.2747    1.1519    0.3610 C.2       1 <0>         0.0000
     11 C11        -2.3598   -0.4241    2.2377 C.3       1 <0>         0.0000
     12 C12        -1.4021    1.7727    2.6450 C.3       1 <0>         0.0000
     13 C13        -1.0414   -1.0683    2.6634 C.3       1 <0>         0.0000
     14 C14        -0.0845    1.1101    3.0574 C.3       1 <0>         0.0000
     15 C15        -2.1146   -3.0962    8.8749 C.3       1 <0>         0.0000
     16 C16        -1.6604   -4.4281    9.4935 C.3       1 <0>         0.0000
     17 C17        -1.3331   -1.9073    9.4529 C.3       1 <0>         0.0000
     18 C18        -1.8581    3.9615   -1.9906 C.3       1 <0>         0.0000
     19 C19        -1.8857    2.5576   -0.1207 C.3       1 <0>         0.0000
     20 C20        -0.3869   -1.9214    6.0328 C.3       1 <0>         0.0000
     21 C21         0.6615   -2.1039    4.9314 C.3       1 <0>         0.0000
     22 C22        -0.8470   -3.2581    6.6257 C.3       1 <0>         0.0000
     23 C23         0.9019   -0.8185    4.1278 C.3       1 <0>         0.0000
     24 C24        -7.9323   -0.2514    5.8695 C.3       1 <0>         0.0000
     25 N1        -10.9497   -1.9140    7.2572 N.1       1 <0>         0.0000
     26 N2         -4.2288   -2.8426    7.8888 N.am      1 <0>         0.0000
     27 N3         -2.0758   -3.1303    7.4070 N.pl3     1 <0>         0.0000
     28 N4         -2.1278    0.9197    1.7101 N.am      1 <0>         0.0000
     29 N5         -0.3330   -0.2137    3.6250 N.3       1 <0>         0.0000
     30 O1         -4.1509   -2.8230   10.2201 O.2       1 <0>         0.0000
     31 O2         -2.7086    0.3069   -0.4133 O.2       1 <0>         0.0000
     32 O3         -2.2020    2.6839   -1.4826 O.3       1 <0>         0.0000
     33 F1         -6.9016    0.4346    5.3232 F         1 <0>         0.0000
     34 F2         -8.6938   -0.7119    4.8518 F         1 <0>         0.0000
     35 F3         -8.6816    0.6390    6.5626 F         1 <0>         0.0000
     36 S1         -3.6643   -3.0562    5.2156 S.2       1 <0>         0.0000
     37 H1         -8.6096   -3.8484    8.7981 H         1 <0>         0.0000
     38 H2         -6.1667   -4.2367    9.0557 H         1 <0>         0.0000
     39 H3         -5.3742   -0.9646    6.3857 H         1 <0>         0.0000
     40 H4         -2.8454   -1.0163    1.4635 H         1 <0>         0.0000
     41 H5         -3.0265   -0.3551    3.1056 H         1 <0>         0.0000
     42 H6         -2.0220    1.9210    3.5382 H         1 <0>         0.0000
     43 H7         -1.2067    2.7531    2.2125 H         1 <0>         0.0000
     44 H8         -1.2708   -2.0277    3.1326 H         1 <0>         0.0000
     45 H9         -0.4224   -1.2643    1.7674 H         1 <0>         0.0000
     46 H10         0.5838    1.0601    2.1746 H         1 <0>         0.0000
     47 H11         0.4104    1.7301    3.8136 H         1 <0>         0.0000
     48 H12        -0.5874   -4.5775    9.3447 H         1 <0>         0.0000
     49 H13        -2.1956   -5.2692    9.0439 H         1 <0>         0.0000
     50 H14        -1.8631   -4.4149   10.5672 H         1 <0>         0.0000
     51 H15        -0.2610   -2.0369    9.2800 H         1 <0>         0.0000
     52 H16        -1.5092   -1.8477   10.5298 H         1 <0>         0.0000
     53 H17        -1.6506   -0.9683    8.9918 H         1 <0>         0.0000
     54 H18        -2.1371    3.9683   -3.0463 H         1 <0>         0.0000
     55 H19        -0.7774    4.1557   -1.9029 H         1 <0>         0.0000
     56 H20        -2.4013    4.7658   -1.4701 H         1 <0>         0.0000
     57 H21        -0.8052    2.7147    0.0430 H         1 <0>         0.0000
     58 H22        -2.4190    3.3159    0.4771 H         1 <0>         0.0000
     59 H23        -1.2535   -1.4140    5.6061 H         1 <0>         0.0000
     60 H24         0.0033   -1.2710    6.8247 H         1 <0>         0.0000
     61 H25         1.6216   -2.4264    5.3533 H         1 <0>         0.0000
     62 H26         0.3443   -2.9080    4.2579 H         1 <0>         0.0000
     63 H27        -0.0834   -3.6946    7.2749 H         1 <0>         0.0000
     64 H28        -1.0435   -3.9722    5.8210 H         1 <0>         0.0000
     65 H29         1.3850   -0.0772    4.7762 H         1 <0>         0.0000
     66 H30         1.6123   -1.0351    3.3069 H         1 <0>         0.0000
@<TRIPOS>BOND
     1    1    5 1
     2    1   25 3
     3    2    3 ar
     4    2    5 ar
     5    2   37 1
     6    3    7 ar
     7    3   38 1
     8    4    6 ar
     9    4    7 ar
    10    4   39 1
    11    5    6 ar
    12    6   24 1
    13    7   26 1
    14    8   15 1
    15    8   26 am
    16    8   30 2
    17    9   26 1
    18    9   27 1
    19    9   36 2
    20   10   19 1
    21   10   28 am
    22   10   31 2
    23   11   13 1
    24   11   28 1
    25   11   40 1
    26   11   41 1
    27   12   14 1
    28   12   28 1
    29   12   42 1
    30   12   43 1
    31   13   29 1
    32   13   44 1
    33   13   45 1
    34   14   29 1
    35   14   46 1
    36   14   47 1
    37   15   16 1
    38   15   17 1
    39   15   27 1
    40   16   48 1
    41   16   49 1
    42   16   50 1
    43   17   51 1
    44   17   52 1
    45   17   53 1
    46   18   32 1
    47   18   54 1
    48   18   55 1
    49   18   56 1
    50   19   32 1
    51   19   57 1
    52   19   58 1
    53   20   21 1
    54   20   22 1
    55   20   59 1
    56   20   60 1
    57   21   23 1
    58   21   61 1
    59   21   62 1
    60   22   27 1
    61   22   63 1
    62   22   64 1
    63   23   29 1
    64   23   65 1
    65   23   66 1
    66   24   33 1
    67   24   34 1
    68   24   35 1
