@<TRIPOS>MOLECULE
*****
   57    60     0     0     0
SMALL
NO_CHARGES

@<TRIPOS>ATOM
      1 C1          3.8810    4.1804    8.7197 C.ar      1 <0>         0.0000
      2 C2          3.9126    6.1185    7.2710 C.ar      1 <0>         0.0000
      3 C3          0.9928    0.8058   -2.4738 C.ar      1 <0>         0.0000
      4 C4          3.5334    3.3798    7.6430 C.ar      1 <0>         0.0000
      5 C5          3.5625    5.3194    6.1806 C.ar      1 <0>         0.0000
      6 C6          1.2715    0.7610   -1.1104 C.ar      1 <0>         0.0000
      7 C7          1.3849    4.2926   -3.3902 C.2       1 <0>         0.0000
      8 C8          1.6992    3.1691   -1.0443 C.ar      1 <0>         0.0000
      9 C9          1.0376    3.7269   -4.6061 C.2       1 <0>         0.0000
     10 C10         4.9527    8.2167   10.7573 C.2       1 <0>         0.0000
     11 C11         1.4163    3.2330   -2.4275 C.ar      1 <0>         0.0000
     12 C12         4.0761    5.5662    8.5491 C.ar      1 <0>         0.0000
     13 C13         1.0707    2.0398   -3.1330 C.ar      1 <0>         0.0000
     14 C14         3.3698    3.9405    6.3615 C.ar      1 <0>         0.0000
     15 C15         1.6229    1.9344   -0.4054 C.ar      1 <0>         0.0000
     16 C16         4.9508    7.1747   11.6337 C.2       1 <0>         0.0000
     17 C17         4.4402    6.3864    9.6959 C.2       1 <0>         0.0000
     18 C18         0.7685    1.7170   -6.9721 C.2       1 <0>         0.0000
     19 C19         6.4766    6.2892   13.4386 C.3       1 <0>         0.0000
     20 C20        -1.1501    1.2746   -5.3821 C.3       1 <0>         0.0000
     21 C21         5.2508    7.1540   13.1007 C.3       1 <0>         0.0000
     22 C22         2.4554    2.4179    3.1478 C.3       1 <0>         0.0000
     23 C23         2.8389    3.5824    4.0462 C.3       1 <0>         0.0000
     24 C24         2.2323    2.8787    1.7115 C.3       1 <0>         0.0000
     25 C25         0.3777    1.4089   -5.4759 C.3       1 <0>         0.0000
     26 N1          4.6224    6.0124   10.9363 N.2       1 <0>         0.0000
     27 N2          0.8585    2.3686   -4.4620 N.pl3     1 <0>         0.0000
     28 O1          0.8206    2.9281   -7.3211 O.co2     1 <0>         0.0000
     29 O2          0.9091    0.6734   -7.6576 O.co2     1 <0>         0.0000
     30 O3          4.6262    7.7306    9.5077 O.3       1 <0>         0.0000
     31 O4          3.0273    3.0702    5.3739 O.3       1 <0>         0.0000
     32 O5          1.8760    1.7412    0.9514 O.3       1 <0>         0.0000
     33 H1          4.0068    3.7499    9.7083 H         1 <0>         0.0000
     34 H2          4.0598    7.1841    7.1245 H         1 <0>         0.0000
     35 H3          0.7220   -0.1017   -3.0055 H         1 <0>         0.0000
     36 H4          3.3801    2.3113    7.7622 H         1 <0>         0.0000
     37 H5          3.4440    5.7770    5.2056 H         1 <0>         0.0000
     38 H6          1.2246   -0.1752   -0.5613 H         1 <0>         0.0000
     39 H7          1.6039    5.3399   -3.2206 H         1 <0>         0.0000
     40 H8          1.9669    4.0748   -0.5097 H         1 <0>         0.0000
     41 H9          0.9216    4.1449   -5.5968 H         1 <0>         0.0000
     42 H10         5.1415    9.2771   10.8302 H         1 <0>         0.0000
     43 H11         6.3299    5.2649   13.0848 H         1 <0>         0.0000
     44 H12         6.6470    6.2613   14.5202 H         1 <0>         0.0000
     45 H13         7.3779    6.6853   12.9589 H         1 <0>         0.0000
     46 H14        -1.6228    2.2221   -5.6616 H         1 <0>         0.0000
     47 H15        -1.4727    1.0104   -4.3673 H         1 <0>         0.0000
     48 H16        -1.4863    0.4999   -6.0777 H         1 <0>         0.0000
     49 H17         5.4039    8.1811   13.4498 H         1 <0>         0.0000
     50 H18         4.3747    6.7637   13.6326 H         1 <0>         0.0000
     51 H19         3.2465    1.6617    3.1692 H         1 <0>         0.0000
     52 H20         1.5413    1.9493    3.5256 H         1 <0>         0.0000
     53 H21         3.7685    4.0549    3.7016 H         1 <0>         0.0000
     54 H22         2.0489    4.3452    4.0579 H         1 <0>         0.0000
     55 H23         3.1469    3.3403    1.3077 H         1 <0>         0.0000
     56 H24         1.4333    3.6354    1.6692 H         1 <0>         0.0000
     57 H25         0.8409    0.4506   -5.2325 H         1 <0>         0.0000
@<TRIPOS>BOND
     1    1    4 ar
     2    1   12 ar
     3    1   33 1
     4    2    5 ar
     5    2   12 ar
     6    2   34 1
     7    3    6 ar
     8    3   13 ar
     9    3   35 1
    10    4   14 ar
    11    4   36 1
    12    5   14 ar
    13    5   37 1
    14    6   15 ar
    15    6   38 1
    16    7    9 2
    17    7   11 1
    18    7   39 1
    19    8   11 ar
    20    8   15 ar
    21    8   40 1
    22    9   27 1
    23    9   41 1
    24   10   16 2
    25   10   30 1
    26   10   42 1
    27   11   13 ar
    28   12   17 1
    29   13   27 1
    30   14   31 1
    31   15   32 1
    32   16   21 1
    33   16   26 1
    34   17   26 2
    35   17   30 1
    36   18   25 1
    37   18   28 1
    38   18   29 2
    39   19   21 1
    40   19   43 1
    41   19   44 1
    42   19   45 1
    43   20   25 1
    44   20   46 1
    45   20   47 1
    46   20   48 1
    47   21   49 1
    48   21   50 1
    49   22   23 1
    50   22   24 1
    51   22   51 1
    52   22   52 1
    53   23   31 1
    54   23   53 1
    55   23   54 1
    56   24   32 1
    57   24   55 1
    58   24   56 1
    59   25   27 1
    60   25   57 1
