@<TRIPOS>MOLECULE
*****
   31    33     0     0     0
SMALL
NO_CHARGES

@<TRIPOS>ATOM
      1 C1          1.8874   -1.1763   -0.1309 C.ar      1 <0>         0.0000
      2 C2          0.7380   -3.9722    8.3595 C.ar      1 <0>         0.0000
      3 C3          0.6591   -1.3192    0.5235 C.ar      1 <0>         0.0000
      4 C4          3.0471   -0.9356    0.6145 C.ar      1 <0>         0.0000
      5 C5          1.2196   -2.6597    8.3378 C.ar      1 <0>         0.0000
      6 C6          0.6838   -4.6880    7.1584 C.ar      1 <0>         0.0000
      7 C7          0.5931   -1.2217    1.9169 C.ar      1 <0>         0.0000
      8 C8          2.9765   -0.8368    2.0071 C.ar      1 <0>         0.0000
      9 C9          1.6454   -2.0667    7.1471 C.ar      1 <0>         0.0000
     10 C10         1.0855   -4.0953    5.9615 C.ar      1 <0>         0.0000
     11 C11         1.7488   -0.9732    2.6697 C.ar      1 <0>         0.0000
     12 C12         1.5754   -2.7732    5.9301 C.ar      1 <0>         0.0000
     13 C13         0.6729   -0.0276    4.8273 C.3       1 <0>         0.0000
     14 C14         2.1527    0.3409    4.8479 C.3       1 <0>         0.0000
     15 C15         1.6935   -0.9288    4.1727 C.3       1 <0>         0.0000
     16 N1          2.0387   -2.2515    4.7094 N.pl3     1 <0>         0.0000
     17 H1          1.9403   -1.2491   -1.2142 H         1 <0>         0.0000
     18 H2          0.4169   -4.4289    9.2914 H         1 <0>         0.0000
     19 H3         -0.2451   -1.5044   -0.0508 H         1 <0>         0.0000
     20 H4          4.0039   -0.8235    0.1106 H         1 <0>         0.0000
     21 H5          1.2825   -2.0896    9.2617 H         1 <0>         0.0000
     22 H6          0.3141   -5.7105    7.1485 H         1 <0>         0.0000
     23 H7         -0.3605   -1.3324    2.4278 H         1 <0>         0.0000
     24 H8          3.8747   -0.6493    2.5902 H         1 <0>         0.0000
     25 H9          2.0534   -1.0637    7.1771 H         1 <0>         0.0000
     26 H10         1.0187   -4.6585    5.0321 H         1 <0>         0.0000
     27 H11         0.2229   -0.3583    5.7570 H         1 <0>         0.0000
     28 H12         0.0144    0.5494    4.1850 H         1 <0>         0.0000
     29 H13         2.4794    1.1580    4.2113 H         1 <0>         0.0000
     30 H14         2.6900    0.2631    5.7864 H         1 <0>         0.0000
     31 H15         1.9357   -2.9374    3.9705 H         1 <0>         0.0000
@<TRIPOS>BOND
     1    1    4 ar
     2    1    3 ar
     3    1   17 1
     4    2    6 ar
     5    2    5 ar
     6    2   18 1
     7    3    7 ar
     8    3   19 1
     9    4    8 ar
    10    4   20 1
    11    5    9 ar
    12    5   21 1
    13    6   10 ar
    14    6   22 1
    15    7   11 ar
    16    7   23 1
    17    8   11 ar
    18    8   24 1
    19    9   12 ar
    20    9   25 1
    21   10   12 ar
    22   10   26 1
    23   11   15 1
    24   12   16 1
    25   13   14 1
    26   13   15 1
    27   13   27 1
    28   13   28 1
    29   14   15 1
    30   14   29 1
    31   14   30 1
    32   15   16 1
    33   16   31 1
