@<TRIPOS>MOLECULE
*****
   24    26     0     0     0
SMALL
NO_CHARGES

@<TRIPOS>ATOM
      1 C1          1.4244   -0.9499   -1.3291 C.ar      1 <0>         0.0000
      2 C2          0.1295   -1.0820   -0.7074 C.ar      1 <0>         0.0000
      3 C3          2.3422   -1.9674   -1.3519 C.ar      1 <0>         0.0000
      4 C4         -0.2869   -2.2327   -0.0875 C.ar      1 <0>         0.0000
      5 C5          1.9496   -3.1861   -0.7189 C.ar      1 <0>         0.0000
      6 C6          0.6574   -3.3127   -0.1001 C.ar      1 <0>         0.0000
      7 C7         -2.5343   -3.2496   -0.4049 C.2       1 <0>         0.0000
      8 C8         -2.3621   -1.1301    0.8690 C.2       1 <0>         0.0000
      9 C9         -3.5432   -2.6985   -1.0996 C.2       1 <0>         0.0000
     10 C10        -3.3873   -0.6593    0.1375 C.2       1 <0>         0.0000
     11 C11        -1.6645   -2.4319    0.5384 C.3       1 <0>         0.0000
     12 N1          2.6046   -4.3284   -0.5774 N.2       1 <0>         0.0000
     13 N2          0.5471   -4.5317    0.4058 N.2       1 <0>         0.0000
     14 N3         -3.9033   -1.3530   -0.9593 N.pl3     1 <0>         0.0000
     15 O1          1.7397   -5.1442    0.1110 O.3       1 <0>         0.0000
     16 H1          1.6716    0.0002   -1.7957 H         1 <0>         0.0000
     17 H2         -0.5468   -0.2323   -0.7335 H         1 <0>         0.0000
     18 H3          3.3161   -1.8682   -1.8194 H         1 <0>         0.0000
     19 H4         -2.2917   -4.2965   -0.5522 H         1 <0>         0.0000
     20 H5         -2.0039   -0.5451    1.7105 H         1 <0>         0.0000
     21 H6         -4.1353   -3.2678   -1.8094 H         1 <0>         0.0000
     22 H7         -3.8701    0.2874    0.3607 H         1 <0>         0.0000
     23 H8         -1.5028   -3.0082    1.4591 H         1 <0>         0.0000
     24 H9         -4.8294   -1.0937   -1.2694 H         1 <0>         0.0000
@<TRIPOS>BOND
     1    1    2 ar
     2    1    3 ar
     3    1   16 1
     4    2    4 ar
     5    2   17 1
     6    3    5 ar
     7    3   18 1
     8    4    6 ar
     9    4   11 1
    10    5    6 ar
    11    5   12 2
    12    6   13 2
    13    7    9 2
    14    7   11 1
    15    7   19 1
    16    8   10 2
    17    8   11 1
    18    8   20 1
    19    9   14 1
    20    9   21 1
    21   10   14 1
    22   10   22 1
    23   11   23 1
    24   12   15 1
    25   13   15 1
    26   14   24 1
