@<TRIPOS>MOLECULE
*****
   22    22     0     0     0
SMALL
NO_CHARGES

@<TRIPOS>ATOM
      1 C1         -1.3861   -1.9167    4.9426 C.2       1 <0>         0.0000
      2 C2         -0.9041   -3.1165    4.4654 C.2       1 <0>         0.0000
      3 C3          0.5825   -1.5078    4.1636 C.2       1 <0>         0.0000
      4 C4          3.7510   -1.6000    5.2098 C.2       1 <0>         0.0000
      5 C5          4.5136   -1.4370    6.5125 C.3       1 <0>         0.0000
      6 C6          1.2304   -3.8177    3.3104 C.3       1 <0>         0.0000
      7 C7          1.8558   -0.7874    3.8323 C.3       1 <0>         0.0000
      8 N1         -0.4536   -0.9220    4.7508 N.2       1 <0>         0.0000
      9 N2          0.3613   -2.8503    3.9760 N.pl3     1 <0>         0.0000
     10 N3          2.7644   -0.6837    4.9772 N.am      1 <0>         0.0000
     11 O1          4.0287   -2.4960    4.4073 O.2       1 <0>         0.0000
     12 H1         -2.3435   -1.7176    5.4068 H         1 <0>         0.0000
     13 H2         -1.3314   -4.1087    4.4240 H         1 <0>         0.0000
     14 H3          4.4045   -2.3539    7.0983 H         1 <0>         0.0000
     15 H4          5.5756   -1.3187    6.2822 H         1 <0>         0.0000
     16 H5          4.1812   -0.5859    7.1129 H         1 <0>         0.0000
     17 H6          1.0179   -3.8536    2.2365 H         1 <0>         0.0000
     18 H7          2.2759   -3.5527    3.4738 H         1 <0>         0.0000
     19 H8          1.0521   -4.8066    3.7381 H         1 <0>         0.0000
     20 H9          2.4057   -1.2743    3.0269 H         1 <0>         0.0000
     21 H10         1.5947    0.2234    3.5116 H         1 <0>         0.0000
     22 H11         2.4637   -0.0905    5.7400 H         1 <0>         0.0000
@<TRIPOS>BOND
     1    1    2 2
     2    1    8 1
     3    1   12 1
     4    2    9 1
     5    2   13 1
     6    3    7 1
     7    3    8 2
     8    3    9 1
     9    4    5 1
    10    4   10 am
    11    4   11 2
    12    5   14 1
    13    5   15 1
    14    5   16 1
    15    6    9 1
    16    6   17 1
    17    6   18 1
    18    6   19 1
    19    7   10 1
    20    7   20 1
    21    7   21 1
    22   10   22 1
