@<TRIPOS>MOLECULE
*****
   31    32     0     0     0
SMALL
NO_CHARGES

@<TRIPOS>ATOM
      1 C1          1.5652   -1.3032   -0.0436 C.ar      1 <0>         0.0000
      2 C2          0.7949    3.0404    5.9236 C.ar      1 <0>         0.0000
      3 C3          0.7131   -2.1009    0.7235 C.ar      1 <0>         0.0000
      4 C4          2.0232    2.4452    6.2200 C.ar      1 <0>         0.0000
      5 C5          2.4890   -0.4600    0.5801 C.ar      1 <0>         0.0000
      6 C6         -0.1668    2.3394    5.1908 C.ar      1 <0>         0.0000
      7 C7          0.7879   -2.0378    2.1154 C.ar      1 <0>         0.0000
      8 C8          2.2816    1.1508    5.7677 C.ar      1 <0>         0.0000
      9 C9          2.5968   -0.3815    1.9766 C.ar      1 <0>         0.0000
     10 C10         0.0572    1.0330    4.7311 C.ar      1 <0>         0.0000
     11 C11         1.7134   -1.1863    2.7238 C.ar      1 <0>         0.0000
     12 C12         1.3115    0.4653    5.0321 C.ar      1 <0>         0.0000
     13 C13         3.6208    0.5389    2.5962 C.3       1 <0>         0.0000
     14 C14        -1.0220    0.3194    3.9526 C.3       1 <0>         0.0000
     15 O1          0.6717   -2.1279    4.9696 O.2       1 <0>         0.0000
     16 O2          3.1293   -1.4601    4.9730 O.2       1 <0>         0.0000
     17 S1          1.7448   -1.2190    4.5328 S.o2      1 <0>         0.0000
     18 H1          1.5162   -1.3381   -1.1289 H         1 <0>         0.0000
     19 H2          0.5804    4.0496    6.2654 H         1 <0>         0.0000
     20 H3         -0.0030   -2.7646    0.2472 H         1 <0>         0.0000
     21 H4          2.7738    2.9798    6.7954 H         1 <0>         0.0000
     22 H5          3.1522    0.1499   -0.0284 H         1 <0>         0.0000
     23 H6         -1.1221    2.8109    4.9736 H         1 <0>         0.0000
     24 H7          0.1371   -2.6400    2.7409 H         1 <0>         0.0000
     25 H8          3.2274    0.6611    5.9756 H         1 <0>         0.0000
     26 H9          3.1396    1.3750    3.1137 H         1 <0>         0.0000
     27 H10         4.2333    0.0116    3.3307 H         1 <0>         0.0000
     28 H11         4.2728    0.9529    1.8235 H         1 <0>         0.0000
     29 H12        -0.7287    0.1795    2.9072 H         1 <0>         0.0000
     30 H13        -1.2217   -0.6701    4.3693 H         1 <0>         0.0000
     31 H14        -1.9459    0.9022    3.9670 H         1 <0>         0.0000
@<TRIPOS>BOND
     1    1    3 ar
     2    1    5 ar
     3    1   18 1
     4    2    4 ar
     5    2    6 ar
     6    2   19 1
     7    3    7 ar
     8    3   20 1
     9    4    8 ar
    10    4   21 1
    11    5    9 ar
    12    5   22 1
    13    6   10 ar
    14    6   23 1
    15    7   11 ar
    16    7   24 1
    17    8   12 ar
    18    8   25 1
    19    9   11 ar
    20    9   13 1
    21   10   12 ar
    22   10   14 1
    23   11   17 1
    24   12   17 1
    25   13   26 1
    26   13   27 1
    27   13   28 1
    28   14   29 1
    29   14   30 1
    30   14   31 1
    31   15   17 2
    32   16   17 2
