@<TRIPOS>MOLECULE
*****
   22    22     0     0     0
SMALL
NO_CHARGES

@<TRIPOS>ATOM
      1 C1         -1.3855   -2.0691    5.4062 C.2       1 <0>         0.0000
      2 C2         -0.8987   -2.9626    4.4766 C.2       1 <0>         0.0000
      3 C3          0.5217   -1.2931    4.7661 C.2       1 <0>         0.0000
      4 C4          1.7350    0.6362    2.3305 C.2       1 <0>         0.0000
      5 C5          1.2559    1.7864    1.4629 C.3       1 <0>         0.0000
      6 C6          1.2305   -3.1058    3.1245 C.3       1 <0>         0.0000
      7 C7          1.6940   -0.3730    4.5951 C.3       1 <0>         0.0000
      8 N1         -0.4948   -1.0335    5.5791 N.2       1 <0>         0.0000
      9 N2          0.3191   -2.4554    4.0630 N.pl3     1 <0>         0.0000
     10 N3          1.4253    0.7215    3.6587 N.am      1 <0>         0.0000
     11 O1          2.3797   -0.3041    1.8574 O.2       1 <0>         0.0000
     12 H1         -2.3174   -2.1160    5.9550 H         1 <0>         0.0000
     13 H2         -1.2904   -3.8901    4.0827 H         1 <0>         0.0000
     14 H3          2.1149    2.2039    0.9317 H         1 <0>         0.0000
     15 H4          0.5642    1.3934    0.7124 H         1 <0>         0.0000
     16 H5          0.7597    2.5828    2.0242 H         1 <0>         0.0000
     17 H6          1.8124   -2.3540    2.5896 H         1 <0>         0.0000
     18 H7          1.9018   -3.7929    3.6508 H         1 <0>         0.0000
     19 H8          0.6447   -3.6729    2.3980 H         1 <0>         0.0000
     20 H9          1.9237    0.0616    5.5704 H         1 <0>         0.0000
     21 H10         2.5784   -0.8974    4.2335 H         1 <0>         0.0000
     22 H11         0.7485    1.4132    3.9551 H         1 <0>         0.0000
@<TRIPOS>BOND
     1    1    2 2
     2    1    8 1
     3    1   12 1
     4    2    9 1
     5    2   13 1
     6    3    7 1
     7    3    8 2
     8    3    9 1
     9    4    5 1
    10    4   10 am
    11    4   11 2
    12    5   14 1
    13    5   15 1
    14    5   16 1
    15    6    9 1
    16    6   17 1
    17    6   18 1
    18    6   19 1
    19    7   10 1
    20    7   20 1
    21    7   21 1
    22   10   22 1
