@<TRIPOS>MOLECULE
*****
   28    29     0     0     0
SMALL
NO_CHARGES

@<TRIPOS>ATOM
      1 C1         -0.4494    2.3341   -1.2783 C.2       1 <0>         0.0000
      2 C2         -1.3229    1.7289   -0.3307 C.2       1 <0>         0.0000
      3 C3          0.7219    1.6933   -1.5760 C.2       1 <0>         0.0000
      4 C4         -1.0209    0.5371    0.2803 C.2       1 <0>         0.0000
      5 C5          0.2282   -0.1529   -0.0330 C.2       1 <0>         0.0000
      6 C6         -3.2678   -0.5675    0.7043 C.3       1 <0>         0.0000
      7 C7         -2.1135    0.6836    2.5680 C.3       1 <0>         0.0000
      8 C8         -4.1024   -1.3330    1.7246 C.3       1 <0>         0.0000
      9 C9         -2.9411   -0.0742    3.5998 C.3       1 <0>         0.0000
     10 C10        -1.9060   -0.1524    1.2915 C.3       1 <0>         0.0000
     11 N1          1.0290    0.5085   -0.9731 N.am      1 <0>         0.0000
     12 N2         -4.2680   -0.4965    2.9853 N.4       1 <0>         0.0000
     13 O1          0.5946   -1.2263    0.4583 O.2       1 <0>         0.0000
     14 H1         -0.6940    3.2745   -1.7565 H         1 <0>         0.0000
     15 H2         -2.2556    2.2396   -0.0939 H         1 <0>         0.0000
     16 H3          1.4486    2.0771   -2.2842 H         1 <0>         0.0000
     17 H4         -3.1225   -1.2176   -0.1630 H         1 <0>         0.0000
     18 H5         -3.8256    0.3089    0.3495 H         1 <0>         0.0000
     19 H6         -2.5958    1.6420    2.3353 H         1 <0>         0.0000
     20 H7         -1.1487    0.9220    3.0242 H         1 <0>         0.0000
     21 H8         -5.1060   -1.5694    1.3641 H         1 <0>         0.0000
     22 H9         -3.6100   -2.2565    2.0385 H         1 <0>         0.0000
     23 H10        -2.4479   -0.9969    3.9148 H         1 <0>         0.0000
     24 H11        -3.1743    0.5244    4.4831 H         1 <0>         0.0000
     25 H12        -1.3690   -1.0659    1.5721 H         1 <0>         0.0000
     26 H13         1.8996    0.0327   -1.1948 H         1 <0>         0.0000
     27 H14        -4.8225   -1.0143    3.6764 H         1 <0>         0.0000
     28 H15        -4.8073    0.3458    2.7538 H         1 <0>         0.0000
@<TRIPOS>BOND
     1    1    2 1
     2    1    3 2
     3    1   14 1
     4    2    4 2
     5    2   15 1
     6    3   11 1
     7    3   16 1
     8    4    5 1
     9    4   10 1
    10    5   11 am
    11    5   13 2
    12    6    8 1
    13    6   10 1
    14    6   17 1
    15    6   18 1
    16    7    9 1
    17    7   10 1
    18    7   19 1
    19    7   20 1
    20    8   12 1
    21    8   21 1
    22    8   22 1
    23    9   12 1
    24    9   23 1
    25    9   24 1
    26   10   25 1
    27   11   26 1
    28   12   27 1
    29   12   28 1
