@<TRIPOS>MOLECULE
*****
   31    33     0     0     0
SMALL
NO_CHARGES

@<TRIPOS>ATOM
      1 C1          2.7382   -1.0346    0.3968 C.ar      1 <0>         0.0000
      2 C2          5.6244   -3.1759    6.1731 C.ar      1 <0>         0.0000
      3 C3          1.7942   -1.9556    0.8682 C.ar      1 <0>         0.0000
      4 C4          3.2204   -0.0439    1.2553 C.ar      1 <0>         0.0000
      5 C5          5.3304   -1.8481    5.8492 C.ar      1 <0>         0.0000
      6 C6          4.5854   -4.1144    6.1776 C.ar      1 <0>         0.0000
      7 C7          1.3422   -1.8794    2.1861 C.ar      1 <0>         0.0000
      8 C8          2.7649    0.0251    2.5766 C.ar      1 <0>         0.0000
      9 C9          4.0278   -1.4538    5.5341 C.ar      1 <0>         0.0000
     10 C10         3.2817   -3.7316    5.8649 C.ar      1 <0>         0.0000
     11 C11         1.8202   -0.8884    3.0581 C.ar      1 <0>         0.0000
     12 C12         2.9817   -2.3944    5.5410 C.ar      1 <0>         0.0000
     13 C13        -0.0385   -0.2883    4.7731 C.3       1 <0>         0.0000
     14 C14         1.2049    0.4351    5.2387 C.3       1 <0>         0.0000
     15 C15         1.3298   -0.8717    4.4850 C.3       1 <0>         0.0000
     16 N1          1.6492   -2.0318    5.2885 N.pl3     1 <0>         0.0000
     17 H1          3.0930   -1.0913   -0.6290 H         1 <0>         0.0000
     18 H2          6.6407   -3.4752    6.4133 H         1 <0>         0.0000
     19 H3          1.4103   -2.7282    0.2067 H         1 <0>         0.0000
     20 H4          3.9573    0.6724    0.9002 H         1 <0>         0.0000
     21 H5          6.1242   -1.1049    5.8367 H         1 <0>         0.0000
     22 H6          4.7906   -5.1538    6.4227 H         1 <0>         0.0000
     23 H7          0.6030   -2.5943    2.5425 H         1 <0>         0.0000
     24 H8          3.1544    0.7948    3.2371 H         1 <0>         0.0000
     25 H9          3.8239   -0.4189    5.2875 H         1 <0>         0.0000
     26 H10         2.4828   -4.4714    5.8716 H         1 <0>         0.0000
     27 H11        -0.6426   -0.7901    5.5231 H         1 <0>         0.0000
     28 H12        -0.5845    0.1297    3.9334 H         1 <0>         0.0000
     29 H13         1.4739    1.3545    4.7290 H         1 <0>         0.0000
     30 H14         1.4368    0.4055    6.2978 H         1 <0>         0.0000
     31 H15         1.0643   -2.8311    5.0695 H         1 <0>         0.0000
@<TRIPOS>BOND
     1    1    4 ar
     2    1    3 ar
     3    1   17 1
     4    2    6 ar
     5    2    5 ar
     6    2   18 1
     7    3    7 ar
     8    3   19 1
     9    4    8 ar
    10    4   20 1
    11    5    9 ar
    12    5   21 1
    13    6   10 ar
    14    6   22 1
    15    7   11 ar
    16    7   23 1
    17    8   11 ar
    18    8   24 1
    19    9   12 ar
    20    9   25 1
    21   10   12 ar
    22   10   26 1
    23   11   15 1
    24   12   16 1
    25   13   14 1
    26   13   15 1
    27   13   27 1
    28   13   28 1
    29   14   15 1
    30   14   29 1
    31   14   30 1
    32   15   16 1
    33   16   31 1
