@<TRIPOS>MOLECULE
*****
   18    18     0     0     0
SMALL
NO_CHARGES

@<TRIPOS>ATOM
      1 C1          1.8263   -1.2082   -0.1715 C.ar      1 <0>         0.0000
      2 C2          0.7607   -0.6105    0.5136 C.ar      1 <0>         0.0000
      3 C3          2.9214   -1.6713    0.5490 C.ar      1 <0>         0.0000
      4 C4          0.8064   -0.4858    1.9001 C.ar      1 <0>         0.0000
      5 C5          2.9988   -1.5619    1.9513 C.ar      1 <0>         0.0000
      6 C6          1.9144   -0.9560    2.6220 C.ar      1 <0>         0.0000
      7 C7          4.2426   -2.1071    2.6018 C.2       1 <0>         0.0000
      8 C8          4.4147   -2.0691    4.1054 C.3       1 <0>         0.0000
      9 O1          5.1253   -2.5900    1.8978 O.2       1 <0>         0.0000
     10 O2          1.9471   -0.8251    3.9884 O.3       1 <0>         0.0000
     11 H1          1.7976   -1.3088   -1.2525 H         1 <0>         0.0000
     12 H2         -0.1057   -0.2409   -0.0288 H         1 <0>         0.0000
     13 H3          3.7630   -2.1384    0.0477 H         1 <0>         0.0000
     14 H4         -0.0216   -0.0203    2.4331 H         1 <0>         0.0000
     15 H5          3.5966   -2.5951    4.6058 H         1 <0>         0.0000
     16 H6          4.3877   -1.0391    4.4728 H         1 <0>         0.0000
     17 H7          5.3708   -2.5327    4.3531 H         1 <0>         0.0000
     18 H8          1.1293   -0.3894    4.2779 H         1 <0>         0.0000
@<TRIPOS>BOND
     1    1    2 ar
     2    1    3 ar
     3    1   11 1
     4    2    4 ar
     5    2   12 1
     6    3    5 ar
     7    3   13 1
     8    4    6 ar
     9    4   14 1
    10    5    6 ar
    11    5    7 1
    12    6   10 1
    13    7    8 1
    14    7    9 2
    15    8   15 1
    16    8   16 1
    17    8   17 1
    18   10   18 1
