@<TRIPOS>MOLECULE
*****
   31    32     0     0     0
SMALL
NO_CHARGES

@<TRIPOS>ATOM
      1 C1          4.9179    0.0295   -0.3434 C.ar      1 <0>         0.0000
      2 C2          5.4916   -0.3309    0.8809 C.ar      1 <0>         0.0000
      3 C3          3.6090   -0.3641   -0.6270 C.ar      1 <0>         0.0000
      4 C4          4.7567   -1.0726    1.8074 C.ar      1 <0>         0.0000
      5 C5          2.8542   -1.1130    0.2840 C.ar      1 <0>         0.0000
      6 C6          3.4425   -1.4588    1.5104 C.ar      1 <0>         0.0000
      7 C7         -0.2952    1.6747    1.1002 C.3       1 <0>         0.0000
      8 C8         -1.5686    1.7548    0.2477 C.3       1 <0>         0.0000
      9 C9          0.2480    0.2499    1.2228 C.3       1 <0>         0.0000
     10 C10        -1.3490    1.1994   -1.1626 C.3       1 <0>         0.0000
     11 C11         1.4385   -1.5156   -0.0609 C.3       1 <0>         0.0000
     12 N1          0.5760   -0.3072   -0.1099 N.pl3     1 <0>         0.0000
     13 O1         -1.8531   -1.2896   -0.3708 O.2       1 <0>         0.0000
     14 O2         -0.3493   -0.9790   -2.3940 O.2       1 <0>         0.0000
     15 O3          2.6798   -2.1752    2.4076 O.3       1 <0>         0.0000
     16 S1         -0.8106   -0.5240   -1.0770 S.o2      1 <0>         0.0000
     17 H1          5.4864    0.6059   -1.0675 H         1 <0>         0.0000
     18 H2          6.5104   -0.0363    1.1183 H         1 <0>         0.0000
     19 H3          3.1460   -0.0882   -1.5713 H         1 <0>         0.0000
     20 H4          5.2012   -1.3502    2.7622 H         1 <0>         0.0000
     21 H5          0.4847    2.3070    0.6600 H         1 <0>         0.0000
     22 H6         -0.5017    2.0598    2.1046 H         1 <0>         0.0000
     23 H7         -2.3787    1.1940    0.7252 H         1 <0>         0.0000
     24 H8         -1.9017    2.7947    0.1603 H         1 <0>         0.0000
     25 H9          1.1823    0.2591    1.7885 H         1 <0>         0.0000
     26 H10        -0.4586   -0.4032    1.7544 H         1 <0>         0.0000
     27 H11        -2.2692    1.1790   -1.7525 H         1 <0>         0.0000
     28 H12        -0.5712    1.7311   -1.7150 H         1 <0>         0.0000
     29 H13         1.4213   -1.9653   -1.0555 H         1 <0>         0.0000
     30 H14         1.0509   -2.2461    0.6556 H         1 <0>         0.0000
     31 H15         3.2148   -2.3661    3.1940 H         1 <0>         0.0000
@<TRIPOS>BOND
     1    1    2 ar
     2    1    3 ar
     3    1   17 1
     4    2    4 ar
     5    2   18 1
     6    3    5 ar
     7    3   19 1
     8    4    6 ar
     9    4   20 1
    10    5    6 ar
    11    5   11 1
    12    6   15 1
    13    7    8 1
    14    7    9 1
    15    7   21 1
    16    7   22 1
    17    8   10 1
    18    8   23 1
    19    8   24 1
    20    9   12 1
    21    9   25 1
    22    9   26 1
    23   10   16 1
    24   10   27 1
    25   10   28 1
    26   11   12 1
    27   11   29 1
    28   11   30 1
    29   12   16 1
    30   13   16 2
    31   14   16 2
    32   15   31 1
