@<TRIPOS>MOLECULE
*****
   30    31     0     0     0
SMALL
NO_CHARGES

@<TRIPOS>ATOM
      1 C1         -1.1538   -3.5445   -4.4435 C.ar      1 <0>         0.0000
      2 C2         -1.6534   -3.6661   -3.1401 C.ar      1 <0>         0.0000
      3 C3         -0.0256   -2.7553   -4.6809 C.ar      1 <0>         0.0000
      4 C4         -1.0265   -3.0051   -2.0827 C.ar      1 <0>         0.0000
      5 C5          0.5995   -2.0909   -3.6186 C.ar      1 <0>         0.0000
      6 C6          0.1092   -2.2150   -2.3142 C.ar      1 <0>         0.0000
      7 C7          0.1701    1.6343   -1.0875 C.3       1 <0>         0.0000
      8 C8          0.6310    2.0997    0.3041 C.3       1 <0>         0.0000
      9 C9         -0.7784    0.4280   -1.0184 C.3       1 <0>         0.0000
     10 C10         1.3361    0.9901    1.0967 C.3       1 <0>         0.0000
     11 C11         0.7982   -1.5206   -1.1586 C.3       1 <0>         0.0000
     12 N1         -0.1789   -0.7561   -0.3592 N.pl3     1 <0>         0.0000
     13 O1          1.0045   -1.5978    1.7411 O.2       1 <0>         0.0000
     14 O2         -0.9770    0.0029    1.9278 O.2       1 <0>         0.0000
     15 S1          0.2402   -0.4492    1.2484 S.o2      1 <0>         0.0000
     16 H1         -1.6433   -4.0591   -5.2663 H         1 <0>         0.0000
     17 H2         -2.5320   -4.2774   -2.9503 H         1 <0>         0.0000
     18 H3          0.3655   -2.6517   -5.6898 H         1 <0>         0.0000
     19 H4         -1.4174   -3.0857   -1.0718 H         1 <0>         0.0000
     20 H5          1.4748   -1.4728   -3.8085 H         1 <0>         0.0000
     21 H6         -0.3468    2.4569   -1.5935 H         1 <0>         0.0000
     22 H7          1.0430    1.3877   -1.7045 H         1 <0>         0.0000
     23 H8          1.3215    2.9447    0.2089 H         1 <0>         0.0000
     24 H9         -0.2300    2.4498    0.8825 H         1 <0>         0.0000
     25 H10        -1.6853    0.6847   -0.4659 H         1 <0>         0.0000
     26 H11        -1.0817    0.1096   -2.0186 H         1 <0>         0.0000
     27 H12         2.2445    0.6319    0.6034 H         1 <0>         0.0000
     28 H13         1.5823    1.2969    2.1166 H         1 <0>         0.0000
     29 H14         1.2474   -2.2590   -0.4917 H         1 <0>         0.0000
     30 H15         1.6087   -0.8834   -1.5405 H         1 <0>         0.0000
@<TRIPOS>BOND
     1    1    3 ar
     2    1    2 ar
     3    1   16 1
     4    2    4 ar
     5    2   17 1
     6    3    5 ar
     7    3   18 1
     8    4    6 ar
     9    4   19 1
    10    5    6 ar
    11    5   20 1
    12    6   11 1
    13    7    8 1
    14    7    9 1
    15    7   21 1
    16    7   22 1
    17    8   10 1
    18    8   23 1
    19    8   24 1
    20    9   12 1
    21    9   25 1
    22    9   26 1
    23   10   15 1
    24   10   27 1
    25   10   28 1
    26   11   12 1
    27   11   29 1
    28   11   30 1
    29   12   15 1
    30   13   15 2
    31   14   15 2
