@<TRIPOS>MOLECULE
*****
   25    26     0     0     0
SMALL
NO_CHARGES

@<TRIPOS>ATOM
      1 C1          2.6004   -1.1717    0.0420 C.ar      1 <0>         0.0000
      2 C2          2.1683   -2.4062    0.5410 C.ar      1 <0>         0.0000
      3 C3          2.6432   -0.0544    0.8834 C.ar      1 <0>         0.0000
      4 C4          1.7810   -2.5241    1.8766 C.ar      1 <0>         0.0000
      5 C5          2.2358   -0.1658    2.2144 C.ar      1 <0>         0.0000
      6 C6          0.1828   -0.0809    8.1978 C.2       1 <0>         0.0000
      7 C7          1.4414   -0.5902    8.2019 C.2       1 <0>         0.0000
      8 C8          1.7967   -1.4008    2.7156 C.ar      1 <0>         0.0000
      9 C9          0.7099   -0.4686    6.1722 C.2       1 <0>         0.0000
     10 C10         1.4378   -1.5913    4.1566 C.2       1 <0>         0.0000
     11 C11        -0.2599    0.2769    4.0971 C.3       1 <0>         0.0000
     12 N1         -0.2802   -0.0063    6.8838 N.2       1 <0>         0.0000
     13 N2          0.7781   -0.5133    4.7848 N.am      1 <0>         0.0000
     14 O1          1.7384   -2.6104    4.7609 O.2       1 <0>         0.0000
     15 O2          1.8007   -0.8331    6.8902 O.3       1 <0>         0.0000
     16 H1          2.9100   -1.0825   -0.9961 H         1 <0>         0.0000
     17 H2          2.1418   -3.2765   -0.1092 H         1 <0>         0.0000
     18 H3          2.9967    0.9007    0.5040 H         1 <0>         0.0000
     19 H4          1.4694   -3.4803    2.2858 H         1 <0>         0.0000
     20 H5          2.2788    0.6992    2.8705 H         1 <0>         0.0000
     21 H6         -0.4281    0.2309    9.0339 H         1 <0>         0.0000
     22 H7          2.1712   -0.8461    8.9547 H         1 <0>         0.0000
     23 H8         -0.0998    1.3433    4.2744 H         1 <0>         0.0000
     24 H9         -1.2459    0.0036    4.4807 H         1 <0>         0.0000
     25 H10        -0.2175    0.0740    3.0300 H         1 <0>         0.0000
@<TRIPOS>BOND
     1    1    3 ar
     2    1    2 ar
     3    1   16 1
     4    2    4 ar
     5    2   17 1
     6    3    5 ar
     7    3   18 1
     8    4    8 ar
     9    4   19 1
    10    5    8 ar
    11    5   20 1
    12    6    7 2
    13    6   12 1
    14    6   21 1
    15    7   15 1
    16    7   22 1
    17    8   10 1
    18    9   12 2
    19    9   13 1
    20    9   15 1
    21   10   13 am
    22   10   14 2
    23   11   13 1
    24   11   23 1
    25   11   24 1
    26   11   25 1
