@<TRIPOS>MOLECULE
*****
   25    26     0     0     0
SMALL
NO_CHARGES

@<TRIPOS>ATOM
      1 C1          1.6773   -1.4695   -0.6310 C.ar      1 <0>         0.0000
      2 C2          1.4988   -2.7333   -0.0563 C.ar      1 <0>         0.0000
      3 C3          1.7081   -0.3311    0.1820 C.ar      1 <0>         0.0000
      4 C4          1.3501   -2.8579    1.3256 C.ar      1 <0>         0.0000
      5 C5          1.5406   -0.4514    1.5628 C.ar      1 <0>         0.0000
      6 C6         -1.6523    1.5523    3.3552 C.2       1 <0>         0.0000
      7 C7         -2.0541    0.4870    2.6122 C.2       1 <0>         0.0000
      8 C8          1.3524   -1.7169    2.1394 C.ar      1 <0>         0.0000
      9 C9         -0.3516   -0.0659    3.8356 C.2       1 <0>         0.0000
     10 C10         1.2409   -1.9133    3.6191 C.2       1 <0>         0.0000
     11 C11         0.7629   -0.9403    5.8291 C.3       1 <0>         0.0000
     12 N1         -0.5541    1.1864    4.1312 N.2       1 <0>         0.0000
     13 N2          0.6075   -0.9152    4.3656 N.am      1 <0>         0.0000
     14 O1          1.7388   -2.8819    4.1836 O.2       1 <0>         0.0000
     15 O2         -1.2370   -0.5770    2.9322 O.3       1 <0>         0.0000
     16 H1          1.8004   -1.3730   -1.7067 H         1 <0>         0.0000
     17 H2          1.4830   -3.6198   -0.6847 H         1 <0>         0.0000
     18 H3          1.8656    0.6498   -0.2586 H         1 <0>         0.0000
     19 H4          1.2332   -3.8325    1.7895 H         1 <0>         0.0000
     20 H5          1.5776    0.4365    2.1874 H         1 <0>         0.0000
     21 H6         -2.0598    2.5537    3.3829 H         1 <0>         0.0000
     22 H7         -2.8174    0.3049    1.8712 H         1 <0>         0.0000
     23 H8          0.0795   -1.6667    6.2807 H         1 <0>         0.0000
     24 H9          0.5541    0.0583    6.2116 H         1 <0>         0.0000
     25 H10         1.7863   -1.2287    6.0672 H         1 <0>         0.0000
@<TRIPOS>BOND
     1    1    3 ar
     2    1    2 ar
     3    1   16 1
     4    2    4 ar
     5    2   17 1
     6    3    5 ar
     7    3   18 1
     8    4    8 ar
     9    4   19 1
    10    5    8 ar
    11    5   20 1
    12    6    7 2
    13    6   12 1
    14    6   21 1
    15    7   15 1
    16    7   22 1
    17    8   10 1
    18    9   12 2
    19    9   13 1
    20    9   15 1
    21   10   13 am
    22   10   14 2
    23   11   13 1
    24   11   23 1
    25   11   24 1
    26   11   25 1
