@<TRIPOS>MOLECULE
*****
   25    26     0     0     0
SMALL
NO_CHARGES

@<TRIPOS>ATOM
      1 C1          4.6521    0.0233   -1.0085 C.ar      1 <0>         0.0000
      2 C2          4.5250   -0.5677   -2.2690 C.ar      1 <0>         0.0000
      3 C3          3.5829    0.7349   -0.4613 C.ar      1 <0>         0.0000
      4 C4          3.3265   -0.4315   -2.9683 C.ar      1 <0>         0.0000
      5 C5          2.3705    0.9127   -1.1453 C.ar      1 <0>         0.0000
      6 C6          2.2879    0.3165   -2.4124 C.ar      1 <0>         0.0000
      7 C7         -0.1183    1.0447   -0.6395 C.2       1 <0>         0.0000
      8 C8          1.2000    3.1394   -0.9061 C.2       1 <0>         0.0000
      9 C9         -1.1434    1.6707   -1.2419 C.2       1 <0>         0.0000
     10 C10         0.1269    3.6838   -1.5000 C.2       1 <0>         0.0000
     11 C11         1.2409    1.6891   -0.4555 C.3       1 <0>         0.0000
     12 N1         -1.0734    2.9938   -1.6642 N.pl3     1 <0>         0.0000
     13 N2          1.0896    0.4423   -3.2717 N.pl3     1 <0>         0.0000
     14 O1          0.5250   -0.6049   -3.6044 O.3       1 <0>         0.0000
     15 O2          0.7770    1.5693   -3.6613 O.2       1 <0>         0.0000
     16 H1          5.5756   -0.0832   -0.4458 H         1 <0>         0.0000
     17 H2          5.3437   -1.1355   -2.7013 H         1 <0>         0.0000
     18 H3          3.6783    1.1626    0.5343 H         1 <0>         0.0000
     19 H4          3.1889   -0.8919   -3.9417 H         1 <0>         0.0000
     20 H5         -0.2587    0.0286   -0.2839 H         1 <0>         0.0000
     21 H6          2.0898    3.7449   -0.7641 H         1 <0>         0.0000
     22 H7         -2.0984    1.1802   -1.4036 H         1 <0>         0.0000
     23 H8          0.1243    4.7102   -1.8539 H         1 <0>         0.0000
     24 H9          1.5068    1.6597    0.6119 H         1 <0>         0.0000
     25 H10        -1.6959    3.2906   -2.4022 H         1 <0>         0.0000
@<TRIPOS>BOND
     1    1    2 ar
     2    1    3 ar
     3    1   16 1
     4    2    4 ar
     5    2   17 1
     6    3    5 ar
     7    3   18 1
     8    4    6 ar
     9    4   19 1
    10    5    6 ar
    11    5   11 1
    12    6   13 1
    13    7    9 2
    14    7   11 1
    15    7   20 1
    16    8   10 2
    17    8   11 1
    18    8   21 1
    19    9   12 1
    20    9   22 1
    21   10   12 1
    22   10   23 1
    23   11   24 1
    24   12   25 1
    25   13   14 1
    26   13   15 2
