@<TRIPOS>MOLECULE
*****
   23    24     0     0     0
SMALL
NO_CHARGES

@<TRIPOS>ATOM
      1 C1          2.2391   -1.1318   -0.1303 C.ar      1 <0>         0.0000
      2 C2          1.0660   -0.4606    0.2384 C.ar      1 <0>         0.0000
      3 C3          2.3065    2.4407    4.9100 C.ar      1 <0>         0.0000
      4 C4          1.8883    2.3786    6.2432 C.ar      1 <0>         0.0000
      5 C5          3.0572   -1.7243    0.8345 C.ar      1 <0>         0.0000
      6 C6          0.7136   -0.3754    1.5887 C.ar      1 <0>         0.0000
      7 C7          2.1003    1.3448    4.0735 C.ar      1 <0>         0.0000
      8 C8          1.2801    1.2006    6.6801 C.ar      1 <0>         0.0000
      9 C9          2.7081   -1.6388    2.1865 C.ar      1 <0>         0.0000
     10 C10         1.5401   -0.9524    2.5489 C.ar      1 <0>         0.0000
     11 C11         1.4709    0.2204    4.6294 C.ar      1 <0>         0.0000
     12 N1          1.0729    0.1354    5.8927 N.ar      1 <0>         0.0000
     13 O1          3.5072   -2.2161    3.1312 O.3       1 <0>         0.0000
     14 O2          1.2190   -0.9317    3.9070 O.3       1 <0>         0.0000
     15 H1          2.5165   -1.2024   -1.1785 H         1 <0>         0.0000
     16 H2          0.4279   -0.0129   -0.5176 H         1 <0>         0.0000
     17 H3          2.7925    3.3318    4.5213 H         1 <0>         0.0000
     18 H4          2.0305    3.2119    6.9241 H         1 <0>         0.0000
     19 H5          3.9630   -2.2574    0.5612 H         1 <0>         0.0000
     20 H6         -0.1908    0.1349    1.9079 H         1 <0>         0.0000
     21 H7          2.4155    1.3585    3.0370 H         1 <0>         0.0000
     22 H8          0.9417    1.0998    7.7100 H         1 <0>         0.0000
     23 H9          3.0488   -2.1447    3.9883 H         1 <0>         0.0000
@<TRIPOS>BOND
     1    1    2 ar
     2    1    5 ar
     3    1   15 1
     4    2    6 ar
     5    2   16 1
     6    3    4 ar
     7    3    7 ar
     8    3   17 1
     9    4    8 ar
    10    4   18 1
    11    5    9 ar
    12    5   19 1
    13    6   10 ar
    14    6   20 1
    15    7   11 ar
    16    7   21 1
    17    8   12 ar
    18    8   22 1
    19    9   10 ar
    20    9   13 1
    21   10   14 1
    22   11   12 ar
    23   11   14 1
    24   13   23 1
