@<TRIPOS>MOLECULE
*****
   31    32     0     0     0
SMALL
NO_CHARGES

@<TRIPOS>ATOM
      1 C1          4.3328   -0.6753    2.7085 C.ar      1 <0>         0.0000
      2 C2          4.1897   -1.6794    3.6726 C.ar      1 <0>         0.0000
      3 C3          3.4614   -0.6440    1.6186 C.ar      1 <0>         0.0000
      4 C4          3.1806   -2.6350    3.5423 C.ar      1 <0>         0.0000
      5 C5          2.4455   -1.5952    1.4640 C.ar      1 <0>         0.0000
      6 C6          2.3107   -2.5904    2.4442 C.ar      1 <0>         0.0000
      7 C7         -0.9887    0.9546    1.7196 C.3       1 <0>         0.0000
      8 C8         -1.5863    1.6599    0.4949 C.3       1 <0>         0.0000
      9 C9         -0.4084   -0.4213    1.3876 C.3       1 <0>         0.0000
     10 C10        -0.5577    1.8282   -0.6273 C.3       1 <0>         0.0000
     11 C11         1.5202   -1.5232    0.2707 C.3       1 <0>         0.0000
     12 N1          0.6674   -0.3114    0.3753 N.pl3     1 <0>         0.0000
     13 O1         -1.0607   -0.5999   -1.5904 O.2       1 <0>         0.0000
     14 O2          1.2432    0.3817   -2.0147 O.2       1 <0>         0.0000
     15 O3          1.2913   -3.5057    2.2924 O.3       1 <0>         0.0000
     16 S1          0.0799    0.2150   -1.1355 S.o2      1 <0>         0.0000
     17 H1          5.1169    0.0702    2.8051 H         1 <0>         0.0000
     18 H2          4.8607   -1.7217    4.5265 H         1 <0>         0.0000
     19 H3          3.5555    0.1326    0.8633 H         1 <0>         0.0000
     20 H4          3.0656   -3.4149    4.2939 H         1 <0>         0.0000
     21 H5         -0.1923    1.5727    2.1502 H         1 <0>         0.0000
     22 H6         -1.7615    0.8343    2.4864 H         1 <0>         0.0000
     23 H7         -2.4383    1.0904    0.1095 H         1 <0>         0.0000
     24 H8         -1.9584    2.6521    0.7726 H         1 <0>         0.0000
     25 H9          0.0541   -0.8508    2.2791 H         1 <0>         0.0000
     26 H10        -1.1914   -1.1149    1.0498 H         1 <0>         0.0000
     27 H11        -0.9930    2.2581   -1.5332 H         1 <0>         0.0000
     28 H12         0.3127    2.4147   -0.3250 H         1 <0>         0.0000
     29 H13         2.1117   -1.4240   -0.6416 H         1 <0>         0.0000
     30 H14         0.9097   -2.4275    0.1902 H         1 <0>         0.0000
     31 H15         1.3307   -4.1449    3.0211 H         1 <0>         0.0000
@<TRIPOS>BOND
     1    1    2 ar
     2    1    3 ar
     3    1   17 1
     4    2    4 ar
     5    2   18 1
     6    3    5 ar
     7    3   19 1
     8    4    6 ar
     9    4   20 1
    10    5    6 ar
    11    5   11 1
    12    6   15 1
    13    7    8 1
    14    7    9 1
    15    7   21 1
    16    7   22 1
    17    8   10 1
    18    8   23 1
    19    8   24 1
    20    9   12 1
    21    9   25 1
    22    9   26 1
    23   10   16 1
    24   10   27 1
    25   10   28 1
    26   11   12 1
    27   11   29 1
    28   11   30 1
    29   12   16 1
    30   13   16 2
    31   14   16 2
    32   15   31 1
