@<TRIPOS>MOLECULE
*****
   22    23     0     0     0
SMALL
NO_CHARGES

@<TRIPOS>ATOM
      1 C1          1.9098   -1.0316   -0.0099 C.ar      1 <0>         0.0000
      2 C2          2.9921   -1.5449    0.7141 C.ar      1 <0>         0.0000
      3 C3          0.8175   -0.4652    0.6572 C.ar      1 <0>         0.0000
      4 C4          2.9834   -1.5040    2.1108 C.ar      1 <0>         0.0000
      5 C5          0.7984   -0.4167    2.0538 C.ar      1 <0>         0.0000
      6 C6          1.8803   -0.9462    2.7612 C.ar      1 <0>         0.0000
      7 C7          1.4117   -3.1349    6.2554 C.3       1 <0>         0.0000
      8 C8          1.8064   -3.7410    4.9309 C.3       1 <0>         0.0000
      9 C9          1.0169   -2.4554    4.9646 C.3       1 <0>         0.0000
     10 O1          3.2295   -1.0242    5.0461 O.2       1 <0>         0.0000
     11 O2          0.9690    0.1896    4.9782 O.2       1 <0>         0.0000
     12 S1          1.8418   -0.9184    4.5593 S.o2      1 <0>         0.0000
     13 H1          1.9222   -1.0638   -1.0962 H         1 <0>         0.0000
     14 H2          3.8454   -1.9691    0.1921 H         1 <0>         0.0000
     15 H3         -0.0134   -0.0528    0.0914 H         1 <0>         0.0000
     16 H4          3.8225   -1.8731    2.6920 H         1 <0>         0.0000
     17 H5         -0.0259    0.0425    2.5912 H         1 <0>         0.0000
     18 H6          0.6080   -3.5850    6.8290 H         1 <0>         0.0000
     19 H7          2.2004   -2.6677    6.8358 H         1 <0>         0.0000
     20 H8          2.8543   -3.6729    4.6570 H         1 <0>         0.0000
     21 H9          1.2848   -4.6226    4.5715 H         1 <0>         0.0000
     22 H10        -0.0242   -2.4451    4.6575 H         1 <0>         0.0000
@<TRIPOS>BOND
     1    1    3 ar
     2    1    2 ar
     3    1   13 1
     4    2    4 ar
     5    2   14 1
     6    3    5 ar
     7    3   15 1
     8    4    6 ar
     9    4   16 1
    10    5    6 ar
    11    5   17 1
    12    6   12 1
    13    7    8 1
    14    7    9 1
    15    7   18 1
    16    7   19 1
    17    8    9 1
    18    8   20 1
    19    8   21 1
    20    9   12 1
    21    9   22 1
    22   10   12 2
    23   11   12 2
