@<TRIPOS>MOLECULE
*****
   26    26     0     0     0
SMALL
NO_CHARGES

@<TRIPOS>ATOM
      1 C1         -2.0014    3.7513    1.7208 C.ar      1 <0>         0.0000
      2 C2         -2.1915    3.0471    2.9117 C.ar      1 <0>         0.0000
      3 C3         -1.0033    3.3565    0.8280 C.ar      1 <0>         0.0000
      4 C4         -1.3847    1.9435    3.1856 C.ar      1 <0>         0.0000
      5 C5         -0.1721    2.2499    1.0710 C.ar      1 <0>         0.0000
      6 C6         -0.3998    1.5435    2.2722 C.ar      1 <0>         0.0000
      7 C7          0.9164    1.9311    0.0699 C.3       1 <0>         0.0000
      8 C8         -1.7305   -1.4410    2.7883 C.3       1 <0>         0.0000
      9 C9         -0.4751   -1.3697    0.6702 C.3       1 <0>         0.0000
     10 N1         -0.4337   -1.2456    2.1300 N.pl3     1 <0>         0.0000
     11 O1          1.7712   -0.0056    2.0131 O.2       1 <0>         0.0000
     12 O2          0.4371   -0.0740    4.1870 O.2       1 <0>         0.0000
     13 S1          0.4966    0.0379    2.7288 S.o2      1 <0>         0.0000
     14 H1         -2.6190    4.6156    1.4907 H         1 <0>         0.0000
     15 H2         -2.9507    3.3555    3.6248 H         1 <0>         0.0000
     16 H3         -0.8506    3.9273   -0.0846 H         1 <0>         0.0000
     17 H4         -1.4937    1.3990    4.1174 H         1 <0>         0.0000
     18 H5          1.9022    1.9568    0.5377 H         1 <0>         0.0000
     19 H6          0.8056    0.9339   -0.3606 H         1 <0>         0.0000
     20 H7          0.8901    2.6579   -0.7455 H         1 <0>         0.0000
     21 H8         -1.6018   -1.3806    3.8685 H         1 <0>         0.0000
     22 H9         -2.0851   -2.4445    2.5370 H         1 <0>         0.0000
     23 H10        -2.4834   -0.7082    2.4613 H         1 <0>         0.0000
     24 H11         0.5363   -1.2984    0.2711 H         1 <0>         0.0000
     25 H12        -1.1200   -0.6119    0.1994 H         1 <0>         0.0000
     26 H13        -0.8712   -2.3601    0.4297 H         1 <0>         0.0000
@<TRIPOS>BOND
     1    1    2 ar
     2    1    3 ar
     3    1   14 1
     4    2    4 ar
     5    2   15 1
     6    3    5 ar
     7    3   16 1
     8    4    6 ar
     9    4   17 1
    10    5    6 ar
    11    5    7 1
    12    6   13 1
    13    7   18 1
    14    7   19 1
    15    7   20 1
    16    8   10 1
    17    8   21 1
    18    8   22 1
    19    8   23 1
    20    9   10 1
    21    9   24 1
    22    9   25 1
    23    9   26 1
    24   10   13 1
    25   11   13 2
    26   12   13 2
