@<TRIPOS>MOLECULE
*****
   31    32     0     0     0
SMALL
NO_CHARGES

@<TRIPOS>ATOM
      1 C1          0.0416   -4.9204   -0.0971 C.ar      1 <0>         0.0000
      2 C2         -0.2575   -5.1057   -1.4515 C.ar      1 <0>         0.0000
      3 C3          0.5228   -3.6820    0.3276 C.ar      1 <0>         0.0000
      4 C4         -0.0843   -4.0555   -2.3517 C.ar      1 <0>         0.0000
      5 C5          0.7106   -2.6094   -0.5596 C.ar      1 <0>         0.0000
      6 C6          0.3882   -2.8069   -1.9204 C.ar      1 <0>         0.0000
      7 C7         -1.7343    0.4668    1.5095 C.3       1 <0>         0.0000
      8 C8         -2.0104    1.6440    0.5673 C.3       1 <0>         0.0000
      9 C9         -0.9838   -0.6753    0.8230 C.3       1 <0>         0.0000
     10 C10        -0.7133    2.2271    0.0038 C.3       1 <0>         0.0000
     11 C11         1.3036   -1.3226   -0.0249 C.3       1 <0>         0.0000
     12 N1          0.3318   -0.2291    0.3061 N.pl3     1 <0>         0.0000
     13 O1         -0.6223    0.5019   -2.0141 O.2       1 <0>         0.0000
     14 O2          1.5756    1.4372   -1.1792 O.2       1 <0>         0.0000
     15 O3          0.5846   -1.8561   -2.8864 O.3       1 <0>         0.0000
     16 S1          0.2221    0.9660   -0.8814 S.o2      1 <0>         0.0000
     17 H1         -0.0843   -5.7322    0.6139 H         1 <0>         0.0000
     18 H2         -0.6254   -6.0651   -1.8062 H         1 <0>         0.0000
     19 H3          0.7854   -3.5435    1.3750 H         1 <0>         0.0000
     20 H4         -0.3081   -4.1743   -3.4078 H         1 <0>         0.0000
     21 H5         -1.1482    0.8108    2.3697 H         1 <0>         0.0000
     22 H6         -2.6815    0.0741    1.8938 H         1 <0>         0.0000
     23 H7         -2.6488    1.3249   -0.2629 H         1 <0>         0.0000
     24 H8         -2.5414    2.4416    1.0974 H         1 <0>         0.0000
     25 H9         -0.7742   -1.4640    1.5487 H         1 <0>         0.0000
     26 H10        -1.5908   -1.1233    0.0255 H         1 <0>         0.0000
     27 H11        -0.8869    3.0112   -0.7377 H         1 <0>         0.0000
     28 H12        -0.0406    2.6005    0.7793 H         1 <0>         0.0000
     29 H13         1.8280   -1.5381    0.9099 H         1 <0>         0.0000
     30 H14         2.0404   -0.9079   -0.7159 H         1 <0>         0.0000
     31 H15         0.1712   -0.9987   -2.6433 H         1 <0>         0.0000
@<TRIPOS>BOND
     1    1    2 ar
     2    1    3 ar
     3    1   17 1
     4    2    4 ar
     5    2   18 1
     6    3    5 ar
     7    3   19 1
     8    4    6 ar
     9    4   20 1
    10    5    6 ar
    11    5   11 1
    12    6   15 1
    13    7    8 1
    14    7    9 1
    15    7   21 1
    16    7   22 1
    17    8   10 1
    18    8   23 1
    19    8   24 1
    20    9   12 1
    21    9   25 1
    22    9   26 1
    23   10   16 1
    24   10   27 1
    25   10   28 1
    26   11   12 1
    27   11   29 1
    28   11   30 1
    29   12   16 1
    30   13   16 2
    31   14   16 2
    32   15   31 1
