@<TRIPOS>MOLECULE
*****
   31    32     0     0     0
SMALL
NO_CHARGES

@<TRIPOS>ATOM
      1 C1         -2.9497   -4.4051   -3.0392 C.ar      1 <0>         0.0000
      2 C2         -3.4858   -3.5621   -4.0185 C.ar      1 <0>         0.0000
      3 C3         -2.0712   -3.8796   -2.0901 C.ar      1 <0>         0.0000
      4 C4         -3.1477   -2.2075   -4.0384 C.ar      1 <0>         0.0000
      5 C5         -1.7118   -2.5265   -2.0950 C.ar      1 <0>         0.0000
      6 C6         -2.2689   -1.6929   -3.0766 C.ar      1 <0>         0.0000
      7 C7         -2.1422    0.4752    0.4463 C.3       1 <0>         0.0000
      8 C8         -1.2077    0.7739    1.6309 C.3       1 <0>         0.0000
      9 C9         -2.5692   -0.9992    0.3947 C.3       1 <0>         0.0000
     10 C10         0.0609   -0.0907    1.6191 C.3       1 <0>         0.0000
     11 C11        -0.7622   -1.9892   -1.0503 C.3       1 <0>         0.0000
     12 N1         -1.4325   -1.9441    0.2726 N.pl3     1 <0>         0.0000
     13 O1          0.7936   -2.6575    1.3055 O.2       1 <0>         0.0000
     14 O2         -1.2008   -2.1010    2.7992 O.2       1 <0>         0.0000
     15 O3         -1.9304   -0.3544   -3.0501 O.3       1 <0>         0.0000
     16 S1         -0.3923   -1.8491    1.6028 S.o2      1 <0>         0.0000
     17 H1         -3.2125   -5.4587   -3.0181 H         1 <0>         0.0000
     18 H2         -4.1688   -3.9544   -4.7673 H         1 <0>         0.0000
     19 H3         -1.6536   -4.5196   -1.3167 H         1 <0>         0.0000
     20 H4         -3.5690   -1.5494   -4.7971 H         1 <0>         0.0000
     21 H5         -3.0422    1.0945    0.5308 H         1 <0>         0.0000
     22 H6         -1.6597    0.7511   -0.4978 H         1 <0>         0.0000
     23 H7         -0.9040    1.8265    1.6146 H         1 <0>         0.0000
     24 H8         -1.7366    0.6051    2.5746 H         1 <0>         0.0000
     25 H9         -3.1196   -1.2736    1.2977 H         1 <0>         0.0000
     26 H10        -3.2249   -1.1850   -0.4588 H         1 <0>         0.0000
     27 H11         0.6748    0.0754    0.7291 H         1 <0>         0.0000
     28 H12         0.6776    0.0579    2.5094 H         1 <0>         0.0000
     29 H13         0.0898   -2.6614   -0.9473 H         1 <0>         0.0000
     30 H14        -0.3850   -1.0073   -1.3549 H         1 <0>         0.0000
     31 H15        -2.3651    0.0929   -3.7931 H         1 <0>         0.0000
@<TRIPOS>BOND
     1    1    2 ar
     2    1    3 ar
     3    1   17 1
     4    2    4 ar
     5    2   18 1
     6    3    5 ar
     7    3   19 1
     8    4    6 ar
     9    4   20 1
    10    5    6 ar
    11    5   11 1
    12    6   15 1
    13    7    8 1
    14    7    9 1
    15    7   21 1
    16    7   22 1
    17    8   10 1
    18    8   23 1
    19    8   24 1
    20    9   12 1
    21    9   25 1
    22    9   26 1
    23   10   16 1
    24   10   27 1
    25   10   28 1
    26   11   12 1
    27   11   29 1
    28   11   30 1
    29   12   16 1
    30   13   16 2
    31   14   16 2
    32   15   31 1
