@<TRIPOS>MOLECULE
*****
   28    29     0     0     0
SMALL
NO_CHARGES

@<TRIPOS>ATOM
      1 C1          0.8285    0.5513    2.9438 C.1       1 <0>         0.0000
      2 C2          1.9520   -1.2251   -0.1406 C.ar      1 <0>         0.0000
      3 C3          2.5531   -2.3605    0.4138 C.ar      1 <0>         0.0000
      4 C4         -1.1403   -1.7319    9.1538 C.ar      1 <0>         0.0000
      5 C5         -1.9905   -2.8168    8.9193 C.ar      1 <0>         0.0000
      6 C6          1.3541   -0.2846    0.6962 C.ar      1 <0>         0.0000
      7 C7          2.5325   -2.5684    1.7944 C.ar      1 <0>         0.0000
      8 C8         -0.1582   -1.4294    8.2129 C.ar      1 <0>         0.0000
      9 C9         -1.8013   -3.5567    7.7493 C.ar      1 <0>         0.0000
     10 C10         1.3550   -0.4725    2.0879 C.ar      1 <0>         0.0000
     11 C11         1.9307   -1.6354    2.6445 C.ar      1 <0>         0.0000
     12 C12        -0.0529   -2.2481    7.0773 C.ar      1 <0>         0.0000
     13 C13         0.7127   -1.9283    4.7549 C.2       1 <0>         0.0000
     14 N1          0.4435    1.4049    3.6373 N.1       1 <0>         0.0000
     15 N2         -0.8439   -3.2984    6.8501 N.ar      1 <0>         0.0000
     16 N3          1.9302   -1.8244    4.0435 N.am      1 <0>         0.0000
     17 N4          0.9679   -2.0032    6.1302 N.am      1 <0>         0.0000
     18 O1         -0.3804   -1.9293    4.2307 O.2       1 <0>         0.0000
     19 H1          1.9546   -1.0723   -1.2157 H         1 <0>         0.0000
     20 H2          3.0232   -3.0976   -0.2314 H         1 <0>         0.0000
     21 H3         -1.2506   -1.1194   10.0448 H         1 <0>         0.0000
     22 H4         -2.7770   -3.0838    9.6186 H         1 <0>         0.0000
     23 H5          0.8979    0.6113    0.2867 H         1 <0>         0.0000
     24 H6          2.9678   -3.4703    2.2178 H         1 <0>         0.0000
     25 H7          0.4964   -0.5710    8.3394 H         1 <0>         0.0000
     26 H8         -2.4406   -4.4097    7.5268 H         1 <0>         0.0000
     27 H9          2.6787   -2.4037    4.4064 H         1 <0>         0.0000
     28 H10         1.7326   -1.4192    6.4469 H         1 <0>         0.0000
@<TRIPOS>BOND
     1    1   10 1
     2    1   14 3
     3    2    3 ar
     4    2    6 ar
     5    2   19 1
     6    3    7 ar
     7    3   20 1
     8    4    5 ar
     9    4    8 ar
    10    4   21 1
    11    5    9 ar
    12    5   22 1
    13    6   10 ar
    14    6   23 1
    15    7   11 ar
    16    7   24 1
    17    8   12 ar
    18    8   25 1
    19    9   15 ar
    20    9   26 1
    21   10   11 ar
    22   11   16 1
    23   12   15 ar
    24   12   17 1
    25   13   16 am
    26   13   17 am
    27   13   18 2
    28   16   27 1
    29   17   28 1
