@<TRIPOS>MOLECULE
*****
   29    30     0     0     0
SMALL
NO_CHARGES

@<TRIPOS>ATOM
      1 C1         -1.9928   -5.5699    4.9279 C.ar      1 <0>         0.0000
      2 C2         -1.4094   -5.2290    6.1480 C.ar      1 <0>         0.0000
      3 C3          0.3685   -2.6477    0.4667 C.2       1 <0>         0.0000
      4 C4         -1.7367   -4.7779    3.8031 C.ar      1 <0>         0.0000
      5 C5         -0.5721   -4.1112    6.2513 C.ar      1 <0>         0.0000
      6 C6          0.0699   -3.4266    1.6171 C.2       1 <0>         0.0000
      7 C7         -0.0110   -1.3361    0.3988 C.2       1 <0>         0.0000
      8 C8         -0.9129   -3.6514    3.8814 C.ar      1 <0>         0.0000
      9 C9         -0.3190   -3.3243    5.1215 C.ar      1 <0>         0.0000
     10 C10        -0.6192   -2.8549    2.6605 C.2       1 <0>         0.0000
     11 C11        -0.7287   -0.6995    1.4819 C.2       1 <0>         0.0000
     12 C12        -1.8429   -0.9199    3.6349 C.3       1 <0>         0.0000
     13 C13         1.1205   -1.8406    6.3361 C.3       1 <0>         0.0000
     14 N1         -1.0393   -1.5460    2.5799 N.am      1 <0>         0.0000
     15 O1         -1.0867    0.4850    1.4996 O.2       1 <0>         0.0000
     16 O2          0.4926   -2.2263    5.1159 O.3       1 <0>         0.0000
     17 H1         -2.6418   -6.4371    4.8491 H         1 <0>         0.0000
     18 H2         -1.5991   -5.8322    7.0319 H         1 <0>         0.0000
     19 H3          0.9148   -3.1003   -0.3579 H         1 <0>         0.0000
     20 H4         -2.1888   -5.0237    2.8461 H         1 <0>         0.0000
     21 H5         -0.1202   -3.8707    7.2068 H         1 <0>         0.0000
     22 H6          0.4045   -4.4529    1.7087 H         1 <0>         0.0000
     23 H7          0.2106   -0.7083   -0.4576 H         1 <0>         0.0000
     24 H8         -1.2094   -0.3044    4.2781 H         1 <0>         0.0000
     25 H9         -2.3323   -1.6899    4.2284 H         1 <0>         0.0000
     26 H10        -2.5842   -0.2746    3.1640 H         1 <0>         0.0000
     27 H11         1.7063   -0.9523    6.0983 H         1 <0>         0.0000
     28 H12         1.7870   -2.6288    6.7061 H         1 <0>         0.0000
     29 H13         0.3789   -1.5940    7.1054 H         1 <0>         0.0000
@<TRIPOS>BOND
     1    1    2 ar
     2    1    4 ar
     3    1   17 1
     4    2    5 ar
     5    2   18 1
     6    3    7 2
     7    3    6 1
     8    3   19 1
     9    4    8 ar
    10    4   20 1
    11    5    9 ar
    12    5   21 1
    13    6   10 2
    14    6   22 1
    15    7   11 1
    16    7   23 1
    17    8    9 ar
    18    8   10 1
    19    9   16 1
    20   10   14 1
    21   11   14 am
    22   11   15 2
    23   12   14 1
    24   12   24 1
    25   12   25 1
    26   12   26 1
    27   13   16 1
    28   13   27 1
    29   13   28 1
    30   13   29 1
