@<TRIPOS>MOLECULE
*****
   25    26     0     0     0
SMALL
NO_CHARGES

@<TRIPOS>ATOM
      1 C1         -3.0695    3.9278    3.4526 C.ar      1 <0>         0.0000
      2 C2         -3.5205    2.6481    3.7780 C.ar      1 <0>         0.0000
      3 C3         -1.9370    3.9954    2.6403 C.ar      1 <0>         0.0000
      4 C4         -1.8257    1.7276    2.5777 C.ar      1 <0>         0.0000
      5 C5         -1.7916   -0.7209    2.2693 C.3       1 <0>         0.0000
      6 C6         -0.1588    0.6677    1.0980 C.3       1 <0>         0.0000
      7 C7         -0.7459   -1.7921    2.5469 C.3       1 <0>         0.0000
      8 C8          0.9443   -0.3550    1.3338 C.3       1 <0>         0.0000
      9 N1         -2.9077    1.5382    3.3447 N.ar      1 <0>         0.0000
     10 N2         -1.3060    2.9012    2.1937 N.ar      1 <0>         0.0000
     11 N3         -1.1461    0.5748    2.1583 N.pl3     1 <0>         0.0000
     12 N4          0.3260   -1.7398    1.4671 N.4       1 <0>         0.0000
     13 H1         -3.5742    4.8197    3.8064 H         1 <0>         0.0000
     14 H2         -4.3995    2.4986    4.4017 H         1 <0>         0.0000
     15 H3         -1.5176    4.9508    2.3311 H         1 <0>         0.0000
     16 H4         -2.3563   -0.9708    1.3546 H         1 <0>         0.0000
     17 H5         -2.5044   -0.6966    3.0936 H         1 <0>         0.0000
     18 H6          0.2758    1.6672    1.0998 H         1 <0>         0.0000
     19 H7         -0.6153    0.5103    0.1055 H         1 <0>         0.0000
     20 H8         -0.2360   -1.6132    3.4950 H         1 <0>         0.0000
     21 H9         -1.1710   -2.7979    2.5359 H         1 <0>         0.0000
     22 H10         1.6558   -0.3940    0.5064 H         1 <0>         0.0000
     23 H11         1.4713   -0.1623    2.2698 H         1 <0>         0.0000
     24 H12        -0.0959   -2.0028    0.5677 H         1 <0>         0.0000
     25 H13         1.0557   -2.4349    1.6604 H         1 <0>         0.0000
@<TRIPOS>BOND
     1    1    3 ar
     2    1    2 ar
     3    1   13 1
     4    2    9 ar
     5    2   14 1
     6    3   10 ar
     7    3   15 1
     8    4   10 ar
     9    4    9 ar
    10    4   11 1
    11    5    7 1
    12    5   11 1
    13    5   16 1
    14    5   17 1
    15    6    8 1
    16    6   11 1
    17    6   18 1
    18    6   19 1
    19    7   12 1
    20    7   20 1
    21    7   21 1
    22    8   12 1
    23    8   22 1
    24    8   23 1
    25   12   24 1
    26   12   25 1
