@<TRIPOS>MOLECULE
*****
   32    33     0     0     0
SMALL
NO_CHARGES

@<TRIPOS>ATOM
      1 C1         -0.1519    2.4700   -0.0336 C.ar      1 <0>         0.0000
      2 C2          1.6091    1.5718    1.3271 C.ar      1 <0>         0.0000
      3 C3          0.4655    3.7252   -0.0157 C.ar      1 <0>         0.0000
      4 C4          2.2383    2.8151    1.3588 C.ar      1 <0>         0.0000
      5 C5         -4.6380    0.8539    1.1400 C.2       1 <0>         0.0000
      6 C6         -3.7384    0.0456    1.8030 C.2       1 <0>         0.0000
      7 C7         -3.0242    2.1329    1.7445 C.2       1 <0>         0.0000
      8 C8          0.4024    1.3729    0.6350 C.ar      1 <0>         0.0000
      9 C9          1.6636    3.9002    0.6844 C.ar      1 <0>         0.0000
     10 C10         0.5438   -1.0295   -0.1494 C.3       1 <0>         0.0000
     11 C11        -0.6274   -0.4897    2.0265 C.3       1 <0>         0.0000
     12 C12        -1.4680    0.4849    2.8596 C.3       1 <0>         0.0000
     13 C13        -0.2862    0.0188    0.6118 C.3       1 <0>         0.0000
     14 N1         -4.1826    2.1565    1.1082 N.2       1 <0>         0.0000
     15 N2         -2.7044    0.8787    2.1913 N.pl3     1 <0>         0.0000
     16 O1          2.3208    5.1066    0.7484 O.3       1 <0>         0.0000
     17 H1         -1.0891    2.3512   -0.5716 H         1 <0>         0.0000
     18 H2          2.0735    0.7418    1.8551 H         1 <0>         0.0000
     19 H3          0.0092    4.5623   -0.5423 H         1 <0>         0.0000
     20 H4          3.1705    2.9634    1.8963 H         1 <0>         0.0000
     21 H5         -5.5829    0.5727    0.6925 H         1 <0>         0.0000
     22 H6         -3.7421   -1.0103    2.0339 H         1 <0>         0.0000
     23 H7         -2.3696    2.9792    1.9086 H         1 <0>         0.0000
     24 H8          1.5061   -1.2081    0.3431 H         1 <0>         0.0000
     25 H9          0.7500   -0.6937   -1.1701 H         1 <0>         0.0000
     26 H10         0.0110   -1.9857   -0.2037 H         1 <0>         0.0000
     27 H11        -1.1560   -1.4463    1.9387 H         1 <0>         0.0000
     28 H12         0.2926   -0.6980    2.5865 H         1 <0>         0.0000
     29 H13        -0.9030    1.4000    3.0514 H         1 <0>         0.0000
     30 H14        -1.7109    0.0374    3.8294 H         1 <0>         0.0000
     31 H15        -1.2337    0.1443    0.0762 H         1 <0>         0.0000
     32 H16         1.8239    5.7644    0.2367 H         1 <0>         0.0000
@<TRIPOS>BOND
     1    1    3 ar
     2    1    8 ar
     3    1   17 1
     4    2    4 ar
     5    2    8 ar
     6    2   18 1
     7    3    9 ar
     8    3   19 1
     9    4    9 ar
    10    4   20 1
    11    5    6 2
    12    5   14 1
    13    5   21 1
    14    6   15 1
    15    6   22 1
    16    7   14 2
    17    7   15 1
    18    7   23 1
    19    8   13 1
    20    9   16 1
    21   10   13 1
    22   10   24 1
    23   10   25 1
    24   10   26 1
    25   11   12 1
    26   11   13 1
    27   11   27 1
    28   11   28 1
    29   12   15 1
    30   12   29 1
    31   12   30 1
    32   13   31 1
    33   16   32 1
