@<TRIPOS>MOLECULE
*****
   32    34     0     0     0
SMALL
NO_CHARGES

@<TRIPOS>ATOM
      1 C1          3.4410    2.5383    2.7135 C.1       1 <0>         0.0000
      2 C2          1.8817   -1.0396   -0.1126 C.ar      1 <0>         0.0000
      3 C3          0.6588   -0.9382    0.5507 C.ar      1 <0>         0.0000
      4 C4          3.0636   -1.1605    0.6182 C.ar      1 <0>         0.0000
      5 C5          0.6178   -0.9577    1.9448 C.ar      1 <0>         0.0000
      6 C6          3.0226   -1.1801    2.0124 C.ar      1 <0>         0.0000
      7 C7          3.5816    4.2149    4.5866 C.2       1 <0>         0.0000
      8 C8          3.4551    2.9255    6.2754 C.2       1 <0>         0.0000
      9 C9          3.4697    2.9449    4.0717 C.2       1 <0>         0.0000
     10 C10         1.7997   -1.0786    2.6757 C.ar      1 <0>         0.0000
     11 C11         1.8580    0.2114    4.8321 C.2       1 <0>         0.0000
     12 C12         0.8879   -2.1563    4.8320 C.3       1 <0>         0.0000
     13 C13         2.3752   -2.2938    4.8745 C.3       1 <0>         0.0000
     14 C14         1.7552   -1.1005    4.1647 C.3       1 <0>         0.0000
     15 C15         3.2588    0.6757    5.1710 C.3       1 <0>         0.0000
     16 N1          3.4175    2.2055    1.6019 N.1       1 <0>         0.0000
     17 N2          3.5722    4.1960    5.9589 N.2       1 <0>         0.0000
     18 N3          3.3900    2.1297    5.1655 N.pl3     1 <0>         0.0000
     19 O1          0.8519    0.8718    5.0874 O.2       1 <0>         0.0000
     20 H1          1.9136   -1.0242   -1.1981 H         1 <0>         0.0000
     21 H2         -0.2615   -0.8442   -0.0186 H         1 <0>         0.0000
     22 H3          4.0160   -1.2394    0.1020 H         1 <0>         0.0000
     23 H4         -0.3404   -0.8787    2.4519 H         1 <0>         0.0000
     24 H5          3.9487   -1.2753    2.5729 H         1 <0>         0.0000
     25 H6          3.6690    5.1458    4.0440 H         1 <0>         0.0000
     26 H7          3.4128    2.5267    7.2797 H         1 <0>         0.0000
     27 H8          0.3365   -2.8506    4.2082 H         1 <0>         0.0000
     28 H9          0.3799   -1.8996    5.7547 H         1 <0>         0.0000
     29 H10         2.8685   -2.1298    5.8259 H         1 <0>         0.0000
     30 H11         2.8249   -3.0802    4.2791 H         1 <0>         0.0000
     31 H12         3.9656    0.2686    4.4406 H         1 <0>         0.0000
     32 H13         3.5332    0.3144    6.1675 H         1 <0>         0.0000
@<TRIPOS>BOND
     1    1    9 1
     2    1   16 3
     3    2    4 ar
     4    2    3 ar
     5    2   20 1
     6    3    5 ar
     7    3   21 1
     8    4    6 ar
     9    4   22 1
    10    5   10 ar
    11    5   23 1
    12    6   10 ar
    13    6   24 1
    14    7    9 2
    15    7   17 1
    16    7   25 1
    17    8   17 2
    18    8   18 1
    19    8   26 1
    20    9   18 1
    21   10   14 1
    22   11   14 1
    23   11   15 1
    24   11   19 2
    25   12   13 1
    26   12   14 1
    27   12   27 1
    28   12   28 1
    29   13   14 1
    30   13   29 1
    31   13   30 1
    32   15   18 1
    33   15   31 1
    34   15   32 1
