@<TRIPOS>MOLECULE
*****
   21    22     0     0     0
SMALL
NO_CHARGES

@<TRIPOS>ATOM
      1 C1          1.9371   -0.9433   -0.1398 C.ar      1 <0>         0.0000
      2 C2          2.9538   -1.5793    0.5810 C.ar      1 <0>         0.0000
      3 C3          0.8333   -0.4102    0.5351 C.ar      1 <0>         0.0000
      4 C4          2.8697   -1.6873    1.9723 C.ar      1 <0>         0.0000
      5 C5          0.7406   -0.5134    1.9262 C.ar      1 <0>         0.0000
      6 C6         -0.0406   -4.2817    5.9122 C.ar      1 <0>         0.0000
      7 C7          0.5401   -3.2059    6.5921 C.ar      1 <0>         0.0000
      8 C8          0.0186   -4.2290    4.5207 C.ar      1 <0>         0.0000
      9 C9          1.7606   -1.1546    2.6255 C.ar      1 <0>         0.0000
     10 C10         1.1121   -2.2488    4.6258 C.ar      1 <0>         0.0000
     11 N1          1.1210   -2.1807    5.9629 N.ar      1 <0>         0.0000
     12 N2          0.5946   -3.2137    3.8626 N.ar      1 <0>         0.0000
     13 O1          1.7109   -1.1899    4.0252 O.3       1 <0>         0.0000
     14 H1          2.0066   -0.8597   -1.2210 H         1 <0>         0.0000
     15 H2          3.8152   -1.9905    0.0615 H         1 <0>         0.0000
     16 H3          0.0437    0.0888   -0.0203 H         1 <0>         0.0000
     17 H4          3.6489   -2.1751    2.5505 H         1 <0>         0.0000
     18 H5         -0.1065   -0.1046    2.4690 H         1 <0>         0.0000
     19 H6         -0.5089   -5.1074    6.4372 H         1 <0>         0.0000
     20 H7          0.5410   -3.1619    7.6805 H         1 <0>         0.0000
     21 H8         -0.4058   -5.0199    3.9038 H         1 <0>         0.0000
@<TRIPOS>BOND
     1    1    3 ar
     2    1    2 ar
     3    1   14 1
     4    2    4 ar
     5    2   15 1
     6    3    5 ar
     7    3   16 1
     8    4    9 ar
     9    4   17 1
    10    5    9 ar
    11    5   18 1
    12    6    8 ar
    13    6    7 ar
    14    6   19 1
    15    7   11 ar
    16    7   20 1
    17    8   12 ar
    18    8   21 1
    19    9   13 1
    20   10   12 ar
    21   10   11 ar
    22   10   13 1
