@<TRIPOS>MOLECULE
*****
   54    56     0     0     0
SMALL
NO_CHARGES

@<TRIPOS>ATOM
      1 C1         -1.0856   -6.1957   -1.0501 C.2       1 <0>         0.0000
      2 C2         -3.4350   -7.3718   -2.4303 C.3       1 <0>         0.0000
      3 C3         -2.9866   -7.7848   -1.0318 C.3       1 <0>         0.0000
      4 C4         -1.9525   -7.1150    1.1620 C.3       1 <0>         0.0000
      5 C5         -2.6176   -6.2315   -3.0246 C.3       1 <0>         0.0000
      6 C6         -1.9064   -5.8371    1.9829 C.3       1 <0>         0.0000
      7 C7         -2.6553   -2.3301    5.6541 C.3       1 <0>         0.0000
      8 C8         -4.0980   -4.2643    5.5454 C.3       1 <0>         0.0000
      9 C9         -2.8197   -2.0935    4.1535 C.3       1 <0>         0.0000
     10 C10        -4.2909   -4.0656    4.0427 C.3       1 <0>         0.0000
     11 C11        -3.2699   -5.4520    0.0165 C.3       1 <0>         0.0000
     12 C12        -2.3262   -6.6410   -0.2508 C.3       1 <0>         0.0000
     13 C13        -0.6767   -4.3281   -3.9899 C.3       1 <0>         0.0000
     14 C14         0.1021   -6.7031   -4.3046 C.3       1 <0>         0.0000
     15 C15        -3.6983   -3.1727    7.6570 C.3       1 <0>         0.0000
     16 C16        -0.2296   -5.6090   -3.3004 C.3       1 <0>         0.0000
     17 N1         -1.2958   -6.0777   -2.4280 N.am      1 <0>         0.0000
     18 N2         -3.8480   -2.9802    6.2152 N.3       1 <0>         0.0000
     19 N3         -3.0082   -5.0211    1.4241 N.pl3     1 <0>         0.0000
     20 N4         -3.0906   -3.3910    3.4718 N.pl3     1 <0>         0.0000
     21 O1         -0.0102   -5.9579   -0.4989 O.2       1 <0>         0.0000
     22 O2         -1.7233   -2.7893    1.3802 O.2       1 <0>         0.0000
     23 O3         -4.2445   -2.7705    1.2638 O.2       1 <0>         0.0000
     24 S1         -3.0084   -3.3562    1.7616 S.o2      1 <0>         0.0000
     25 H1         -3.4063   -8.2459   -3.1158 H         1 <0>         0.0000
     26 H2         -4.5051   -7.0751   -2.4013 H         1 <0>         0.0000
     27 H3         -3.8615   -8.1648   -0.4696 H         1 <0>         0.0000
     28 H4         -2.2957   -8.6443   -1.1195 H         1 <0>         0.0000
     29 H5         -0.9954   -7.6471    1.2121 H         1 <0>         0.0000
     30 H6         -2.7287   -7.7793    1.5656 H         1 <0>         0.0000
     31 H7         -2.5072   -6.3882   -4.0985 H         1 <0>         0.0000
     32 H8         -3.1461   -5.2887   -2.8677 H         1 <0>         0.0000
     33 H9         -2.0728   -6.0363    3.0437 H         1 <0>         0.0000
     34 H10        -0.9479   -5.3257    1.8554 H         1 <0>         0.0000
     35 H11        -1.7764   -2.9676    5.8080 H         1 <0>         0.0000
     36 H12        -2.4613   -1.3741    6.1589 H         1 <0>         0.0000
     37 H13        -4.9838   -4.7557    5.9698 H         1 <0>         0.0000
     38 H14        -3.2447   -4.9363    5.6967 H         1 <0>         0.0000
     39 H15        -3.6637   -1.4147    3.9895 H         1 <0>         0.0000
     40 H16        -1.9180   -1.6345    3.7306 H         1 <0>         0.0000
     41 H17        -4.4491   -5.0270    3.5399 H         1 <0>         0.0000
     42 H18        -5.1732   -3.4380    3.8760 H         1 <0>         0.0000
     43 H19        -3.1128   -4.6287   -0.6887 H         1 <0>         0.0000
     44 H20        -4.3246   -5.7469   -0.0383 H         1 <0>         0.0000
     45 H21        -1.5560   -4.5091   -4.6166 H         1 <0>         0.0000
     46 H22        -0.9308   -3.5496   -3.2618 H         1 <0>         0.0000
     47 H23         0.1201   -3.9327   -4.6295 H         1 <0>         0.0000
     48 H24        -0.7642   -6.9250   -4.9373 H         1 <0>         0.0000
     49 H25         0.3938   -7.6263   -3.7933 H         1 <0>         0.0000
     50 H26         0.9240   -6.4045   -4.9651 H         1 <0>         0.0000
     51 H27        -3.5129   -2.2133    8.1469 H         1 <0>         0.0000
     52 H28        -2.8585   -3.8417    7.8639 H         1 <0>         0.0000
     53 H29        -4.6076   -3.6119    8.0761 H         1 <0>         0.0000
     54 H30         0.6497   -5.4044   -2.6800 H         1 <0>         0.0000
@<TRIPOS>BOND
     1    1   12 1
     2    1   17 am
     3    1   21 2
     4    2    3 1
     5    2    5 1
     6    2   25 1
     7    2   26 1
     8    3   12 1
     9    3   27 1
    10    3   28 1
    11    4    6 1
    12    4   12 1
    13    4   29 1
    14    4   30 1
    15    5   17 1
    16    5   31 1
    17    5   32 1
    18    6   19 1
    19    6   33 1
    20    6   34 1
    21    7    9 1
    22    7   18 1
    23    7   35 1
    24    7   36 1
    25    8   10 1
    26    8   18 1
    27    8   37 1
    28    8   38 1
    29    9   20 1
    30    9   39 1
    31    9   40 1
    32   10   20 1
    33   10   41 1
    34   10   42 1
    35   11   12 1
    36   11   19 1
    37   11   43 1
    38   11   44 1
    39   13   16 1
    40   13   45 1
    41   13   46 1
    42   13   47 1
    43   14   16 1
    44   14   48 1
    45   14   49 1
    46   14   50 1
    47   15   18 1
    48   15   51 1
    49   15   52 1
    50   15   53 1
    51   16   17 1
    52   16   54 1
    53   19   24 1
    54   20   24 1
    55   22   24 2
    56   23   24 2
