@<TRIPOS>MOLECULE
*****
   18    18     0     0     0
SMALL
NO_CHARGES

@<TRIPOS>ATOM
      1 C1          4.7360    1.2920    0.8370 C.ar      1 <0>         0.0000
      2 C2          5.8550    1.0940    0.0300 C.ar      1 <0>         0.0000
      3 C3          3.5970    0.5140    0.6600 C.ar      1 <0>         0.0000
      4 C4          5.8320    0.1240   -0.9640 C.ar      1 <0>         0.0000
      5 C5          3.5480   -0.4860   -0.3290 C.ar      1 <0>         0.0000
      6 C6          4.6870   -0.6480   -1.1460 C.ar      1 <0>         0.0000
      7 C7          2.3500   -1.3080   -0.4780 C.2       1 <0>         0.0000
      8 C8          0.9750   -0.7120   -0.2780 C.3       1 <0>         0.0000
      9 O1          2.3980   -2.4970   -0.6990 O.2       1 <0>         0.0000
     10 O2          4.6970   -1.5460   -2.1680 O.3       1 <0>         0.0000
     11 H1          4.7570    2.0370    1.5920 H         1 <0>         0.0000
     12 H2          6.7220    1.6890    0.1730 H         1 <0>         0.0000
     13 H3          2.7620    0.6720    1.2930 H         1 <0>         0.0000
     14 H4          6.6800   -0.0200   -1.5820 H         1 <0>         0.0000
     15 H5          0.9740    0.2600   -0.7500 H         1 <0>         0.0000
     16 H6          0.8110   -0.6450    0.7870 H         1 <0>         0.0000
     17 H7          0.2640   -1.3800   -0.7440 H         1 <0>         0.0000
     18 H8          5.5760   -1.6200   -2.5820 H         1 <0>         0.0000
@<TRIPOS>BOND
     1    1    2 ar
     2    1    3 ar
     3    1   11 1
     4    2    4 ar
     5    2   12 1
     6    3    5 ar
     7    3   13 1
     8    4    6 ar
     9    4   14 1
    10    5    6 ar
    11    5    7 1
    12    6   10 1
    13    7    8 1
    14    7    9 2
    15    8   15 1
    16    8   16 1
    17    8   17 1
    18   10   18 1
