@<TRIPOS>MOLECULE
*****
   38    40     0     0     0
SMALL
NO_CHARGES

@<TRIPOS>ATOM
      1 C1         -5.2154   -3.3935   -3.3667 C.2       1 <0>         0.0000
      2 C2         -1.3999    1.4255   -0.8305 C.2       1 <0>         0.0000
      3 C3         -1.5119    0.1593   -0.2673 C.2       1 <0>         0.0000
      4 C4         -3.8185   -1.7340   -3.8419 C.2       1 <0>         0.0000
      5 C5         -4.6113   -1.0643   -2.9386 C.2       1 <0>         0.0000
      6 C6         -3.2032    0.5776   -1.6706 C.2       1 <0>         0.0000
      7 C7         -0.3401    2.4593   -0.7000 C.2       1 <0>         0.0000
      8 C8         -0.7349   -0.6464    0.7303 C.3       1 <0>         0.0000
      9 C9          0.5930    1.3870    1.4286 C.3       1 <0>         0.0000
     10 C10         0.6711   -0.1195    1.0785 C.3       1 <0>         0.0000
     11 C11        -2.6304   -1.1623   -4.5601 C.3       1 <0>         0.0000
     12 C12         1.6502   -0.3683   -0.0792 C.3       1 <0>         0.0000
     13 C13         1.1553   -0.8672    2.3337 C.3       1 <0>         0.0000
     14 C14        -4.4717    0.3540   -2.4444 C.3       1 <0>         0.0000
     15 N1         -4.1771   -3.0520   -4.0738 N.2       1 <0>         0.0000
     16 N2         -2.4590    1.6556   -1.7023 N.2       1 <0>         0.0000
     17 N3         -2.6703   -0.3604   -0.8144 N.pl3     1 <0>         0.0000
     18 N4          0.6003    2.2980    0.2942 N.am      1 <0>         0.0000
     19 O1         -0.2688    3.4161   -1.4700 O.2       1 <0>         0.0000
     20 S1         -5.8573   -2.1328   -2.3467 S.3       1 <0>         0.0000
     21 H1         -5.6740   -4.3765   -3.3940 H         1 <0>         0.0000
     22 H2         -1.3236   -0.7065    1.6567 H         1 <0>         0.0000
     23 H3         -0.6419   -1.6778    0.3646 H         1 <0>         0.0000
     24 H4         -0.2864    1.5594    2.0659 H         1 <0>         0.0000
     25 H5          1.4705    1.6464    2.0276 H         1 <0>         0.0000
     26 H6         -1.7293   -1.7356   -4.3179 H         1 <0>         0.0000
     27 H7         -2.7756   -1.2275   -5.6433 H         1 <0>         0.0000
     28 H8         -2.4541   -0.1193   -4.2917 H         1 <0>         0.0000
     29 H9          2.6300    0.0698    0.1395 H         1 <0>         0.0000
     30 H10         1.2951    0.0666   -1.0160 H         1 <0>         0.0000
     31 H11         1.7897   -1.4443   -0.2322 H         1 <0>         0.0000
     32 H12         2.1949   -0.6107    2.5643 H         1 <0>         0.0000
     33 H13         1.1038   -1.9520    2.1895 H         1 <0>         0.0000
     34 H14         0.5439   -0.6174    3.2090 H         1 <0>         0.0000
     35 H15        -4.4634    1.0569   -3.2818 H         1 <0>         0.0000
     36 H16        -5.3353    0.6241   -1.8260 H         1 <0>         0.0000
     37 H17        -3.0246   -1.2987   -0.6700 H         1 <0>         0.0000
     38 H18         1.2730    3.0547    0.3023 H         1 <0>         0.0000
@<TRIPOS>BOND
     1    1   15 2
     2    1   20 1
     3    1   21 1
     4    2    3 2
     5    2    7 1
     6    2   16 1
     7    3    8 1
     8    3   17 1
     9    4    5 2
    10    4   11 1
    11    4   15 1
    12    5   14 1
    13    5   20 1
    14    6   14 1
    15    6   16 2
    16    6   17 1
    17    7   18 am
    18    7   19 2
    19    8   10 1
    20    8   22 1
    21    8   23 1
    22    9   10 1
    23    9   18 1
    24    9   24 1
    25    9   25 1
    26   10   12 1
    27   10   13 1
    28   11   26 1
    29   11   27 1
    30   11   28 1
    31   12   29 1
    32   12   30 1
    33   12   31 1
    34   13   32 1
    35   13   33 1
    36   13   34 1
    37   14   35 1
    38   14   36 1
    39   17   37 1
    40   18   38 1
