@<TRIPOS>MOLECULE
*****
   29    30     0     0     0
SMALL
NO_CHARGES

@<TRIPOS>ATOM
      1 C1          1.9230    4.4740   -3.3500 C.ar      1 <0>         0.0000
      2 C2          2.3980    4.3720   -2.0460 C.ar      1 <0>         0.0000
      3 C3          0.6750    3.9520   -3.6800 C.ar      1 <0>         0.0000
      4 C4          1.6280    3.7450   -1.0720 C.ar      1 <0>         0.0000
      5 C5         -0.0950    3.3240   -2.7080 C.ar      1 <0>         0.0000
      6 C6          0.3760    3.2020   -1.3950 C.ar      1 <0>         0.0000
      7 C7         -0.4400    2.5300   -0.3810 C.2       1 <0>         0.0000
      8 C8         -0.2930   -1.3340    0.1550 C.3       1 <0>         0.0000
      9 C9          0.5820   -0.5760   -0.8620 C.3       1 <0>         0.0000
     10 C10        -1.4090   -0.4210    0.6960 C.3       1 <0>         0.0000
     11 C11         1.2050    0.6410   -0.1490 C.3       1 <0>         0.0000
     12 C12        -0.7470    0.7930    1.3780 C.3       1 <0>         0.0000
     13 N1          0.0630    1.4450    0.3290 N.am      1 <0>         0.0000
     14 O1         -1.5860    2.8940   -0.1390 O.2       1 <0>         0.0000
     15 H1          2.5100    4.9530   -4.0930 H         1 <0>         0.0000
     16 H2          3.3450    4.7780   -1.7940 H         1 <0>         0.0000
     17 H3          0.3110    4.0360   -4.6730 H         1 <0>         0.0000
     18 H4          1.9860    3.6760   -0.0760 H         1 <0>         0.0000
     19 H5         -1.0500    2.9330   -2.9550 H         1 <0>         0.0000
     20 H6          0.3240   -1.6950    0.9800 H         1 <0>         0.0000
     21 H7         -0.7460   -2.1950   -0.3380 H         1 <0>         0.0000
     22 H8         -0.0240   -0.2420   -1.7060 H         1 <0>         0.0000
     23 H9          1.3750   -1.2300   -1.2270 H         1 <0>         0.0000
     24 H10        -2.0140   -0.9620    1.4240 H         1 <0>         0.0000
     25 H11        -2.0500   -0.0790   -0.1190 H         1 <0>         0.0000
     26 H12         1.8120    1.1790   -0.8620 H         1 <0>         0.0000
     27 H13         1.7870    0.3000    0.6980 H         1 <0>         0.0000
     28 H14        -1.5180    1.4570    1.7480 H         1 <0>         0.0000
     29 H15        -0.1010    0.4490    2.1750 H         1 <0>         0.0000
@<TRIPOS>BOND
     1    1    2 ar
     2    1    3 ar
     3    1   15 1
     4    2    4 ar
     5    2   16 1
     6    3    5 ar
     7    3   17 1
     8    4    6 ar
     9    4   18 1
    10    5    6 ar
    11    5   19 1
    12    6    7 1
    13    7   13 am
    14    7   14 2
    15    8    9 1
    16    8   10 1
    17    8   20 1
    18    8   21 1
    19    9   11 1
    20    9   22 1
    21    9   23 1
    22   10   12 1
    23   10   24 1
    24   10   25 1
    25   11   13 1
    26   11   26 1
    27   11   27 1
    28   12   13 1
    29   12   28 1
    30   12   29 1
