@<TRIPOS>MOLECULE
*****
   19    19     0     0     0
SMALL
NO_CHARGES

@<TRIPOS>ATOM
      1 C1          1.8851   -1.0363   -0.1124 C.ar      1 <0>         0.0000
      2 C2          2.8783   -1.6520    2.0022 C.ar      1 <0>         0.0000
      3 C3          0.8066   -0.4630    0.5610 C.ar      1 <0>         0.0000
      4 C4          1.7997   -1.0786    2.6757 C.ar      1 <0>         0.0000
      5 C5          2.9210   -1.6309    0.6081 C.ar      1 <0>         0.0000
      6 C6          0.7638   -0.4841    1.9551 C.ar      1 <0>         0.0000
      7 C7          4.9522   -1.3517   -0.2646 C.2       1 <0>         0.0000
      8 C8          7.0544   -0.6688   -1.0538 C.3       1 <0>         0.0000
      9 N1          4.0021   -2.2063   -0.0670 N.2       1 <0>         0.0000
     10 O1          6.0867   -1.7115   -0.9027 O.3       1 <0>         0.0000
     11 F1         -0.2719    0.0666    2.6017 F         1 <0>         0.0000
     12 H1          1.9096   -1.0158   -1.1989 H         1 <0>         0.0000
     13 H2          3.6807   -2.1130    2.5722 H         1 <0>         0.0000
     14 H3         -0.0011   -0.0009    0.0004 H         1 <0>         0.0000
     15 H4          1.7661   -1.0954    3.7610 H         1 <0>         0.0000
     16 H5          4.9374   -0.2936    0.0495 H         1 <0>         0.0000
     17 H6          7.9306   -1.0571   -1.5787 H         1 <0>         0.0000
     18 H7          7.3433   -0.2930   -0.0690 H         1 <0>         0.0000
     19 H8          6.6137    0.1435   -1.6366 H         1 <0>         0.0000
@<TRIPOS>BOND
     1    1    3 ar
     2    1    5 ar
     3    1   12 1
     4    2    4 ar
     5    2    5 ar
     6    2   13 1
     7    3    6 ar
     8    3   14 1
     9    4    6 ar
    10    4   15 1
    11    5    9 1
    12    6   11 1
    13    7    9 2
    14    7   10 1
    15    7   16 1
    16    8   10 1
    17    8   17 1
    18    8   18 1
    19    8   19 1
