@<TRIPOS>MOLECULE
*****
   45    46     0     0     0
SMALL
NO_CHARGES

@<TRIPOS>ATOM
      1 C1         -2.9747   -0.9563   -1.2663 C.2       1 <0>         0.0000
      2 C2         -1.9552    0.0143   -1.0325 C.2       1 <0>         0.0000
      3 C3         -0.9006   -0.5079   -0.3150 C.2       1 <0>         0.0000
      4 C4         -4.2205   -0.7876   -1.9742 C.2       1 <0>         0.0000
      5 C5         -2.6523   -2.1699   -0.7178 C.2       1 <0>         0.0000
      6 C6         -4.6781   -3.2366   -1.4491 C.2       1 <0>         0.0000
      7 C7         -6.1488   -2.5383   -4.0596 C.2       1 <0>         0.0000
      8 C8         -6.3072   -2.0044   -5.2858 C.2       1 <0>         0.0000
      9 C9         -2.0047    1.4235   -1.4976 C.3       1 <0>         0.0000
     10 C10        -6.1706   -2.7557   -6.5798 C.3       1 <0>         0.0000
     11 C11        -6.6615   -0.5498   -5.4452 C.3       1 <0>         0.0000
     12 C12        -4.7814   -4.1318    3.0457 C.3       1 <0>         0.0000
     13 C13         0.3438    0.1580    0.1309 C.3       1 <0>         0.0000
     14 C14        -6.2706   -1.8476   -2.7366 C.3       1 <0>         0.0000
     15 C15        -2.9944   -4.5651   -0.1463 C.3       1 <0>         0.0000
     16 C16        -3.1840   -4.4776    1.3570 C.3       1 <0>         0.0000
     17 N1         -5.0011   -1.9672   -2.0254 N.am      1 <0>         0.0000
     18 N2         -3.4360   -3.3180   -0.7700 N.am      1 <0>         0.0000
     19 O1         -4.5488    0.2861   -2.4728 O.2       1 <0>         0.0000
     20 O2         -5.4396   -4.2070   -1.5375 O.2       1 <0>         0.0000
     21 O3          1.2272    0.3238   -0.9763 O.3       1 <0>         0.0000
     22 O4         -4.5537   -4.2286    1.6465 O.3       1 <0>         0.0000
     23 S1         -1.1477   -2.1575    0.0701 S.3       1 <0>         0.0000
     24 H1         -5.9300   -3.6036   -3.9904 H         1 <0>         0.0000
     25 H2         -2.4791    2.0656   -0.7420 H         1 <0>         0.0000
     26 H3         -0.9982    1.8189   -1.7000 H         1 <0>         0.0000
     27 H4         -2.5725    1.5208   -2.4351 H         1 <0>         0.0000
     28 H5         -7.1377   -3.1753   -6.8752 H         1 <0>         0.0000
     29 H6         -5.8055   -2.1402   -7.4048 H         1 <0>         0.0000
     30 H7         -5.4597   -3.5807   -6.4618 H         1 <0>         0.0000
     31 H8         -5.7524    0.0570   -5.5097 H         1 <0>         0.0000
     32 H9         -7.2525   -0.3601   -6.3474 H         1 <0>         0.0000
     33 H10        -7.2483   -0.2073   -4.5865 H         1 <0>         0.0000
     34 H11        -5.8412   -3.9407    3.2309 H         1 <0>         0.0000
     35 H12        -4.1763   -3.3209    3.4590 H         1 <0>         0.0000
     36 H13        -4.4955   -5.0745    3.5184 H         1 <0>         0.0000
     37 H14         0.1465    1.1528    0.5641 H         1 <0>         0.0000
     38 H15         0.8663   -0.4292    0.9043 H         1 <0>         0.0000
     39 H16        -7.0630   -2.3280   -2.1528 H         1 <0>         0.0000
     40 H17        -6.5453   -0.7942   -2.8271 H         1 <0>         0.0000
     41 H18        -1.9428   -4.7243   -0.4050 H         1 <0>         0.0000
     42 H19        -3.5926   -5.3832   -0.5587 H         1 <0>         0.0000
     43 H20        -2.5969   -3.6470    1.7610 H         1 <0>         0.0000
     44 H21        -2.8816   -5.4043    1.8555 H         1 <0>         0.0000
     45 H22         2.0209    0.7614   -0.6321 H         1 <0>         0.0000
@<TRIPOS>BOND
     1    1    2 1
     2    1    5 2
     3    1    4 1
     4    2    3 2
     5    2    9 1
     6    3   13 1
     7    3   23 1
     8    4   17 am
     9    4   19 2
    10    5   18 1
    11    5   23 1
    12    6   18 am
    13    6   17 am
    14    6   20 2
    15    7    8 2
    16    7   14 1
    17    7   24 1
    18    8   10 1
    19    8   11 1
    20    9   25 1
    21    9   26 1
    22    9   27 1
    23   10   28 1
    24   10   29 1
    25   10   30 1
    26   11   31 1
    27   11   32 1
    28   11   33 1
    29   12   22 1
    30   12   34 1
    31   12   35 1
    32   12   36 1
    33   13   21 1
    34   13   37 1
    35   13   38 1
    36   14   17 1
    37   14   39 1
    38   14   40 1
    39   15   16 1
    40   15   18 1
    41   15   41 1
    42   15   42 1
    43   16   22 1
    44   16   43 1
    45   16   44 1
    46   21   45 1
