@<TRIPOS>MOLECULE
*****
   23    23     0     0     0
SMALL
NO_CHARGES

@<TRIPOS>ATOM
      1 C1          1.8851   -1.0363   -0.1124 C.ar      1 <0>         0.0000
      2 C2          2.8783   -1.6520    2.0022 C.ar      1 <0>         0.0000
      3 C3          0.8066   -0.4630    0.5610 C.ar      1 <0>         0.0000
      4 C4          1.7997   -1.0786    2.6757 C.ar      1 <0>         0.0000
      5 C5          0.7638   -0.4841    1.9551 C.ar      1 <0>         0.0000
      6 C6          2.9210   -1.6309    0.6081 C.ar      1 <0>         0.0000
      7 C7         -2.3302   -0.7656   -3.1097 C.3       1 <0>         0.0000
      8 C8         -1.9564   -0.2089   -1.7477 C.3       1 <0>         0.0000
      9 C9         -0.4816   -0.4149   -1.4375 C.3       1 <0>         0.0000
     10 O1         -0.2040    0.1166   -0.1428 O.3       1 <0>         0.0000
     11 F1          1.7584   -1.0991    4.0143 F         1 <0>         0.0000
     12 F2         -0.2698    0.0646    2.6079 F         1 <0>         0.0000
     13 S1          4.2995   -2.3632   -0.2515 S.3       1 <0>         0.0000
     14 H1          1.9068   -1.0132   -1.1998 H         1 <0>         0.0000
     15 H2          3.6760   -2.1105    2.5814 H         1 <0>         0.0000
     16 H3         -1.7319   -0.3017   -3.9004 H         1 <0>         0.0000
     17 H4         -2.1540   -1.8454   -3.1399 H         1 <0>         0.0000
     18 H5         -3.3876   -0.5878   -3.3293 H         1 <0>         0.0000
     19 H6         -2.5659   -0.6856   -0.9706 H         1 <0>         0.0000
     20 H7         -2.1956    0.8604   -1.7040 H         1 <0>         0.0000
     21 H8         -0.2268   -1.4795   -1.4391 H         1 <0>         0.0000
     22 H9          0.1475    0.1028   -2.1687 H         1 <0>         0.0000
     23 H10         3.8854   -2.0944   -1.4990 H         1 <0>         0.0000
@<TRIPOS>BOND
     1    1    3 ar
     2    1    6 ar
     3    1   14 1
     4    2    4 ar
     5    2    6 ar
     6    2   15 1
     7    3    5 ar
     8    3   10 1
     9    4    5 ar
    10    4   11 1
    11    5   12 1
    12    6   13 1
    13    7    8 1
    14    7   16 1
    15    7   17 1
    16    7   18 1
    17    8    9 1
    18    8   19 1
    19    8   20 1
    20    9   10 1
    21    9   21 1
    22    9   22 1
    23   13   23 1
