@<TRIPOS>MOLECULE
*****
   16    16     0     0     0
SMALL
NO_CHARGES

@<TRIPOS>ATOM
      1 C1         -0.3434    0.1051    2.6403 C.1       1 <0>         0.0000
      2 C2          1.8851   -1.0363   -0.1124 C.ar      1 <0>         0.0000
      3 C3          0.8066   -0.4630    0.5610 C.ar      1 <0>         0.0000
      4 C4          2.9210   -1.6309    0.6081 C.ar      1 <0>         0.0000
      5 C5          0.7638   -0.4841    1.9551 C.ar      1 <0>         0.0000
      6 C6          2.8783   -1.6520    2.0022 C.ar      1 <0>         0.0000
      7 C7          1.7997   -1.0786    2.6757 C.ar      1 <0>         0.0000
      8 C8          3.9608   -2.2730    2.7490 C.2       1 <0>         0.0000
      9 N1         -1.2425    0.5836    3.1966 N.1       1 <0>         0.0000
     10 O1          4.3345   -1.9403    3.8784 O.2       1 <0>         0.0000
     11 O2          4.5463   -3.2939    2.0648 O.3       1 <0>         0.0000
     12 F1          1.7629   -1.0998    4.0173 F         1 <0>         0.0000
     13 H1          1.9181   -1.0213   -1.1981 H         1 <0>         0.0000
     14 H2          0.0065   -0.0036   -0.0147 H         1 <0>         0.0000
     15 H3          3.7562   -2.0742    0.0723 H         1 <0>         0.0000
     16 H4          5.2776   -3.7202    2.5606 H         1 <0>         0.0000
@<TRIPOS>BOND
     1    1    5 1
     2    1    9 3
     3    2    3 ar
     4    2    4 ar
     5    2   13 1
     6    3    5 ar
     7    3   14 1
     8    4    6 ar
     9    4   15 1
    10    5    7 ar
    11    6    7 ar
    12    6    8 1
    13    7   12 1
    14    8   10 2
    15    8   11 1
    16   11   16 1
