@<TRIPOS>MOLECULE
*****
   43    46     0     0     0
SMALL
NO_CHARGES

@<TRIPOS>ATOM
      1 C1          8.3163   -0.5855   -3.6097 C.ar      1 <0>         0.0000
      2 C2          7.1296   -0.7776   -2.9063 C.ar      1 <0>         0.0000
      3 C3          9.3112   -2.2694   -2.1985 C.ar      1 <0>         0.0000
      4 C4          9.4261   -1.3477   -3.2409 C.ar      1 <0>         0.0000
      5 C5          7.1019   -1.7150   -1.8623 C.ar      1 <0>         0.0000
      6 C6          5.1611    0.7665    1.0693 C.2       1 <0>         0.0000
      7 C7          4.4890    0.1743   -0.9954 C.2       1 <0>         0.0000
      8 C8          2.0137    1.7188    0.0896 C.2       1 <0>         0.0000
      9 C9          5.2946    1.6370    2.2777 C.3       1 <0>         0.0000
     10 C10         4.0866    2.5811    2.4058 C.3       1 <0>         0.0000
     11 C11         3.7810    3.2645    1.0639 C.3       1 <0>         0.0000
     12 C12        -0.2509    1.4971   -0.7567 C.3       1 <0>         0.0000
     13 C13        -1.0329    2.0442   -1.9450 C.3       1 <0>         0.0000
     14 C14         1.5167    2.3486   -2.2935 C.3       1 <0>         0.0000
     15 C15         3.4498    2.2632   -0.0625 C.3       1 <0>         0.0000
     16 C16         5.8300   -1.9479   -1.0675 C.3       1 <0>         0.0000
     17 N1          8.1704   -2.4476   -1.5210 N.ar      1 <0>         0.0000
     18 N2          5.7605   -0.3692    0.8416 N.2       1 <0>         0.0000
     19 N3          4.3913    1.1552   -0.0099 N.am      1 <0>         0.0000
     20 N4          5.3333   -0.7436   -0.4280 N.am      1 <0>         0.0000
     21 N5          1.1356    1.9631   -0.9219 N.am      1 <0>         0.0000
     22 O1          3.9450    0.1679   -2.1069 O.2       1 <0>         0.0000
     23 O2          1.6777    1.1387    1.1250 O.2       1 <0>         0.0000
     24 S1          0.1103    1.8685   -3.3648 S.3       1 <0>         0.0000
     25 Cl1        10.9539   -1.1605   -4.0783 Cl        1 <0>         0.0000
     26 H1          8.3811    0.1285   -4.4253 H         1 <0>         0.0000
     27 H2          6.2321   -0.2207   -3.1610 H         1 <0>         0.0000
     28 H3         10.1644   -2.8765   -1.9029 H         1 <0>         0.0000
     29 H4          5.4125    1.0062    3.1619 H         1 <0>         0.0000
     30 H5          6.2164    2.2249    2.1784 H         1 <0>         0.0000
     31 H6          3.2091    2.0214    2.7342 H         1 <0>         0.0000
     32 H7          4.3029    3.3447    3.1596 H         1 <0>         0.0000
     33 H8          2.9423    3.9591    1.1688 H         1 <0>         0.0000
     34 H9          4.6499    3.8534    0.7453 H         1 <0>         0.0000
     35 H10        -0.6410    1.8593    0.1978 H         1 <0>         0.0000
     36 H11        -0.2730    0.4024   -0.7388 H         1 <0>         0.0000
     37 H12        -1.9361    1.4635   -2.1411 H         1 <0>         0.0000
     38 H13        -1.3051    3.0939   -1.8004 H         1 <0>         0.0000
     39 H14         1.6849    3.4288   -2.3591 H         1 <0>         0.0000
     40 H15         2.3992    1.7969   -2.6227 H         1 <0>         0.0000
     41 H16         3.5754    2.7553   -1.0278 H         1 <0>         0.0000
     42 H17         5.0338   -2.3092   -1.7251 H         1 <0>         0.0000
     43 H18         6.0217   -2.6899   -0.2926 H         1 <0>         0.0000
@<TRIPOS>BOND
     1    1    2 ar
     2    1    4 ar
     3    1   26 1
     4    2    5 ar
     5    2   27 1
     6    3    4 ar
     7    3   17 ar
     8    3   28 1
     9    4   25 1
    10    5   16 1
    11    5   17 ar
    12    6    9 1
    13    6   18 2
    14    6   19 1
    15    7   19 am
    16    7   20 am
    17    7   22 2
    18    8   15 1
    19    8   21 am
    20    8   23 2
    21    9   10 1
    22    9   29 1
    23    9   30 1
    24   10   11 1
    25   10   31 1
    26   10   32 1
    27   11   15 1
    28   11   33 1
    29   11   34 1
    30   12   13 1
    31   12   21 1
    32   12   35 1
    33   12   36 1
    34   13   24 1
    35   13   37 1
    36   13   38 1
    37   14   21 1
    38   14   24 1
    39   14   39 1
    40   14   40 1
    41   15   19 1
    42   15   41 1
    43   16   20 1
    44   16   42 1
    45   16   43 1
    46   18   20 1
