@<TRIPOS>MOLECULE
*****
   47    50     0     0     0
SMALL
NO_CHARGES

@<TRIPOS>ATOM
      1 C1          8.1358   -3.5655    1.0525 C.1       1 <0>         0.0000
      2 C2          7.0585   -7.0965    1.4289 C.ar      1 <0>         0.0000
      3 C3          5.6999   -7.0136    1.0968 C.ar      1 <0>         0.0000
      4 C4          7.8323   -5.9407    1.4039 C.ar      1 <0>         0.0000
      5 C5          5.1284   -5.7941    0.7462 C.ar      1 <0>         0.0000
      6 C6          5.6343   -2.0445    0.1999 C.2       1 <0>         0.0000
      7 C7          4.4792   -1.3024   -0.2006 C.2       1 <0>         0.0000
      8 C8          7.2635   -4.7032    1.0506 C.ar      1 <0>         0.0000
      9 C9          5.8876   -4.6051    0.7118 C.ar      1 <0>         0.0000
     10 C10         5.2407   -3.3573    0.3385 C.2       1 <0>         0.0000
     11 C11         3.4477   -2.1967   -0.2844 C.2       1 <0>         0.0000
     12 C12         0.3483    1.7500    0.2641 C.3       1 <0>         0.0000
     13 C13         0.2756    1.2212   -1.1935 C.3       1 <0>         0.0000
     14 C14        -1.1407   -0.0101    1.3668 C.3       1 <0>         0.0000
     15 C15         1.3724   -0.4268    1.0163 C.3       1 <0>         0.0000
     16 C16        -0.9863   -0.9769   -0.8771 C.3       1 <0>         0.0000
     17 C17         0.2687    0.6074    1.2902 C.3       1 <0>         0.0000
     18 C18         0.3677   -0.3118   -1.2360 C.3       1 <0>         0.0000
     19 C19        -3.1216   -0.7537    0.2235 C.3       1 <0>         0.0000
     20 C20         2.0053   -2.0674   -0.6715 C.3       1 <0>         0.0000
     21 N1          8.8728   -2.6618    1.0647 N.1       1 <0>         0.0000
     22 N2         -1.7834   -0.1997    0.0685 N.3       1 <0>         0.0000
     23 N3          1.5150   -0.7253   -0.4173 N.3       1 <0>         0.0000
     24 O1          3.8907   -3.4475    0.0427 O.3       1 <0>         0.0000
     25 H1          7.5053   -8.0476    1.7026 H         1 <0>         0.0000
     26 H2          5.0821   -7.9076    1.1116 H         1 <0>         0.0000
     27 H3          8.8875   -5.9760    1.6568 H         1 <0>         0.0000
     28 H4          4.0761   -5.7450    0.4918 H         1 <0>         0.0000
     29 H5          6.6256   -1.6506    0.3642 H         1 <0>         0.0000
     30 H6          4.4086   -0.2425   -0.4006 H         1 <0>         0.0000
     31 H7          1.2926    2.2836    0.4183 H         1 <0>         0.0000
     32 H8         -0.4575    2.4666    0.4500 H         1 <0>         0.0000
     33 H9         -0.6562    1.5366   -1.6695 H         1 <0>         0.0000
     34 H10         1.1061    1.6267   -1.7790 H         1 <0>         0.0000
     35 H11        -1.0837   -0.9597    1.9367 H         1 <0>         0.0000
     36 H12        -1.7851    0.6634    1.9446 H         1 <0>         0.0000
     37 H13         2.3280   -0.0465    1.3967 H         1 <0>         0.0000
     38 H14         1.1543   -1.3453    1.5875 H         1 <0>         0.0000
     39 H15        -1.5781   -1.0642   -1.7956 H         1 <0>         0.0000
     40 H16        -0.8080   -2.0111   -0.5200 H         1 <0>         0.0000
     41 H17         0.4709    1.0132    2.2886 H         1 <0>         0.0000
     42 H18         0.6065   -0.6156   -2.2609 H         1 <0>         0.0000
     43 H19        -3.6194   -0.8029   -0.7504 H         1 <0>         0.0000
     44 H20        -3.7168   -0.1059    0.8757 H         1 <0>         0.0000
     45 H21        -3.1230   -1.7709    0.6611 H         1 <0>         0.0000
     46 H22         1.9033   -2.2799   -1.7435 H         1 <0>         0.0000
     47 H23         1.4367   -2.8542   -0.1410 H         1 <0>         0.0000
@<TRIPOS>BOND
     1    1    8 1
     2    1   21 3
     3    2    3 ar
     4    2    4 ar
     5    2   25 1
     6    3    5 ar
     7    3   26 1
     8    4    8 ar
     9    4   27 1
    10    5    9 ar
    11    5   28 1
    12    6    7 1
    13    6   10 2
    14    6   29 1
    15    7   11 2
    16    7   30 1
    17    8    9 ar
    18    9   10 1
    19   10   24 1
    20   11   20 1
    21   11   24 1
    22   12   13 1
    23   12   17 1
    24   12   31 1
    25   12   32 1
    26   13   18 1
    27   13   33 1
    28   13   34 1
    29   14   17 1
    30   14   22 1
    31   14   35 1
    32   14   36 1
    33   15   17 1
    34   15   23 1
    35   15   37 1
    36   15   38 1
    37   16   18 1
    38   16   22 1
    39   16   39 1
    40   16   40 1
    41   17   41 1
    42   18   23 1
    43   18   42 1
    44   19   22 1
    45   19   43 1
    46   19   44 1
    47   19   45 1
    48   20   23 1
    49   20   46 1
    50   20   47 1
