@<TRIPOS>MOLECULE
*****
   20    20     0     0     0
SMALL
NO_CHARGES

@<TRIPOS>ATOM
      1 C1          1.8851   -1.0363   -0.1124 C.ar      1 <0>         0.0000
      2 C2          0.8066   -0.4630    0.5610 C.ar      1 <0>         0.0000
      3 C3          2.9210   -1.6309    0.6081 C.ar      1 <0>         0.0000
      4 C4          0.7638   -0.4841    1.9551 C.ar      1 <0>         0.0000
      5 C5          2.8783   -1.6520    2.0022 C.ar      1 <0>         0.0000
      6 C6          1.7997   -1.0786    2.6757 C.ar      1 <0>         0.0000
      7 C7          3.9735   -2.2786    2.7300 C.2       1 <0>         0.0000
      8 C8          1.7287   -1.0866    4.1677 C.3       1 <0>         0.0000
      9 C9          5.3485   -1.7128    2.5313 C.3       1 <0>         0.0000
     10 O1          3.8546   -3.2396    3.4909 O.2       1 <0>         0.0000
     11 H1          1.9188   -1.0203   -1.1981 H         1 <0>         0.0000
     12 H2          0.0004    0.0000   -0.0006 H         1 <0>         0.0000
     13 H3          3.7565   -2.0732    0.0716 H         1 <0>         0.0000
     14 H4         -0.0813   -0.0350    2.4700 H         1 <0>         0.0000
     15 H5          1.2140   -1.9886    4.5184 H         1 <0>         0.0000
     16 H6          2.7312   -1.0608    4.6121 H         1 <0>         0.0000
     17 H7          1.1900   -0.2079    4.5433 H         1 <0>         0.0000
     18 H8          5.6097   -0.9118    3.2407 H         1 <0>         0.0000
     19 H9          5.5135   -1.3211    1.5156 H         1 <0>         0.0000
     20 H10         6.1499   -2.4598    2.6722 H         1 <0>         0.0000
@<TRIPOS>BOND
     1    1    2 ar
     2    1    3 ar
     3    1   11 1
     4    2    4 ar
     5    2   12 1
     6    3    5 ar
     7    3   13 1
     8    4    6 ar
     9    4   14 1
    10    5    6 ar
    11    5    7 1
    12    6    8 1
    13    7    9 1
    14    7   10 2
    15    8   15 1
    16    8   16 1
    17    8   17 1
    18    9   18 1
    19    9   19 1
    20    9   20 1
