@<TRIPOS>MOLECULE
*****
   30    32     0     0     0
SMALL
NO_CHARGES

@<TRIPOS>ATOM
      1 C1         -1.4575    1.8390    0.1973 C.2       1 <0>         0.0000
      2 C2         -2.6999    1.2951    0.3367 C.2       1 <0>         0.0000
      3 C3         -0.5460    0.7208    0.1615 C.2       1 <0>         0.0000
      4 C4         -1.3072   -0.4108    0.2769 C.2       1 <0>         0.0000
      5 C5          2.4922    1.4307   -1.7596 C.cat     1 <0>         0.0000
      6 C6         -0.8474   -1.8262    0.3322 C.3       1 <0>         0.0000
      7 C7          0.6162   -1.8801   -0.1501 C.3       1 <0>         0.0000
      8 C8          1.4603   -0.7404    0.4434 C.3       1 <0>         0.0000
      9 C9          4.2058    2.3840   -2.9866 C.3       1 <0>         0.0000
     10 C10         4.6706    2.0408   -1.5605 C.3       1 <0>         0.0000
     11 C11         0.9427    0.6569    0.0474 C.3       1 <0>         0.0000
     12 N1          2.9022    1.6956   -3.0099 N.pl3     1 <0>         0.0000
     13 N2          1.3144    0.9890   -1.3772 N.pl3     1 <0>         0.0000
     14 O1         -2.6211   -0.0774    0.3874 O.3       1 <0>         0.0000
     15 O2          3.4332    1.6575   -0.8580 O.3       1 <0>         0.0000
     16 H1         -1.2252    2.8951    0.1471 H         1 <0>         0.0000
     17 H2         -3.6935    1.7113    0.4178 H         1 <0>         0.0000
     18 H3         -0.9245   -2.2000    1.3613 H         1 <0>         0.0000
     19 H4         -1.4860   -2.4682   -0.2829 H         1 <0>         0.0000
     20 H5          1.0598   -2.8413    0.1228 H         1 <0>         0.0000
     21 H6          0.6411   -1.8257   -1.2459 H         1 <0>         0.0000
     22 H7          1.4351   -0.7923    1.5377 H         1 <0>         0.0000
     23 H8          2.5094   -0.8406    0.1479 H         1 <0>         0.0000
     24 H9          4.0796    3.4592   -3.1422 H         1 <0>         0.0000
     25 H10         4.8734    1.9787   -3.7480 H         1 <0>         0.0000
     26 H11         5.3346    1.1763   -1.5231 H         1 <0>         0.0000
     27 H12         5.1008    2.8781   -1.0149 H         1 <0>         0.0000
     28 H13         1.4240    1.4213    0.6619 H         1 <0>         0.0000
     29 H14         2.2696    1.7361   -3.8005 H         1 <0>         0.0000
     30 H15         0.5919    0.8554   -2.0776 H         1 <0>         0.0000
@<TRIPOS>BOND
     1    1    2 2
     2    1    3 1
     3    1   16 1
     4    2   14 1
     5    2   17 1
     6    3    4 2
     7    3   11 1
     8    4    6 1
     9    4   14 1
    10    5   12 1
    11    5   13 2
    12    5   15 1
    13    6    7 1
    14    6   18 1
    15    6   19 1
    16    7    8 1
    17    7   20 1
    18    7   21 1
    19    8   11 1
    20    8   22 1
    21    8   23 1
    22    9   10 1
    23    9   12 1
    24    9   24 1
    25    9   25 1
    26   10   15 1
    27   10   26 1
    28   10   27 1
    29   11   13 1
    30   11   28 1
    31   12   29 1
    32   13   30 1
