@<TRIPOS>MOLECULE
*****
   33    33     0     0     0
SMALL
NO_CHARGES

@<TRIPOS>ATOM
      1 C1         -1.8852    1.1045    5.6017 C.ar      1 <0>         0.0000
      2 C2         -0.9989    1.0262    6.6824 C.ar      1 <0>         0.0000
      3 C3         -0.6522   -0.6410    4.4830 C.ar      1 <0>         0.0000
      4 C4         -1.7238    0.2680    4.4947 C.ar      1 <0>         0.0000
      5 C5          0.0624    0.1255    6.6741 C.ar      1 <0>         0.0000
      6 C6          0.2453   -0.7163    5.5530 C.ar      1 <0>         0.0000
      7 C7         -5.5890    0.4648    2.0843 C.3       1 <0>         0.0000
      8 C8          0.9191   -1.0574    8.5438 C.3       1 <0>         0.0000
      9 C9          1.5809   -2.3771    4.4655 C.3       1 <0>         0.0000
     10 C10        -2.7088    0.2954    3.3472 C.3       1 <0>         0.0000
     11 C11        -3.8486   -0.7230    3.5350 C.3       1 <0>         0.0000
     12 C12        -4.8086   -0.8181    2.3430 C.3       1 <0>         0.0000
     13 O1         -5.7928   -1.8431    2.5658 O.3       1 <0>         0.0000
     14 O2          0.9496    0.1223    7.7287 O.3       1 <0>         0.0000
     15 O3          1.3266   -1.5565    5.6000 O.3       1 <0>         0.0000
     16 H1         -2.7041    1.8195    5.6259 H         1 <0>         0.0000
     17 H2         -1.1082    1.6738    7.5480 H         1 <0>         0.0000
     18 H3         -0.5208   -1.2804    3.6157 H         1 <0>         0.0000
     19 H4         -6.1346    0.7664    2.9850 H         1 <0>         0.0000
     20 H5         -4.9234    1.2801    1.7871 H         1 <0>         0.0000
     21 H6         -6.3142    0.3039    1.2816 H         1 <0>         0.0000
     22 H7          1.6359   -0.8873    9.3499 H         1 <0>         0.0000
     23 H8          1.2112   -1.9435    7.9724 H         1 <0>         0.0000
     24 H9         -0.0818   -1.2040    8.9699 H         1 <0>         0.0000
     25 H10         2.4879   -2.9362    4.6995 H         1 <0>         0.0000
     26 H11         1.7489   -1.7727    3.5657 H         1 <0>         0.0000
     27 H12         0.7579   -3.0800    4.2846 H         1 <0>         0.0000
     28 H13        -3.1291    1.3018    3.2555 H         1 <0>         0.0000
     29 H14        -2.1889    0.0846    2.4040 H         1 <0>         0.0000
     30 H15        -4.4229   -0.4769    4.4360 H         1 <0>         0.0000
     31 H16        -3.4030   -1.7127    3.7098 H         1 <0>         0.0000
     32 H17        -4.2251   -1.0662    1.4407 H         1 <0>         0.0000
     33 H18        -5.3255   -2.6657    2.7814 H         1 <0>         0.0000
@<TRIPOS>BOND
     1    1    2 ar
     2    1    4 ar
     3    1   16 1
     4    2    5 ar
     5    2   17 1
     6    3    4 ar
     7    3    6 ar
     8    3   18 1
     9    4   10 1
    10    5    6 ar
    11    5   14 1
    12    6   15 1
    13    7   12 1
    14    7   19 1
    15    7   20 1
    16    7   21 1
    17    8   14 1
    18    8   22 1
    19    8   23 1
    20    8   24 1
    21    9   15 1
    22    9   25 1
    23    9   26 1
    24    9   27 1
    25   10   11 1
    26   10   28 1
    27   10   29 1
    28   11   12 1
    29   11   30 1
    30   11   31 1
    31   12   13 1
    32   12   32 1
    33   13   33 1
