@<TRIPOS>MOLECULE
*****
   33    33     0     0     0
SMALL
NO_CHARGES

@<TRIPOS>ATOM
      1 C1         -1.6473    0.8311    5.4312 C.ar      1 <0>         0.0000
      2 C2         -0.6921    0.7664    6.4588 C.ar      1 <0>         0.0000
      3 C3         -0.4035   -0.8022    4.1778 C.ar      1 <0>         0.0000
      4 C4         -1.5178    0.0533    4.2838 C.ar      1 <0>         0.0000
      5 C5          0.4097   -0.0805    6.3516 C.ar      1 <0>         0.0000
      6 C6          0.5535   -0.8799    5.1883 C.ar      1 <0>         0.0000
      7 C7         -2.4647    2.0927   -0.2602 C.3       1 <0>         0.0000
      8 C8          1.2773    0.5607    8.4769 C.3       1 <0>         0.0000
      9 C9          1.8426   -2.5070    4.0134 C.3       1 <0>         0.0000
     10 C10        -2.5092    0.1542    3.1469 C.3       1 <0>         0.0000
     11 C11        -2.0215    1.0924    2.0286 C.3       1 <0>         0.0000
     12 C12        -3.0065    1.2150    0.8690 C.3       1 <0>         0.0000
     13 O1         -4.2217    1.7631    1.4121 O.3       1 <0>         0.0000
     14 O2          1.3916   -0.2197    7.2949 O.3       1 <0>         0.0000
     15 O3          1.6561   -1.6894    5.1604 O.3       1 <0>         0.0000
     16 H1         -2.4986    1.4991    5.5376 H         1 <0>         0.0000
     17 H2         -0.8233    1.3821    7.3416 H         1 <0>         0.0000
     18 H3         -0.3002   -1.4142    3.2873 H         1 <0>         0.0000
     19 H4         -2.2546    3.1018    0.1092 H         1 <0>         0.0000
     20 H5         -1.5411    1.6732   -0.6739 H         1 <0>         0.0000
     21 H6         -3.1887    2.1727   -1.0806 H         1 <0>         0.0000
     22 H7          2.1448    0.3055    9.0875 H         1 <0>         0.0000
     23 H8          0.3605    0.3205    9.0308 H         1 <0>         0.0000
     24 H9          1.2945    1.6353    8.2533 H         1 <0>         0.0000
     25 H10         2.7653   -3.0620    4.1899 H         1 <0>         0.0000
     26 H11         1.9508   -1.9040    3.1025 H         1 <0>         0.0000
     27 H12         1.0132   -3.2142    3.8836 H         1 <0>         0.0000
     28 H13        -2.6927   -0.8413    2.7218 H         1 <0>         0.0000
     29 H14        -3.4702    0.5211    3.5168 H         1 <0>         0.0000
     30 H15        -1.0617    0.7329    1.6388 H         1 <0>         0.0000
     31 H16        -1.8419    2.0913    2.4442 H         1 <0>         0.0000
     32 H17        -3.2117    0.2068    0.4727 H         1 <0>         0.0000
     33 H18        -4.8626    1.8491    0.6893 H         1 <0>         0.0000
@<TRIPOS>BOND
     1    1    2 ar
     2    1    4 ar
     3    1   16 1
     4    2    5 ar
     5    2   17 1
     6    3    4 ar
     7    3    6 ar
     8    3   18 1
     9    4   10 1
    10    5    6 ar
    11    5   14 1
    12    6   15 1
    13    7   12 1
    14    7   19 1
    15    7   20 1
    16    7   21 1
    17    8   14 1
    18    8   22 1
    19    8   23 1
    20    8   24 1
    21    9   15 1
    22    9   25 1
    23    9   26 1
    24    9   27 1
    25   10   11 1
    26   10   28 1
    27   10   29 1
    28   11   12 1
    29   11   30 1
    30   11   31 1
    31   12   13 1
    32   12   32 1
    33   13   33 1
