@<TRIPOS>MOLECULE
*****
   54    56     0     0     0
SMALL
NO_CHARGES

@<TRIPOS>ATOM
      1 C1         -2.7174   -3.3728   -7.0990 C.ar      1 <0>         0.0000
      2 C2         -3.1390   -2.1125   -6.6939 C.ar      1 <0>         0.0000
      3 C3         -1.3697   -3.7466   -6.9755 C.ar      1 <0>         0.0000
      4 C4         -0.8529   -1.5261   -6.0702 C.ar      1 <0>         0.0000
      5 C5         -2.2118   -1.1868   -6.2068 C.ar      1 <0>         0.0000
      6 C6         -0.4460   -2.8228   -6.4583 C.ar      1 <0>         0.0000
      7 C7         -0.4785   -6.3379   -9.4785 C.2       1 <0>         0.0000
      8 C8         -2.7168   -6.7363   -8.2739 C.2       1 <0>         0.0000
      9 C9         -0.9830   -5.1510   -7.3383 C.2       1 <0>         0.0000
     10 C10         0.0025   -7.7370   -9.1325 C.3       1 <0>         0.0000
     11 C11        -2.3644   -8.2081   -8.3472 C.3       1 <0>         0.0000
     12 C12        -0.8732   -8.4838   -8.1153 C.3       1 <0>         0.0000
     13 C13         3.5777    2.5895   -5.4302 C.3       1 <0>         0.0000
     14 C14         3.7307    1.4538   -4.3761 C.3       1 <0>         0.0000
     15 C15         2.3596    2.1966   -6.3088 C.3       1 <0>         0.0000
     16 C16         2.7675    0.3398   -4.8286 C.3       1 <0>         0.0000
     17 C17        -1.6047   -5.7274   -8.6307 C.3       1 <0>         0.0000
     18 C18         1.6221    1.1087   -5.5049 C.3       1 <0>         0.0000
     19 C19        -3.5191    2.6701   -7.2778 C.3       1 <0>         0.0000
     20 C20         0.7117    0.2599   -6.3653 C.3       1 <0>         0.0000
     21 C21        -2.9820    1.2482   -7.4264 C.3       1 <0>         0.0000
     22 O1         -0.0175   -5.7006  -10.4078 O.2       1 <0>         0.0000
     23 O2         -3.8297   -6.3351   -7.9820 O.2       1 <0>         0.0000
     24 O3         -0.2184   -5.8148   -6.6613 O.2       1 <0>         0.0000
     25 O4         -4.2724    0.2267   -5.3354 O.2       1 <0>         0.0000
     26 O5         -1.9495    1.2160   -4.9598 O.2       1 <0>         0.0000
     27 O6          0.0527   -0.6952   -5.5006 O.3       1 <0>         0.0000
     28 S1         -2.8894    0.4513   -5.7874 S.o2      1 <0>         0.0000
     29 Cl1         1.2483   -3.2011   -6.3084 Cl        1 <0>         0.0000
     30 H1         -3.4407   -4.0913   -7.4729 H         1 <0>         0.0000
     31 H2         -4.1897   -1.8439   -6.7347 H         1 <0>         0.0000
     32 H3          0.0617   -8.2779  -10.0837 H         1 <0>         0.0000
     33 H4          1.0308   -7.6410   -8.7681 H         1 <0>         0.0000
     34 H5         -3.0066   -8.7429   -7.6428 H         1 <0>         0.0000
     35 H6         -2.6582   -8.5389   -9.3549 H         1 <0>         0.0000
     36 H7         -0.6002   -8.1818   -7.1025 H         1 <0>         0.0000
     37 H8         -0.6870   -9.5589   -8.1934 H         1 <0>         0.0000
     38 H9          3.4099    3.5529   -4.9396 H         1 <0>         0.0000
     39 H10         4.4793    2.7006   -6.0400 H         1 <0>         0.0000
     40 H11         4.7622    1.1000   -4.2880 H         1 <0>         0.0000
     41 H12         3.4337    1.8175   -3.3866 H         1 <0>         0.0000
     42 H13         1.7171    3.0499   -6.5480 H         1 <0>         0.0000
     43 H14         2.7042    1.7744   -7.2619 H         1 <0>         0.0000
     44 H15         3.2529   -0.3097   -5.5694 H         1 <0>         0.0000
     45 H16         2.4249   -0.2976   -4.0099 H         1 <0>         0.0000
     46 H17        -2.0534   -4.9195   -9.2087 H         1 <0>         0.0000
     47 H18         1.0000    1.5804   -4.7347 H         1 <0>         0.0000
     48 H19        -4.5196    2.6662   -6.8386 H         1 <0>         0.0000
     49 H20        -2.8615    3.2721   -6.6464 H         1 <0>         0.0000
     50 H21        -3.5767    3.1381   -8.2650 H         1 <0>         0.0000
     51 H22         1.2792   -0.2838   -7.1320 H         1 <0>         0.0000
     52 H23        -0.0440    0.8833   -6.8555 H         1 <0>         0.0000
     53 H24        -1.9734    1.2286   -7.8464 H         1 <0>         0.0000
     54 H25        -3.6347    0.6175   -8.0353 H         1 <0>         0.0000
@<TRIPOS>BOND
     1    1    2 ar
     2    1    3 ar
     3    1   30 1
     4    2    5 ar
     5    2   31 1
     6    3    6 ar
     7    3    9 1
     8    4    5 ar
     9    4    6 ar
    10    4   27 1
    11    5   28 1
    12    6   29 1
    13    7   10 1
    14    7   17 1
    15    7   22 2
    16    8   11 1
    17    8   17 1
    18    8   23 2
    19    9   17 1
    20    9   24 2
    21   10   12 1
    22   10   32 1
    23   10   33 1
    24   11   12 1
    25   11   34 1
    26   11   35 1
    27   12   36 1
    28   12   37 1
    29   13   14 1
    30   13   15 1
    31   13   38 1
    32   13   39 1
    33   14   16 1
    34   14   40 1
    35   14   41 1
    36   15   18 1
    37   15   42 1
    38   15   43 1
    39   16   18 1
    40   16   44 1
    41   16   45 1
    42   17   46 1
    43   18   20 1
    44   18   47 1
    45   19   21 1
    46   19   48 1
    47   19   49 1
    48   19   50 1
    49   20   27 1
    50   20   51 1
    51   20   52 1
    52   21   28 1
    53   21   53 1
    54   21   54 1
    55   25   28 2
    56   26   28 2
