@<TRIPOS>MOLECULE
*****
   74    76     0     0     0
SMALL
NO_CHARGES

@<TRIPOS>ATOM
      1 C1          1.1580    4.2481    1.0017 C.ar      1 <0>         0.0000
      2 C2          0.9176    4.4952    2.3542 C.ar      1 <0>         0.0000
      3 C3          0.9692    2.9687    0.4689 C.ar      1 <0>         0.0000
      4 C4          0.3119    2.1845    2.6528 C.ar      1 <0>         0.0000
      5 C5          0.4861    3.4587    3.1961 C.ar      1 <0>         0.0000
      6 C6          0.5339    1.9281    1.2930 C.ar      1 <0>         0.0000
      7 C7         -0.8495    4.7931    4.8907 C.3       1 <0>         0.0000
      8 C8         -0.9130   -0.1970    1.2563 C.3       1 <0>         0.0000
      9 C9         -2.1133    3.9584    4.7568 C.3       1 <0>         0.0000
     10 C10        -1.5689   -0.6687   -0.0386 C.3       1 <0>         0.0000
     11 C11         0.2325    3.7209    4.6849 C.3       1 <0>         0.0000
     12 C12         0.3790    0.5106    0.7493 C.3       1 <0>         0.0000
     13 C13         1.5458    4.0214    5.4123 C.3       1 <0>         0.0000
     14 C14         1.6428   -0.3032    1.0544 C.3       1 <0>         0.0000
     15 C15        -3.9952    1.8367    5.1750 C.3       1 <0>         0.0000
     16 C16        -0.2296   -0.8741   -2.9392 C.3       1 <0>         0.0000
     17 C17        -0.7388   -0.3204    5.4630 C.3       1 <0>         0.0000
     18 C18        -1.9688    0.6334    7.4365 C.3       1 <0>         0.0000
     19 C19        -3.1354   -0.8460    5.7760 C.3       1 <0>         0.0000
     20 C20        -2.9270    1.9562   -2.7578 C.3       1 <0>         0.0000
     21 C21        -0.4812    2.3417   -3.1207 C.3       1 <0>         0.0000
     22 C22        -1.7879    0.9225   -4.7331 C.3       1 <0>         0.0000
     23 C23        -2.4899    1.5279    5.0953 C.3       1 <0>         0.0000
     24 C24        -1.3437    0.0378   -2.4006 C.3       1 <0>         0.0000
     25 C25        -2.0819    0.2704    5.9453 C.3       1 <0>         0.0000
     26 C26        -1.6174    1.3137   -3.2530 C.3       1 <0>         0.0000
     27 N1         -1.7880    2.7514    5.5317 N.3       1 <0>         0.0000
     28 N2         -1.1812    0.3920   -0.9723 N.3       1 <0>         0.0000
     29 O1         -0.3332    2.5558    5.3185 O.3       1 <0>         0.0000
     30 O2          0.2558    0.5172   -0.6893 O.3       1 <0>         0.0000
     31 H1          1.4922    5.0570    0.3563 H         1 <0>         0.0000
     32 H2          1.0684    5.4973    2.7495 H         1 <0>         0.0000
     33 H3          1.1536    2.7729   -0.5811 H         1 <0>         0.0000
     34 H4         -0.0029    1.3874    3.3152 H         1 <0>         0.0000
     35 H5         -0.7997    5.6017    4.1604 H         1 <0>         0.0000
     36 H6         -0.7741    5.2121    5.8986 H         1 <0>         0.0000
     37 H7         -1.5631    0.5129    1.7698 H         1 <0>         0.0000
     38 H8         -0.6905   -1.0202    1.9394 H         1 <0>         0.0000
     39 H9         -2.9852    4.4472    5.1958 H         1 <0>         0.0000
     40 H10        -2.3169    3.7401    3.6960 H         1 <0>         0.0000
     41 H11        -1.1901   -1.6579   -0.3413 H         1 <0>         0.0000
     42 H12        -2.6598   -0.7086    0.0247 H         1 <0>         0.0000
     43 H13         1.3532    4.1842    6.4765 H         1 <0>         0.0000
     44 H14         2.0250    4.9115    4.9941 H         1 <0>         0.0000
     45 H15         2.2376    3.1813    5.3036 H         1 <0>         0.0000
     46 H16         1.5257   -1.3311    0.6965 H         1 <0>         0.0000
     47 H17         1.8343   -0.3176    2.1314 H         1 <0>         0.0000
     48 H18         2.5083    0.1445    0.5575 H         1 <0>         0.0000
     49 H19        -4.2981    2.0751    6.1991 H         1 <0>         0.0000
     50 H20        -4.5807    0.9849    4.8290 H         1 <0>         0.0000
     51 H21        -4.2621    2.6816    4.5370 H         1 <0>         0.0000
     52 H22         0.7022   -0.3284   -3.0981 H         1 <0>         0.0000
     53 H23        -0.5352   -1.3272   -3.8854 H         1 <0>         0.0000
     54 H24        -0.0164   -1.6840   -2.2364 H         1 <0>         0.0000
     55 H25        -0.7963   -0.6057    4.4056 H         1 <0>         0.0000
     56 H26         0.0840    0.3821    5.5854 H         1 <0>         0.0000
     57 H27        -0.5085   -1.2276    6.0335 H         1 <0>         0.0000
     58 H28        -2.8988    1.0674    7.8185 H         1 <0>         0.0000
     59 H29        -1.1689    1.3573    7.6053 H         1 <0>         0.0000
     60 H30        -1.7547   -0.2674    8.0236 H         1 <0>         0.0000
     61 H31        -4.0878   -0.6016    6.2546 H         1 <0>         0.0000
     62 H32        -2.7678   -1.7693    6.2359 H         1 <0>         0.0000
     63 H33        -3.3291   -1.0622    4.7179 H         1 <0>         0.0000
     64 H34        -3.7791    1.2808   -2.9060 H         1 <0>         0.0000
     65 H35        -2.8600    2.1954   -1.6932 H         1 <0>         0.0000
     66 H36        -3.1360    2.8804   -3.3083 H         1 <0>         0.0000
     67 H37         0.4906    1.9176   -3.3929 H         1 <0>         0.0000
     68 H38        -0.4155    2.7112   -2.0959 H         1 <0>         0.0000
     69 H39        -0.6700    3.1957   -3.7816 H         1 <0>         0.0000
     70 H40        -0.8486    0.5828   -5.1799 H         1 <0>         0.0000
     71 H41        -2.1342    1.7856   -5.3121 H         1 <0>         0.0000
     72 H42        -2.5300    0.1237   -4.8551 H         1 <0>         0.0000
     73 H43        -2.2467    1.3145    4.0399 H         1 <0>         0.0000
     74 H44        -2.2783   -0.5386   -2.4208 H         1 <0>         0.0000
@<TRIPOS>BOND
     1    1    2 ar
     2    1    3 ar
     3    1   31 1
     4    2    5 ar
     5    2   32 1
     6    3    6 ar
     7    3   33 1
     8    4    5 ar
     9    4    6 ar
    10    4   34 1
    11    5   11 1
    12    6   12 1
    13    7    9 1
    14    7   11 1
    15    7   35 1
    16    7   36 1
    17    8   10 1
    18    8   12 1
    19    8   37 1
    20    8   38 1
    21    9   27 1
    22    9   39 1
    23    9   40 1
    24   10   28 1
    25   10   41 1
    26   10   42 1
    27   11   13 1
    28   11   29 1
    29   12   14 1
    30   12   30 1
    31   13   43 1
    32   13   44 1
    33   13   45 1
    34   14   46 1
    35   14   47 1
    36   14   48 1
    37   15   23 1
    38   15   49 1
    39   15   50 1
    40   15   51 1
    41   16   24 1
    42   16   52 1
    43   16   53 1
    44   16   54 1
    45   17   25 1
    46   17   55 1
    47   17   56 1
    48   17   57 1
    49   18   25 1
    50   18   58 1
    51   18   59 1
    52   18   60 1
    53   19   25 1
    54   19   61 1
    55   19   62 1
    56   19   63 1
    57   20   26 1
    58   20   64 1
    59   20   65 1
    60   20   66 1
    61   21   26 1
    62   21   67 1
    63   21   68 1
    64   21   69 1
    65   22   26 1
    66   22   70 1
    67   22   71 1
    68   22   72 1
    69   23   25 1
    70   23   27 1
    71   23   73 1
    72   24   26 1
    73   24   28 1
    74   24   74 1
    75   27   29 1
    76   28   30 1
