@<TRIPOS>MOLECULE
*****
   50    51     0     0     0
SMALL
NO_CHARGES

@<TRIPOS>ATOM
      1 C1         -1.3344   -3.9680   -5.2396 C.ar      1 <0>         0.0000
      2 C2         -3.2431   -2.5404   -4.8443 C.ar      1 <0>         0.0000
      3 C3         -1.4937   -4.5315   -3.9737 C.ar      1 <0>         0.0000
      4 C4         -3.4024   -3.1041   -3.5783 C.ar      1 <0>         0.0000
      5 C5         -2.2091   -2.9723   -5.6749 C.ar      1 <0>         0.0000
      6 C6         -2.5277   -4.0996   -3.1431 C.ar      1 <0>         0.0000
      7 C7         -1.8345   -3.9388   -0.3776 C.2       1 <0>         0.0000
      8 C8         -2.2549   -2.8334    0.3860 C.2       1 <0>         0.0000
      9 C9         -0.5325   -4.1467    0.0072 C.2       1 <0>         0.0000
     10 C10        -3.5740   -2.1763    0.3778 C.3       1 <0>         0.0000
     11 C11         0.4628   -5.1487   -0.4198 C.3       1 <0>         0.0000
     12 C12         3.1973   -4.2825    3.4343 C.3       1 <0>         0.0000
     13 C13         1.9886   -3.2763    5.2506 C.3       1 <0>         0.0000
     14 C14         0.2537   -1.0183   -6.8114 C.3       1 <0>         0.0000
     15 C15         0.9949   -2.9912    1.6557 C.3       1 <0>         0.0000
     16 C16         0.9527   -3.4962    3.0939 C.3       1 <0>         0.0000
     17 N1         -1.2976   -2.3713    1.1948 N.2       1 <0>         0.0000
     18 N2         -0.2628   -3.1905    0.9416 N.pl3     1 <0>         0.0000
     19 N3         -2.0463   -2.3957   -6.9708 N.pl3     1 <0>         0.0000
     20 N4          2.2103   -3.2691    3.8051 N.3       1 <0>         0.0000
     21 O1         -4.1760   -4.6932   -1.2636 O.2       1 <0>         0.0000
     22 O2         -2.1658   -6.1763   -1.5961 O.2       1 <0>         0.0000
     23 O3         -1.6470   -0.3161   -8.4429 O.2       1 <0>         0.0000
     24 O4         -1.9952    0.0230   -5.9713 O.2       1 <0>         0.0000
     25 S1         -2.7316   -4.8220   -1.5205 S.o2      1 <0>         0.0000
     26 S2         -1.4881   -0.7697   -7.0737 S.o2      1 <0>         0.0000
     27 H1         -0.5256   -4.3117   -5.8793 H         1 <0>         0.0000
     28 H2         -3.9299   -1.7651   -5.1739 H         1 <0>         0.0000
     29 H3         -0.8067   -5.3064   -3.6447 H         1 <0>         0.0000
     30 H4         -4.2111   -2.7599   -2.9390 H         1 <0>         0.0000
     31 H5         -4.2526   -2.6330    1.1180 H         1 <0>         0.0000
     32 H6         -3.5038   -1.0991    0.6103 H         1 <0>         0.0000
     33 H7         -4.0651   -2.2414   -0.6093 H         1 <0>         0.0000
     34 H8          1.0519   -4.7840   -1.2774 H         1 <0>         0.0000
     35 H9          1.1701   -5.4011    0.3889 H         1 <0>         0.0000
     36 H10        -0.0095   -6.1005   -0.7188 H         1 <0>         0.0000
     37 H11         3.3518   -4.2635    2.3453 H         1 <0>         0.0000
     38 H12         4.1491   -4.0707    3.9433 H         1 <0>         0.0000
     39 H13         2.8335   -5.2760    3.7355 H         1 <0>         0.0000
     40 H14         1.2446   -2.5093    5.5118 H         1 <0>         0.0000
     41 H15         1.6195   -4.2653    5.5599 H         1 <0>         0.0000
     42 H16         2.9351   -3.0600    5.7676 H         1 <0>         0.0000
     43 H17         0.7499   -0.0473   -6.8509 H         1 <0>         0.0000
     44 H18         0.3922   -1.4789   -5.8321 H         1 <0>         0.0000
     45 H19         0.6305   -1.6726   -7.5988 H         1 <0>         0.0000
     46 H20         1.2049   -1.9150    1.6398 H         1 <0>         0.0000
     47 H21         1.7905   -3.4848    1.0849 H         1 <0>         0.0000
     48 H22         0.1732   -2.9693    3.6527 H         1 <0>         0.0000
     49 H23         0.7404   -4.5693    3.1366 H         1 <0>         0.0000
     50 H24        -1.6372   -3.0357   -7.6716 H         1 <0>         0.0000
@<TRIPOS>BOND
     1    1    3 ar
     2    1    5 ar
     3    1   27 1
     4    2    4 ar
     5    2    5 ar
     6    2   28 1
     7    3    6 ar
     8    3   29 1
     9    4    6 ar
    10    4   30 1
    11    5   19 1
    12    6   25 1
    13    7    8 1
    14    7    9 2
    15    7   25 1
    16    8   10 1
    17    8   17 2
    18    9   11 1
    19    9   18 1
    20   10   31 1
    21   10   32 1
    22   10   33 1
    23   11   34 1
    24   11   35 1
    25   11   36 1
    26   12   20 1
    27   12   37 1
    28   12   38 1
    29   12   39 1
    30   13   20 1
    31   13   40 1
    32   13   41 1
    33   13   42 1
    34   14   26 1
    35   14   43 1
    36   14   44 1
    37   14   45 1
    38   15   16 1
    39   15   18 1
    40   15   46 1
    41   15   47 1
    42   16   20 1
    43   16   48 1
    44   16   49 1
    45   17   18 1
    46   19   26 1
    47   19   50 1
    48   21   25 2
    49   22   25 2
    50   23   26 2
    51   24   26 2
