@<TRIPOS>MOLECULE
*****
   29    30     0     0     0
SMALL
NO_CHARGES

@<TRIPOS>ATOM
      1 C1          1.8222   -1.0337   -0.1607 C.ar      1 <0>         0.0000
      2 C2          2.9320   -1.4951    0.5472 C.ar      1 <0>         0.0000
      3 C3          0.6836   -0.6112    0.5253 C.ar      1 <0>         0.0000
      4 C4          2.9032   -1.5339    1.9412 C.ar      1 <0>         0.0000
      5 C5          0.6548   -0.6501    1.9193 C.ar      1 <0>         0.0000
      6 C6          1.3052   -0.7245    6.1081 C.2       1 <0>         0.0000
      7 C7          2.1812   -1.8150    5.9493 C.2       1 <0>         0.0000
      8 C8          1.7646   -1.1114    2.6273 C.ar      1 <0>         0.0000
      9 C9          1.0332   -0.3130    4.8262 C.2       1 <0>         0.0000
     10 C10         0.1935    0.7640    4.4023 C.2       1 <0>         0.0000
     11 C11        -2.0815    1.8389    4.3530 C.3       1 <0>         0.0000
     12 C12        -1.7924   -0.3224    5.5123 C.3       1 <0>         0.0000
     13 N1          2.4479   -2.0797    4.6676 N.2       1 <0>         0.0000
     14 N2          1.7352   -1.1497    4.0093 N.pl3     1 <0>         0.0000
     15 N3         -1.1835    0.7615    4.7444 N.am      1 <0>         0.0000
     16 O1          0.7152    1.6902    3.7457 O.2       1 <0>         0.0000
     17 H1          1.8446   -1.0053   -1.2461 H         1 <0>         0.0000
     18 H2          3.8178   -1.8252    0.0121 H         1 <0>         0.0000
     19 H3         -0.1811   -0.2532   -0.0257 H         1 <0>         0.0000
     20 H4          3.7749   -1.8965    2.4806 H         1 <0>         0.0000
     21 H5         -0.2393   -0.3186    2.4418 H         1 <0>         0.0000
     22 H6          0.9269   -0.2999    7.0268 H         1 <0>         0.0000
     23 H7          2.6362   -2.4277    6.7142 H         1 <0>         0.0000
     24 H8         -2.5290    1.6203    3.3800 H         1 <0>         0.0000
     25 H9         -1.5327    2.7821    4.2841 H         1 <0>         0.0000
     26 H10        -2.8807    1.9516    5.0906 H         1 <0>         0.0000
     27 H11        -1.7331   -0.1045    6.5818 H         1 <0>         0.0000
     28 H12        -1.2719   -1.2637    5.3156 H         1 <0>         0.0000
     29 H13        -2.8434   -0.4384    5.2344 H         1 <0>         0.0000
@<TRIPOS>BOND
     1    1    3 ar
     2    1    2 ar
     3    1   17 1
     4    2    4 ar
     5    2   18 1
     6    3    5 ar
     7    3   19 1
     8    4    8 ar
     9    4   20 1
    10    5    8 ar
    11    5   21 1
    12    6    7 1
    13    6    9 2
    14    6   22 1
    15    7   13 2
    16    7   23 1
    17    8   14 1
    18    9   10 1
    19    9   14 1
    20   10   15 am
    21   10   16 2
    22   11   15 1
    23   11   24 1
    24   11   25 1
    25   11   26 1
    26   12   15 1
    27   12   27 1
    28   12   28 1
    29   12   29 1
    30   13   14 1
