@<TRIPOS>MOLECULE
*****
   38    39     0     0     0
SMALL
NO_CHARGES

@<TRIPOS>ATOM
      1 C1         -2.3919    2.3782    2.6694 C.ar      1 <0>         0.0000
      2 C2         -2.9998    2.8363    3.8358 C.ar      1 <0>         0.0000
      3 C3         -1.3194    1.7253    5.1380 C.ar      1 <0>         0.0000
      4 C4         -1.2223    1.5978    2.6893 C.ar      1 <0>         0.0000
      5 C5         -2.4701    2.5157    5.0946 C.ar      1 <0>         0.0000
      6 C6         -0.7087    1.2794    3.9607 C.ar      1 <0>         0.0000
      7 C7         -0.6289    1.2386    1.3039 C.2       1 <0>         0.0000
      8 C8         -4.4999    2.5578    6.7465 C.3       1 <0>         0.0000
      9 C9         -3.2891    2.1294    7.5528 C.3       1 <0>         0.0000
     10 C10        -3.1127    3.0262    6.3494 C.3       1 <0>         0.0000
     11 C11         4.1068    1.6229    2.7713 C.3       1 <0>         0.0000
     12 C12         3.8536   -0.0464    4.6315 C.3       1 <0>         0.0000
     13 C13         3.2277   -0.6760    2.2585 C.3       1 <0>         0.0000
     14 C14         3.2602    0.4549    3.3074 C.3       1 <0>         0.0000
     15 N1          1.9140    1.0624    3.5239 N.pl3     1 <0>         0.0000
     16 O1          0.6340    1.3606    1.1871 O.co2     1 <0>         0.0000
     17 O2         -1.4632    0.9428    0.4261 O.co2     1 <0>         0.0000
     18 O3          0.9444    0.0930    5.6913 O.2       1 <0>         0.0000
     19 O4          0.4226   -1.1242    3.5618 O.2       1 <0>         0.0000
     20 S1          0.6959    0.1609    4.2357 S.o2      1 <0>         0.0000
     21 H1         -2.8186    2.5973    1.6954 H         1 <0>         0.0000
     22 H2         -3.9053    3.4386    3.7765 H         1 <0>         0.0000
     23 H3         -0.8827    1.4406    6.0898 H         1 <0>         0.0000
     24 H4         -4.9683    1.8108    6.1119 H         1 <0>         0.0000
     25 H5         -5.1847    3.2802    7.1838 H         1 <0>         0.0000
     26 H6         -3.1486    2.5591    8.5410 H         1 <0>         0.0000
     27 H7         -2.9635    1.0979    7.4576 H         1 <0>         0.0000
     28 H8         -2.8996    4.0702    6.5773 H         1 <0>         0.0000
     29 H9          3.6731    2.0163    1.8460 H         1 <0>         0.0000
     30 H10         4.1465    2.4336    3.5056 H         1 <0>         0.0000
     31 H11         5.1279    1.2856    2.5580 H         1 <0>         0.0000
     32 H12         3.3027   -0.9053    5.0218 H         1 <0>         0.0000
     33 H13         3.8217    0.7410    5.3900 H         1 <0>         0.0000
     34 H14         4.8957   -0.3480    4.4716 H         1 <0>         0.0000
     35 H15         2.6601   -1.5339    2.6243 H         1 <0>         0.0000
     36 H16         2.7441   -0.3265    1.3416 H         1 <0>         0.0000
     37 H17         4.2504   -0.9984    2.0245 H         1 <0>         0.0000
     38 H18         1.5033    1.3376    2.5892 H         1 <0>         0.0000
@<TRIPOS>BOND
     1    1    2 ar
     2    1    4 ar
     3    1   21 1
     4    2    5 ar
     5    2   22 1
     6    3    5 ar
     7    3    6 ar
     8    3   23 1
     9    4    6 ar
    10    4    7 1
    11    5   10 1
    12    6   20 1
    13    7   16 1
    14    7   17 2
    15    8    9 1
    16    8   10 1
    17    8   24 1
    18    8   25 1
    19    9   10 1
    20    9   26 1
    21    9   27 1
    22   10   28 1
    23   11   14 1
    24   11   29 1
    25   11   30 1
    26   11   31 1
    27   12   14 1
    28   12   32 1
    29   12   33 1
    30   12   34 1
    31   13   14 1
    32   13   35 1
    33   13   36 1
    34   13   37 1
    35   14   15 1
    36   15   20 1
    37   15   38 1
    38   18   20 2
    39   19   20 2
