@<TRIPOS>MOLECULE
*****
   22    22     0     0     0
SMALL
NO_CHARGES

@<TRIPOS>ATOM
      1 C1          0.5726    0.5234   -0.9741 C.2       1 <0>         0.0000
      2 C2         -0.2126   -0.5540   -0.8377 C.2       1 <0>         0.0000
      3 C3          0.9156    1.4053    0.1919 C.3       1 <0>         0.0000
      4 C4         -0.7630   -0.9639    0.4988 C.3       1 <0>         0.0000
      5 C5         -0.0645   -0.2461    1.6609 C.3       1 <0>         0.0000
      6 C6         -1.7590   -2.0618   -3.9978 C.3       1 <0>         0.0000
      7 N1          0.0823    1.1820    1.3792 N.3       1 <0>         0.0000
      8 O1         -2.7345   -0.2423   -2.4079 O.2       1 <0>         0.0000
      9 O2         -2.6575   -2.6535   -1.6247 O.2       1 <0>         0.0000
     10 O3         -0.5305   -1.3466   -1.9191 O.3       1 <0>         0.0000
     11 F1         -0.9531   -1.1912   -4.6521 F         1 <0>         0.0000
     12 F2         -1.1531   -3.2733   -4.0277 F         1 <0>         0.0000
     13 F3         -2.9033   -2.1674   -4.7156 F         1 <0>         0.0000
     14 S1         -2.0842   -1.5356   -2.3465 S.o2      1 <0>         0.0000
     15 H1          0.9803    0.7844   -1.9470 H         1 <0>         0.0000
     16 H2          1.9613    1.2364    0.4717 H         1 <0>         0.0000
     17 H3          0.8372    2.4537   -0.1180 H         1 <0>         0.0000
     18 H4         -1.8351   -0.7433    0.5466 H         1 <0>         0.0000
     19 H5         -0.6462   -2.0489    0.6069 H         1 <0>         0.0000
     20 H6         -0.6259   -0.3866    2.5939 H         1 <0>         0.0000
     21 H7          0.9255   -0.6880    1.8221 H         1 <0>         0.0000
     22 H8          0.5172    1.6387    2.1813 H         1 <0>         0.0000
@<TRIPOS>BOND
     1    1    2 2
     2    1    3 1
     3    1   15 1
     4    2    4 1
     5    2   10 1
     6    3    7 1
     7    3   16 1
     8    3   17 1
     9    4    5 1
    10    4   18 1
    11    4   19 1
    12    5    7 1
    13    5   20 1
    14    5   21 1
    15    6   11 1
    16    6   12 1
    17    6   13 1
    18    6   14 1
    19    7   22 1
    20    8   14 2
    21    9   14 2
    22   10   14 1
