@<TRIPOS>MOLECULE
*****
   33    35     0     0     0
SMALL
NO_CHARGES

@<TRIPOS>ATOM
      1 C1         -0.0236   -1.4593   -0.0328 C.ar      1 <0>         0.0000
      2 C2          0.9568    1.1537    0.0528 C.ar      1 <0>         0.0000
      3 C3          1.2339   -1.2197    0.5342 C.ar      1 <0>         0.0000
      4 C4          1.7295    0.1028    0.5732 C.ar      1 <0>         0.0000
      5 C5         -0.7711   -0.4059   -0.5514 C.ar      1 <0>         0.0000
      6 C6         -0.2877    0.9047   -0.5027 C.ar      1 <0>         0.0000
      7 C7         -2.8404    0.3914   -1.4697 C.cat     1 <0>         0.0000
      8 C8          2.0448   -2.3886    1.0643 C.3       1 <0>         0.0000
      9 C9          3.0710    0.4238    1.2029 C.3       1 <0>         0.0000
     10 C10         3.1779   -1.9581    2.0013 C.3       1 <0>         0.0000
     11 C11         3.9695   -0.8044    1.3801 C.3       1 <0>         0.0000
     12 C12        -2.4406    1.7629   -0.9445 C.3       1 <0>         0.0000
     13 C13        -2.9345    1.9574    0.4935 C.3       1 <0>         0.0000
     14 N1         -2.0280   -0.6122   -1.1957 N.pl3     1 <0>         0.0000
     15 N2         -3.9795    0.2423   -2.1443 N.pl3     1 <0>         0.0000
     16 O1         -1.0301    1.9219   -1.0757 O.3       1 <0>         0.0000
     17 H1         -0.4146   -2.4750   -0.0698 H         1 <0>         0.0000
     18 H2          1.3245    2.1762    0.0738 H         1 <0>         0.0000
     19 H3          1.3784   -3.0977    1.5671 H         1 <0>         0.0000
     20 H4          2.4727   -2.9256    0.2072 H         1 <0>         0.0000
     21 H5          3.5759    1.1916    0.6071 H         1 <0>         0.0000
     22 H6          2.8825    0.8780    2.1851 H         1 <0>         0.0000
     23 H7          2.7633   -1.6409    2.9665 H         1 <0>         0.0000
     24 H8          3.8305   -2.8132    2.2012 H         1 <0>         0.0000
     25 H9          4.3692   -1.1167    0.4072 H         1 <0>         0.0000
     26 H10         4.8274   -0.5410    2.0057 H         1 <0>         0.0000
     27 H11        -2.8694    2.5246   -1.5998 H         1 <0>         0.0000
     28 H12        -2.5195    1.2014    1.1646 H         1 <0>         0.0000
     29 H13        -4.0264    1.9081    0.5398 H         1 <0>         0.0000
     30 H14        -2.6154    2.9440    0.8373 H         1 <0>         0.0000
     31 H15        -2.2528   -1.5582   -1.4960 H         1 <0>         0.0000
     32 H16        -4.3031   -0.6535   -2.4963 H         1 <0>         0.0000
     33 H17        -4.5610    1.0480   -2.3445 H         1 <0>         0.0000
@<TRIPOS>BOND
     1    1    3 ar
     2    1    5 ar
     3    1   17 1
     4    2    4 ar
     5    2    6 ar
     6    2   18 1
     7    3    4 ar
     8    3    8 1
     9    4    9 1
    10    5    6 ar
    11    5   14 1
    12    6   16 1
    13    7   12 1
    14    7   14 2
    15    7   15 1
    16    8   10 1
    17    8   19 1
    18    8   20 1
    19    9   11 1
    20    9   21 1
    21    9   22 1
    22   10   11 1
    23   10   23 1
    24   10   24 1
    25   11   25 1
    26   11   26 1
    27   12   13 1
    28   12   16 1
    29   12   27 1
    30   13   28 1
    31   13   29 1
    32   13   30 1
    33   14   31 1
    34   15   32 1
    35   15   33 1
