@<TRIPOS>MOLECULE
*****
   64    65     0     0     0
SMALL
NO_CHARGES

@<TRIPOS>ATOM
      1 C1          2.9041   -1.7509   -4.4004 C.ar      1 <0>         0.0000
      2 C2          4.0533   -1.2012   -3.8267 C.ar      1 <0>         0.0000
      3 C3          3.3834   -0.5781   -6.4538 C.ar      1 <0>         0.0000
      4 C4          2.5504   -1.4315   -5.7190 C.ar      1 <0>         0.0000
      5 C5          1.2912   -1.9729   -6.3158 C.ar      1 <0>         0.0000
      6 C6          4.5391   -0.0045   -5.9087 C.ar      1 <0>         0.0000
      7 C7          0.1652   -1.1360   -6.4536 C.ar      1 <0>         0.0000
      8 C8          1.2203   -3.3206   -6.7120 C.ar      1 <0>         0.0000
      9 C9          4.8339   -0.3364   -4.5848 C.ar      1 <0>         0.0000
     10 C10        -0.9936   -1.7039   -7.0196 C.ar      1 <0>         0.0000
     11 C11        -0.0025   -3.7992   -7.2183 C.ar      1 <0>         0.0000
     12 C12         4.9623    2.4339   -6.4280 C.3       1 <0>         0.0000
     13 C13         1.3473    5.1429   -7.2090 C.3       1 <0>         0.0000
     14 C14        -3.4381   -1.5100   -6.4583 C.3       1 <0>         0.0000
     15 C15        -2.5976   -0.8941   -8.7730 C.3       1 <0>         0.0000
     16 C16        -0.6780   -5.3786   -9.0615 C.3       1 <0>         0.0000
     17 C17        -1.2907   -5.8653   -6.6438 C.3       1 <0>         0.0000
     18 C18         5.3840    0.9756   -6.6879 C.3       1 <0>         0.0000
     19 C19         0.2134    0.3093   -5.9999 C.3       1 <0>         0.0000
     20 C20         2.4181   -4.2241   -6.5694 C.3       1 <0>         0.0000
     21 C21         1.0704    3.7306   -7.7356 C.3       1 <0>         0.0000
     22 C22         0.4881    1.3108   -7.1366 C.3       1 <0>         0.0000
     23 C23         0.7227    2.7343   -6.6238 C.3       1 <0>         0.0000
     24 C24        -2.2729   -0.9167   -7.2691 C.3       1 <0>         0.0000
     25 C25        -0.2432   -5.2541   -7.5919 C.3       1 <0>         0.0000
     26 N1         -1.0588   -2.9936   -7.3737 N.ar      1 <0>         0.0000
     27 O1          2.2625   -4.9990   -5.3636 O.3       1 <0>         0.0000
     28 F1          5.9427    0.2094   -4.0073 F         1 <0>         0.0000
     29 H1          2.2807   -2.4309   -3.8283 H         1 <0>         0.0000
     30 H2          4.3446   -1.4297   -2.8058 H         1 <0>         0.0000
     31 H3          3.1291   -0.3506   -7.4857 H         1 <0>         0.0000
     32 H4          3.9175    2.5941   -6.7127 H         1 <0>         0.0000
     33 H5          5.5836    3.1272   -7.0049 H         1 <0>         0.0000
     34 H6          5.0652    2.6856   -5.3681 H         1 <0>         0.0000
     35 H7          2.1890    5.1425   -6.5066 H         1 <0>         0.0000
     36 H8          1.5920    5.8339   -8.0229 H         1 <0>         0.0000
     37 H9          0.4757    5.5453   -6.6799 H         1 <0>         0.0000
     38 H10        -3.6144   -2.5479   -6.7536 H         1 <0>         0.0000
     39 H11        -4.3563   -0.9368   -6.6285 H         1 <0>         0.0000
     40 H12        -3.2207   -1.4956   -5.3845 H         1 <0>         0.0000
     41 H13        -2.7451   -1.9123   -9.1438 H         1 <0>         0.0000
     42 H14        -1.7828   -0.4390   -9.3472 H         1 <0>         0.0000
     43 H15        -3.5106   -0.3181   -8.9605 H         1 <0>         0.0000
     44 H16        -1.6058   -4.8253   -9.2315 H         1 <0>         0.0000
     45 H17        -0.8455   -6.4290   -9.3245 H         1 <0>         0.0000
     46 H18         0.0847   -4.9757   -9.7376 H         1 <0>         0.0000
     47 H19        -2.2400   -5.3283   -6.7288 H         1 <0>         0.0000
     48 H20        -0.9521   -5.8088   -5.6044 H         1 <0>         0.0000
     49 H21        -1.4629   -6.9185   -6.8926 H         1 <0>         0.0000
     50 H22         6.4383    0.8506   -6.4236 H         1 <0>         0.0000
     51 H23         5.2920    0.7533   -7.7564 H         1 <0>         0.0000
     52 H24        -0.7240    0.5788   -5.5019 H         1 <0>         0.0000
     53 H25         0.9958    0.4207   -5.2448 H         1 <0>         0.0000
     54 H26         2.5020   -4.8886   -7.4388 H         1 <0>         0.0000
     55 H27         3.3333   -3.6253   -6.5187 H         1 <0>         0.0000
     56 H28         0.2505    3.7624   -8.4652 H         1 <0>         0.0000
     57 H29         1.9502    3.3661   -8.2828 H         1 <0>         0.0000
     58 H30        -0.3452    1.3018   -7.8503 H         1 <0>         0.0000
     59 H31         1.3684    0.9816   -7.6994 H         1 <0>         0.0000
     60 H32        -0.1688    3.0843   -6.0849 H         1 <0>         0.0000
     61 H33         1.5366    2.7183   -5.8860 H         1 <0>         0.0000
     62 H34        -2.1275    0.1158   -6.9439 H         1 <0>         0.0000
     63 H35         0.6831   -5.8157   -7.4545 H         1 <0>         0.0000
     64 H36         3.0552   -5.5500   -5.2615 H         1 <0>         0.0000
@<TRIPOS>BOND
     1    1    2 ar
     2    1    4 ar
     3    1   29 1
     4    2    9 ar
     5    2   30 1
     6    3    4 ar
     7    3    6 ar
     8    3   31 1
     9    4    5 1
    10    5    7 ar
    11    5    8 ar
    12    6    9 ar
    13    6   18 1
    14    7   10 ar
    15    7   19 1
    16    8   11 ar
    17    8   20 1
    18    9   28 1
    19   10   24 1
    20   10   26 ar
    21   11   25 1
    22   11   26 ar
    23   12   18 1
    24   12   32 1
    25   12   33 1
    26   12   34 1
    27   13   21 1
    28   13   35 1
    29   13   36 1
    30   13   37 1
    31   14   24 1
    32   14   38 1
    33   14   39 1
    34   14   40 1
    35   15   24 1
    36   15   41 1
    37   15   42 1
    38   15   43 1
    39   16   25 1
    40   16   44 1
    41   16   45 1
    42   16   46 1
    43   17   25 1
    44   17   47 1
    45   17   48 1
    46   17   49 1
    47   18   50 1
    48   18   51 1
    49   19   22 1
    50   19   52 1
    51   19   53 1
    52   20   27 1
    53   20   54 1
    54   20   55 1
    55   21   23 1
    56   21   56 1
    57   21   57 1
    58   22   23 1
    59   22   58 1
    60   22   59 1
    61   23   60 1
    62   23   61 1
    63   24   62 1
    64   25   63 1
    65   27   64 1
