@<TRIPOS>MOLECULE
*****
   31    32     0     0     0
SMALL
NO_CHARGES

@<TRIPOS>ATOM
      1 C1          1.1342    0.3329    1.1253 C.ar      1 <0>         0.0000
      2 C2         -0.1116    0.2750    1.7537 C.ar      1 <0>         0.0000
      3 C3          2.2641   -0.1251    1.8065 C.ar      1 <0>         0.0000
      4 C4         -0.2344   -0.2597    3.0393 C.ar      1 <0>         0.0000
      5 C5          5.2290   -2.0647    4.2859 C.2       1 <0>         0.0000
      6 C6          4.2128   -2.0666    3.3579 C.2       1 <0>         0.0000
      7 C7          3.8551   -0.5319    4.9239 C.2       1 <0>         0.0000
      8 C8          2.1556   -0.6561    3.0936 C.ar      1 <0>         0.0000
      9 C9          0.8929   -0.7492    3.7122 C.ar      1 <0>         0.0000
     10 C10         2.7006   -2.1660    7.4569 C.3       1 <0>         0.0000
     11 C11        -0.2206   -0.9603    5.8157 C.3       1 <0>         0.0000
     12 C12         0.0087   -1.5864    7.1768 C.3       1 <0>         0.0000
     13 N1          4.9962   -1.1062    5.2545 N.2       1 <0>         0.0000
     14 N2          3.3272   -1.0825    3.7777 N.pl3     1 <0>         0.0000
     15 O1          1.8295    0.4265    7.2745 O.2       1 <0>         0.0000
     16 O2          0.8380   -1.3568    4.9375 O.3       1 <0>         0.0000
     17 S1          1.5233   -0.8730    8.0102 S.o       1 <0>         0.0000
     18 H1          1.2310    0.7493    0.1271 H         1 <0>         0.0000
     19 H2         -0.9980    0.6442    1.2451 H         1 <0>         0.0000
     20 H3          3.2515   -0.0548    1.3590 H         1 <0>         0.0000
     21 H4         -1.2124   -0.3079    3.5045 H         1 <0>         0.0000
     22 H5          6.1084   -2.6956    4.3117 H         1 <0>         0.0000
     23 H6          4.0238   -2.6560    2.4723 H         1 <0>         0.0000
     24 H7          3.3307    0.2310    5.4873 H         1 <0>         0.0000
     25 H8          3.7073   -1.7911    7.6476 H         1 <0>         0.0000
     26 H9          2.5789   -2.3739    6.3952 H         1 <0>         0.0000
     27 H10         2.5080   -3.0591    8.0602 H         1 <0>         0.0000
     28 H11        -1.1905   -1.3046    5.4348 H         1 <0>         0.0000
     29 H12        -0.2271    0.1317    5.8985 H         1 <0>         0.0000
     30 H13        -0.8416   -1.3480    7.8226 H         1 <0>         0.0000
     31 H14         0.1155   -2.6727    7.1176 H         1 <0>         0.0000
@<TRIPOS>BOND
     1    1    2 ar
     2    1    3 ar
     3    1   18 1
     4    2    4 ar
     5    2   19 1
     6    3    8 ar
     7    3   20 1
     8    4    9 ar
     9    4   21 1
    10    5    6 2
    11    5   13 1
    12    5   22 1
    13    6   14 1
    14    6   23 1
    15    7   13 2
    16    7   14 1
    17    7   24 1
    18    8    9 ar
    19    8   14 1
    20    9   16 1
    21   10   17 1
    22   10   25 1
    23   10   26 1
    24   10   27 1
    25   11   12 1
    26   11   16 1
    27   11   28 1
    28   11   29 1
    29   12   17 1
    30   12   30 1
    31   12   31 1
    32   15   17 2
