@<TRIPOS>MOLECULE
*****
   30    31     0     0     0
SMALL
NO_CHARGES

@<TRIPOS>ATOM
      1 C1          1.7447   -0.9230   -0.1921 C.ar      1 <0>         0.0000
      2 C2          0.6509   -0.3339    1.8601 C.ar      1 <0>         0.0000
      3 C3          0.6581   -0.3296    0.4606 C.ar      1 <0>         0.0000
      4 C4          2.7986   -1.5121    0.5171 C.ar      1 <0>         0.0000
      5 C5          1.6880   -0.9138    2.6010 C.ar      1 <0>         0.0000
      6 C6          2.7722   -1.5281    1.9314 C.ar      1 <0>         0.0000
      7 C7          5.0398   -1.0443    3.0006 C.2       1 <0>         0.0000
      8 C8         -0.9047    1.7056   -0.0627 C.3       1 <0>         0.0000
      9 C9         -0.2074    1.3416   -1.3602 C.3       1 <0>         0.0000
     10 C10        -0.4730    0.2762   -0.3168 C.3       1 <0>         0.0000
     11 C11         3.9696   -2.1053   -0.2359 C.3       1 <0>         0.0000
     12 C12         1.6518   -0.8568    4.1129 C.3       1 <0>         0.0000
     13 C13         3.9136   -2.1283    2.7120 C.3       1 <0>         0.0000
     14 O1          5.9350   -0.9548    2.1179 O.co2     1 <0>         0.0000
     15 O2          4.8950   -0.3942    4.0707 O.co2     1 <0>         0.0000
     16 H1          1.7784   -0.9087   -1.2811 H         1 <0>         0.0000
     17 H2         -0.1758    0.1435    2.3854 H         1 <0>         0.0000
     18 H3         -0.3339    2.2695    0.6694 H         1 <0>         0.0000
     19 H4         -1.9655    1.9428   -0.0959 H         1 <0>         0.0000
     20 H5         -0.7941    1.3312   -2.2758 H         1 <0>         0.0000
     21 H6          0.8220    1.6658   -1.4816 H         1 <0>         0.0000
     22 H7         -1.2864   -0.4076   -0.5623 H         1 <0>         0.0000
     23 H8          4.9138   -1.7271    0.1703 H         1 <0>         0.0000
     24 H9          3.9896   -3.2001   -0.1411 H         1 <0>         0.0000
     25 H10         3.9053   -1.8657   -1.3033 H         1 <0>         0.0000
     26 H11         1.4919   -1.8550    4.5444 H         1 <0>         0.0000
     27 H12         2.6050   -0.4839    4.5023 H         1 <0>         0.0000
     28 H13         0.8354   -0.2120    4.4568 H         1 <0>         0.0000
     29 H14         3.5558   -2.5170    3.6685 H         1 <0>         0.0000
     30 H15         4.3633   -2.9524    2.1528 H         1 <0>         0.0000
@<TRIPOS>BOND
     1    1    3 ar
     2    1    4 ar
     3    1   16 1
     4    2    3 ar
     5    2    5 ar
     6    2   17 1
     7    3   10 1
     8    4    6 ar
     9    4   11 1
    10    5    6 ar
    11    5   12 1
    12    6   13 1
    13    7   13 1
    14    7   14 1
    15    7   15 2
    16    8    9 1
    17    8   10 1
    18    8   18 1
    19    8   19 1
    20    9   10 1
    21    9   20 1
    22    9   21 1
    23   10   22 1
    24   11   23 1
    25   11   24 1
    26   11   25 1
    27   12   26 1
    28   12   27 1
    29   12   28 1
    30   13   29 1
    31   13   30 1
