@<TRIPOS>MOLECULE
*****
   31    31     0     0     0
SMALL
NO_CHARGES

@<TRIPOS>ATOM
      1 C1         -1.1605    2.7554    2.6048 C.ar      1 <0>         0.0000
      2 C2         -0.0233    1.7954    4.4868 C.ar      1 <0>         0.0000
      3 C3         -2.2389    3.1167    3.4240 C.ar      1 <0>         0.0000
      4 C4         -1.0834    2.1449    5.3180 C.ar      1 <0>         0.0000
      5 C5         -0.0382    2.0924    3.1122 C.ar      1 <0>         0.0000
      6 C6         -2.2011    2.8079    4.7884 C.ar      1 <0>         0.0000
      7 C7          2.1939   -0.2218    0.9237 C.3       1 <0>         0.0000
      8 C8          1.0960    1.6575    2.2127 C.3       1 <0>         0.0000
      9 C9         -5.3168    3.8859    6.3823 C.3       1 <0>         0.0000
     10 C10        -4.3785    3.7603    5.1942 C.3       1 <0>         0.0000
     11 C11         0.9978    0.1782    1.7888 C.3       1 <0>         0.0000
     12 N1         -0.2416   -0.0203    1.0184 N.3       1 <0>         0.0000
     13 O1         -5.6936    2.6139    6.8996 O.3       1 <0>         0.0000
     14 O2         -3.1958    3.1194    5.6835 O.3       1 <0>         0.0000
     15 H1         -1.2011    2.9958    1.5452 H         1 <0>         0.0000
     16 H2          0.8372    1.2844    4.9142 H         1 <0>         0.0000
     17 H3         -3.0865    3.6337    2.9883 H         1 <0>         0.0000
     18 H4         -1.0639    1.9198    6.3807 H         1 <0>         0.0000
     19 H5          2.2202    0.3812    0.0101 H         1 <0>         0.0000
     20 H6          2.1329   -1.2765    0.6303 H         1 <0>         0.0000
     21 H7          3.1350   -0.0802    1.4658 H         1 <0>         0.0000
     22 H8          1.1107    2.2691    1.3041 H         1 <0>         0.0000
     23 H9          2.0540    1.8059    2.7246 H         1 <0>         0.0000
     24 H10        -6.2389    4.3810    6.0653 H         1 <0>         0.0000
     25 H11        -4.8421    4.5040    7.1580 H         1 <0>         0.0000
     26 H12        -4.1364    4.7509    4.7854 H         1 <0>         0.0000
     27 H13        -4.8405    3.1472    4.4102 H         1 <0>         0.0000
     28 H14         1.0171   -0.4313    2.7098 H         1 <0>         0.0000
     29 H15        -1.0459    0.1912    1.6080 H         1 <0>         0.0000
     30 H16        -0.3259   -1.0014    0.7559 H         1 <0>         0.0000
     31 H17        -4.8702    2.1344    7.0888 H         1 <0>         0.0000
@<TRIPOS>BOND
     1    1    3 ar
     2    1    5 ar
     3    1   15 1
     4    2    4 ar
     5    2    5 ar
     6    2   16 1
     7    3    6 ar
     8    3   17 1
     9    4    6 ar
    10    4   18 1
    11    5    8 1
    12    6   14 1
    13    7   11 1
    14    7   19 1
    15    7   20 1
    16    7   21 1
    17    8   11 1
    18    8   22 1
    19    8   23 1
    20    9   10 1
    21    9   13 1
    22    9   24 1
    23    9   25 1
    24   10   14 1
    25   10   26 1
    26   10   27 1
    27   11   12 1
    28   11   28 1
    29   12   29 1
    30   12   30 1
    31   13   31 1
