@<TRIPOS>MOLECULE
*****
   31    32     0     0     0
SMALL
NO_CHARGES

@<TRIPOS>ATOM
      1 C1          1.8775   -1.1119   -0.0306 C.ar      1 <0>         0.0000
      2 C2          0.7770   -0.5739    2.0368 C.ar      1 <0>         0.0000
      3 C3          0.8339   -0.4676    0.6427 C.ar      1 <0>         0.0000
      4 C4          2.8454   -1.8557    0.6543 C.ar      1 <0>         0.0000
      5 C5          1.7257   -1.3085    2.7571 C.ar      1 <0>         0.0000
      6 C6          2.7660   -1.9640    2.0608 C.ar      1 <0>         0.0000
      7 C7          5.0460   -1.9272    3.2736 C.2       1 <0>         0.0000
      8 C8         -0.5154    1.7376    0.2204 C.3       1 <0>         0.0000
      9 C9          0.1684    1.3856   -1.0854 C.3       1 <0>         0.0000
     10 C10        -0.2147    0.2920   -0.1121 C.3       1 <0>         0.0000
     11 C11         3.9614   -2.5213   -0.1213 C.3       1 <0>         0.0000
     12 C12         1.6264   -1.3798    4.2654 C.3       1 <0>         0.0000
     13 C13         3.8189   -2.7363    2.8230 C.3       1 <0>         0.0000
     14 O1          5.9586   -2.4183    3.8974 O.2       1 <0>         0.0000
     15 O2          5.0638   -0.6116    2.9345 O.3       1 <0>         0.0000
     16 H1          1.9388   -1.0248   -1.1130 H         1 <0>         0.0000
     17 H2         -0.0223   -0.0655    2.5714 H         1 <0>         0.0000
     18 H3          0.0897    2.2107    0.9884 H         1 <0>         0.0000
     19 H4         -1.5493    2.0687    0.1898 H         1 <0>         0.0000
     20 H5         -0.3989    1.4767   -2.0070 H         1 <0>         0.0000
     21 H6          1.2234    1.6277   -1.1767 H         1 <0>         0.0000
     22 H7         -1.0761   -0.3085   -0.4010 H         1 <0>         0.0000
     23 H8          4.9506   -2.2173    0.2383 H         1 <0>         0.0000
     24 H9          3.9121   -3.6135   -0.0420 H         1 <0>         0.0000
     25 H10         3.9022   -2.2655   -1.1818 H         1 <0>         0.0000
     26 H11         1.4371   -2.4034    4.6092 H         1 <0>         0.0000
     27 H12         2.5463   -1.0414    4.7547 H         1 <0>         0.0000
     28 H13         0.8085   -0.7539    4.6298 H         1 <0>         0.0000
     29 H14         4.2144   -3.5678    2.2355 H         1 <0>         0.0000
     30 H15         3.4124   -3.1854    3.7317 H         1 <0>         0.0000
     31 H16         4.2469   -0.4044    2.4397 H         1 <0>         0.0000
@<TRIPOS>BOND
     1    1    3 ar
     2    1    4 ar
     3    1   16 1
     4    2    3 ar
     5    2    5 ar
     6    2   17 1
     7    3   10 1
     8    4    6 ar
     9    4   11 1
    10    5    6 ar
    11    5   12 1
    12    6   13 1
    13    7   13 1
    14    7   14 2
    15    7   15 1
    16    8    9 1
    17    8   10 1
    18    8   18 1
    19    8   19 1
    20    9   10 1
    21    9   20 1
    22    9   21 1
    23   10   22 1
    24   11   23 1
    25   11   24 1
    26   11   25 1
    27   12   26 1
    28   12   27 1
    29   12   28 1
    30   13   29 1
    31   13   30 1
    32   15   31 1
