@<TRIPOS>MOLECULE
*****
   23    24     0     0     0
SMALL
NO_CHARGES

@<TRIPOS>ATOM
      1 C1          2.0995   -0.6424   -2.7205 C.2       1 <0>         0.0000
      2 C2          4.1142    0.0685   -3.7272 C.2       1 <0>         0.0000
      3 C3          0.8078   -0.8586   -1.9685 C.2       1 <0>         0.0000
      4 C4         -1.4866    0.3482    0.0144 C.3       1 <0>         0.0000
      5 C5         -0.5749    0.5115    1.2120 C.3       1 <0>         0.0000
      6 C6         -0.3041   -0.5688    0.1919 C.3       1 <0>         0.0000
      7 C7          4.9999    1.3138   -5.9425 C.3       1 <0>         0.0000
      8 N1          2.5544   -1.5046   -3.5930 N.2       1 <0>         0.0000
      9 N2          3.7287   -1.0927   -4.1668 N.2       1 <0>         0.0000
     10 N3          0.8305   -0.3929   -0.6769 N.am      1 <0>         0.0000
     11 O1         -0.1638   -1.3678   -2.5037 O.2       1 <0>         0.0000
     12 O2          5.6515    2.2127   -3.4725 O.2       1 <0>         0.0000
     13 S1          3.0838    0.7963   -2.5285 S.3       1 <0>         0.0000
     14 S2          5.6327    0.9213   -4.2625 S.o       1 <0>         0.0000
     15 H1         -2.4731   -0.0794    0.1598 H         1 <0>         0.0000
     16 H2         -1.4175    1.0871   -0.7767 H         1 <0>         0.0000
     17 H3          0.0910    1.3696    1.2206 H         1 <0>         0.0000
     18 H4         -0.9310    0.2007    2.1892 H         1 <0>         0.0000
     19 H5         -0.5124   -1.5995    0.4702 H         1 <0>         0.0000
     20 H6          5.7981    1.8563   -6.4537 H         1 <0>         0.0000
     21 H7          4.1146    1.9444   -5.8397 H         1 <0>         0.0000
     22 H8          4.7686    0.3811   -6.4615 H         1 <0>         0.0000
     23 H9          1.7327   -0.2366   -0.2422 H         1 <0>         0.0000
@<TRIPOS>BOND
     1    1    3 1
     2    1    8 2
     3    1   13 1
     4    2    9 2
     5    2   13 1
     6    2   14 1
     7    3   10 am
     8    3   11 2
     9    4    5 1
    10    4    6 1
    11    4   15 1
    12    4   16 1
    13    5    6 1
    14    5   17 1
    15    5   18 1
    16    6   10 1
    17    6   19 1
    18    7   14 1
    19    7   20 1
    20    7   21 1
    21    7   22 1
    22    8    9 1
    23   10   23 1
    24   12   14 2
