@<TRIPOS>MOLECULE
*****
   42    44     0     0     0
SMALL
NO_CHARGES

@<TRIPOS>ATOM
      1 C1         -0.6318   -2.4628    5.7670 C.ar      1 <0>         0.0000
      2 C2         -1.4511   -0.1916    5.8549 C.ar      1 <0>         0.0000
      3 C3          0.3393   -2.0768    4.8431 C.ar      1 <0>         0.0000
      4 C4         -0.4799    0.1944    4.9311 C.ar      1 <0>         0.0000
      5 C5         -1.5270   -1.5202    6.2729 C.ar      1 <0>         0.0000
      6 C6          0.4152   -0.7482    4.4251 C.ar      1 <0>         0.0000
      7 C7         -0.7502   -0.8845   -0.9743 C.3       1 <0>         0.0000
      8 C8         -0.2774    1.1708   -1.0195 C.3       1 <0>         0.0000
      9 C9          1.3596   -0.2685    0.4121 C.3       1 <0>         0.0000
     10 C10        -0.4746    0.1734    1.3909 C.3       1 <0>         0.0000
     11 C11        -0.0396    0.0587   -0.0409 C.3       1 <0>         0.0000
     12 C12        -2.5659   -1.9328    7.2602 C.3       1 <0>         0.0000
     13 C13        -2.2494   -0.8968   -3.4188 C.3       1 <0>         0.0000
     14 C14        -1.5003    1.4767   -3.8075 C.3       1 <0>         0.0000
     15 C15        -1.7586    0.3909   -2.7732 C.3       1 <0>         0.0000
     16 N1         -0.5193    0.1215   -2.0513 N.3       1 <0>         0.0000
     17 N2          0.8123   -0.5043    1.8007 N.pl3     1 <0>         0.0000
     18 O1          1.8881    1.1618    3.4476 O.2       1 <0>         0.0000
     19 O2          2.7447   -1.2057    3.3534 O.2       1 <0>         0.0000
     20 S1          1.6477   -0.2581    3.2555 S.o2      1 <0>         0.0000
     21 H1         -0.6836   -3.5002    6.0866 H         1 <0>         0.0000
     22 H2         -2.1446    0.5495    6.2434 H         1 <0>         0.0000
     23 H3          1.0315   -2.8192    4.4548 H         1 <0>         0.0000
     24 H4         -0.4300    1.2321    4.6119 H         1 <0>         0.0000
     25 H5         -0.2639   -1.8484   -1.1536 H         1 <0>         0.0000
     26 H6         -1.8002   -1.0710   -0.7154 H         1 <0>         0.0000
     27 H7         -1.1377    1.8078   -0.7776 H         1 <0>         0.0000
     28 H8          0.5803    1.8160   -1.2339 H         1 <0>         0.0000
     29 H9          1.8244   -1.1641   -0.0073 H         1 <0>         0.0000
     30 H10         2.0692    0.5651    0.3948 H         1 <0>         0.0000
     31 H11        -0.5368    1.1937    1.7830 H         1 <0>         0.0000
     32 H12        -1.3564   -0.3981    1.6904 H         1 <0>         0.0000
     33 H13        -2.1816   -1.8339    8.2828 H         1 <0>         0.0000
     34 H14        -3.4704   -1.3177    7.1675 H         1 <0>         0.0000
     35 H15        -2.8732   -2.9750    7.1032 H         1 <0>         0.0000
     36 H16        -1.5216   -1.2701   -4.1467 H         1 <0>         0.0000
     37 H17        -2.4171   -1.6803   -2.6713 H         1 <0>         0.0000
     38 H18        -3.1980   -0.7324   -3.9415 H         1 <0>         0.0000
     39 H19        -0.7593    1.1441   -4.5427 H         1 <0>         0.0000
     40 H20        -1.1205    2.3865   -3.3312 H         1 <0>         0.0000
     41 H21        -2.4141    1.7340   -4.3548 H         1 <0>         0.0000
     42 H22        -2.5012    0.7453   -2.0500 H         1 <0>         0.0000
@<TRIPOS>BOND
     1    1    3 ar
     2    1    5 ar
     3    1   21 1
     4    2    4 ar
     5    2    5 ar
     6    2   22 1
     7    3    6 ar
     8    3   23 1
     9    4    6 ar
    10    4   24 1
    11    5   12 1
    12    6   20 1
    13    7   11 1
    14    7   16 1
    15    7   25 1
    16    7   26 1
    17    8   11 1
    18    8   16 1
    19    8   27 1
    20    8   28 1
    21    9   11 1
    22    9   17 1
    23    9   29 1
    24    9   30 1
    25   10   11 1
    26   10   17 1
    27   10   31 1
    28   10   32 1
    29   12   33 1
    30   12   34 1
    31   12   35 1
    32   13   15 1
    33   13   36 1
    34   13   37 1
    35   13   38 1
    36   14   15 1
    37   14   39 1
    38   14   40 1
    39   14   41 1
    40   15   16 1
    41   15   42 1
    42   17   20 1
    43   18   20 2
    44   19   20 2
