@<TRIPOS>MOLECULE
*****
   25    26     0     0     0
SMALL
NO_CHARGES

@<TRIPOS>ATOM
      1 C1          5.9437    3.3771    0.7388 C.ar      1 <0>         0.0000
      2 C2          7.0655    2.7833    0.1630 C.ar      1 <0>         0.0000
      3 C3          4.8785    2.5588    1.1241 C.ar      1 <0>         0.0000
      4 C4          1.3688   -1.1039    2.8239 C.ar      1 <0>         0.0000
      5 C5          0.3963   -0.2746    0.7959 C.ar      1 <0>         0.0000
      6 C6          7.0720    1.3898    0.0044 C.ar      1 <0>         0.0000
      7 C7          0.3327   -2.0312    2.8827 C.ar      1 <0>         0.0000
      8 C8          1.4068   -0.1946    1.7562 C.ar      1 <0>         0.0000
      9 C9          4.9858    1.1730    0.9349 C.ar      1 <0>         0.0000
     10 C10        -0.5914   -1.2519    0.9641 C.ar      1 <0>         0.0000
     11 C11         3.8882    0.2223    1.3663 C.2       1 <0>         0.0000
     12 C12         2.5011    0.8327    1.6343 C.3       1 <0>         0.0000
     13 N1          6.0684    0.5980    0.3838 N.ar      1 <0>         0.0000
     14 N2         -0.6464   -2.1089    1.9627 N.ar      1 <0>         0.0000
     15 O1          4.1048   -0.9646    1.5104 O.2       1 <0>         0.0000
     16 Br1        -1.9918   -1.3657   -0.3612 Br        1 <0>         0.0000
     17 H1          5.8944    4.4529    0.8845 H         1 <0>         0.0000
     18 H2          7.9174    3.3752   -0.1591 H         1 <0>         0.0000
     19 H3          3.9937    2.9972    1.5731 H         1 <0>         0.0000
     20 H4          2.1391   -1.0996    3.5884 H         1 <0>         0.0000
     21 H5          0.3703    0.3942   -0.0581 H         1 <0>         0.0000
     22 H6          7.9288    0.8927   -0.4485 H         1 <0>         0.0000
     23 H7          0.2759   -2.7505    3.6970 H         1 <0>         0.0000
     24 H8          2.2643    1.5524    0.8452 H         1 <0>         0.0000
     25 H9          2.5746    1.4099    2.5657 H         1 <0>         0.0000
@<TRIPOS>BOND
     1    1    2 ar
     2    1    3 ar
     3    1   17 1
     4    2    6 ar
     5    2   18 1
     6    3    9 ar
     7    3   19 1
     8    4    7 ar
     9    4    8 ar
    10    4   20 1
    11    5    8 ar
    12    5   10 ar
    13    5   21 1
    14    6   13 ar
    15    6   22 1
    16    7   14 ar
    17    7   23 1
    18    8   12 1
    19    9   11 1
    20    9   13 ar
    21   10   14 ar
    22   10   16 1
    23   11   12 1
    24   11   15 2
    25   12   24 1
    26   12   25 1
