@<TRIPOS>MOLECULE
*****
   30    31     0     0     0
SMALL
NO_CHARGES

@<TRIPOS>ATOM
      1 C1          5.0041    0.9551   -0.9240 C.ar      1 <0>         0.0000
      2 C2          2.5047   -2.6115    2.0661 C.ar      1 <0>         0.0000
      3 C3          1.7427   -0.9497    0.4577 C.ar      1 <0>         0.0000
      4 C4          5.0737    2.3108   -0.6268 C.ar      1 <0>         0.0000
      5 C5          1.3728   -2.3817    2.8456 C.ar      1 <0>         0.0000
      6 C6          0.5959   -0.7393    1.2186 C.ar      1 <0>         0.0000
      7 C7          4.4405    0.4577    1.3822 C.ar      1 <0>         0.0000
      8 C8          2.7119   -1.8662    0.8968 C.ar      1 <0>         0.0000
      9 C9          4.6466    0.0234    0.0634 C.ar      1 <0>         0.0000
     10 C10         4.8498    2.7609    0.6820 C.ar      1 <0>         0.0000
     11 C11         0.4354   -1.4386    2.4179 C.ar      1 <0>         0.0000
     12 C12         4.5532    1.8101    1.6772 C.ar      1 <0>         0.0000
     13 N1          3.8458   -2.2023    0.0886 N.2       1 <0>         0.0000
     14 N2          4.6554   -1.3487   -0.3446 N.2       1 <0>         0.0000
     15 N3         -0.4935    0.0758    4.4916 N.pl3     1 <0>         0.0000
     16 O1         -2.0372   -0.5338    2.5530 O.2       1 <0>         0.0000
     17 O2         -1.2673   -2.3289    4.2303 O.2       1 <0>         0.0000
     18 O3          4.9518    4.0925    0.9297 O.3       1 <0>         0.0000
     19 S1         -1.0182   -1.1343    3.4187 S.o2      1 <0>         0.0000
     20 Cl1         4.3190    2.3694    3.3307 Cl        1 <0>         0.0000
     21 H1          5.2124    0.5965   -1.9276 H         1 <0>         0.0000
     22 H2          3.2374   -3.3594    2.3549 H         1 <0>         0.0000
     23 H3          1.8875   -0.4119   -0.4739 H         1 <0>         0.0000
     24 H4          5.3243    3.0447   -1.3865 H         1 <0>         0.0000
     25 H5          1.2004   -2.9443    3.7576 H         1 <0>         0.0000
     26 H6         -0.1735   -0.0496    0.8868 H         1 <0>         0.0000
     27 H7          4.2120   -0.2421    2.1766 H         1 <0>         0.0000
     28 H8         -1.0247    0.9297    4.3254 H         1 <0>         0.0000
     29 H9         -0.6172   -0.2514    5.4491 H         1 <0>         0.0000
     30 H10         4.7931    4.2556    1.8770 H         1 <0>         0.0000
@<TRIPOS>BOND
     1    1    4 ar
     2    1    9 ar
     3    1   21 1
     4    2    5 ar
     5    2    8 ar
     6    2   22 1
     7    3    6 ar
     8    3    8 ar
     9    3   23 1
    10    4   10 ar
    11    4   24 1
    12    5   11 ar
    13    5   25 1
    14    6   11 ar
    15    6   26 1
    16    7    9 ar
    17    7   12 ar
    18    7   27 1
    19    8   13 1
    20    9   14 1
    21   10   12 ar
    22   10   18 1
    23   11   19 1
    24   12   20 1
    25   13   14 2
    26   15   19 1
    27   15   28 1
    28   15   29 1
    29   16   19 2
    30   17   19 2
    31   18   30 1
