@<TRIPOS>MOLECULE
*****
   50    52     0     0     0
SMALL
NO_CHARGES

@<TRIPOS>ATOM
      1 C1          2.2262   -4.6997    0.4435 C.ar      1 <0>         0.0000
      2 C2          1.3235   -4.6499    1.5095 C.ar      1 <0>         0.0000
      3 C3          2.0605   -3.8423   -0.6472 C.ar      1 <0>         0.0000
      4 C4          0.2543   -3.7538    1.4616 C.ar      1 <0>         0.0000
      5 C5         -2.8203   -0.8480   -0.1100 C.2       1 <0>         0.0000
      6 C6          0.9977   -2.9315   -0.7129 C.ar      1 <0>         0.0000
      7 C7          0.0843   -2.9126    0.3588 C.ar      1 <0>         0.0000
      8 C8         -2.0866   -0.2382    0.9407 C.2       1 <0>         0.0000
      9 C9         -2.1072   -1.9870   -0.4536 C.2       1 <0>         0.0000
     10 C10         1.2078    1.3641   -0.2726 C.3       1 <0>         0.0000
     11 C11         1.6821    0.0252   -0.8376 C.3       1 <0>         0.0000
     12 C12         0.0717    0.1748   -2.6359 C.3       1 <0>         0.0000
     13 C13        -0.4685    1.5185   -2.1307 C.3       1 <0>         0.0000
     14 C14         0.6068    2.2943   -1.3404 C.3       1 <0>         0.0000
     15 C15        -2.3721    1.0493    1.6545 C.3       1 <0>         0.0000
     16 C16        -2.3931   -3.0468   -1.4721 C.3       1 <0>         0.0000
     17 C17        -1.0976    2.3235   -3.2725 C.3       1 <0>         0.0000
     18 C18         1.6979    2.8991   -2.2348 C.3       1 <0>         0.0000
     19 C19         0.8785   -2.0049   -1.9109 C.3       1 <0>         0.0000
     20 N1         -0.9966   -0.9507    1.2362 N.2       1 <0>         0.0000
     21 N2         -1.0220   -2.0128    0.3765 N.pl3     1 <0>         0.0000
     22 N3          0.5861   -0.6322   -1.5394 N.3       1 <0>         0.0000
     23 O1         -0.1100    3.3684   -0.6869 O.3       1 <0>         0.0000
     24 H1          3.0637   -5.3921    0.4667 H         1 <0>         0.0000
     25 H2          1.4494   -5.3016    2.3697 H         1 <0>         0.0000
     26 H3          2.7822   -3.8632   -1.4607 H         1 <0>         0.0000
     27 H4         -0.4615   -3.6892    2.2755 H         1 <0>         0.0000
     28 H5         -3.7535   -0.5153   -0.5465 H         1 <0>         0.0000
     29 H6          0.4413    1.1590    0.4781 H         1 <0>         0.0000
     30 H7          2.0466    1.8674    0.2276 H         1 <0>         0.0000
     31 H8          2.5607    0.1633   -1.5002 H         1 <0>         0.0000
     32 H9          2.0020   -0.6160   -0.0113 H         1 <0>         0.0000
     33 H10        -0.7534   -0.3714   -3.1069 H         1 <0>         0.0000
     34 H11         0.8336    0.3411   -3.4253 H         1 <0>         0.0000
     35 H12        -1.2509    1.2818   -1.4026 H         1 <0>         0.0000
     36 H13        -3.4262    1.1199    1.9425 H         1 <0>         0.0000
     37 H14        -1.7586    1.1214    2.5562 H         1 <0>         0.0000
     38 H15        -2.1398    1.9100    1.0162 H         1 <0>         0.0000
     39 H16        -2.1707   -2.7009   -2.4879 H         1 <0>         0.0000
     40 H17        -1.8025   -3.9475   -1.2875 H         1 <0>         0.0000
     41 H18        -3.4513   -3.3230   -1.4471 H         1 <0>         0.0000
     42 H19        -0.4003    2.4691   -4.1051 H         1 <0>         0.0000
     43 H20        -1.4210    3.3064   -2.9206 H         1 <0>         0.0000
     44 H21        -1.9749    1.7986   -3.6672 H         1 <0>         0.0000
     45 H22         1.2719    3.6369   -2.9187 H         1 <0>         0.0000
     46 H23         2.2158    2.1382   -2.8260 H         1 <0>         0.0000
     47 H24         2.4523    3.4046   -1.6195 H         1 <0>         0.0000
     48 H25         1.8055   -2.0935   -2.5103 H         1 <0>         0.0000
     49 H26         0.0673   -2.3552   -2.5584 H         1 <0>         0.0000
     50 H27         0.5196    3.8343   -0.1130 H         1 <0>         0.0000
@<TRIPOS>BOND
     1    1    2 ar
     2    1    3 ar
     3    1   24 1
     4    2    4 ar
     5    2   25 1
     6    3    6 ar
     7    3   26 1
     8    4    7 ar
     9    4   27 1
    10    5    8 1
    11    5    9 2
    12    5   28 1
    13    6    7 ar
    14    6   19 1
    15    7   21 1
    16    8   15 1
    17    8   20 2
    18    9   16 1
    19    9   21 1
    20   10   11 1
    21   10   14 1
    22   10   29 1
    23   10   30 1
    24   11   22 1
    25   11   31 1
    26   11   32 1
    27   12   13 1
    28   12   22 1
    29   12   33 1
    30   12   34 1
    31   13   14 1
    32   13   17 1
    33   13   35 1
    34   14   18 1
    35   14   23 1
    36   15   36 1
    37   15   37 1
    38   15   38 1
    39   16   39 1
    40   16   40 1
    41   16   41 1
    42   17   42 1
    43   17   43 1
    44   17   44 1
    45   18   45 1
    46   18   46 1
    47   18   47 1
    48   19   22 1
    49   19   48 1
    50   19   49 1
    51   20   21 1
    52   23   50 1
