@<TRIPOS>MOLECULE
*****
   38    40     0     0     0
SMALL
NO_CHARGES

@<TRIPOS>ATOM
      1 C1         -3.2487    1.9431  -10.0040 C.ar      1 <0>         0.0000
      2 C2         -4.0398    3.0931   -9.9141 C.ar      1 <0>         0.0000
      3 C3         -2.4956    1.5346   -8.9033 C.ar      1 <0>         0.0000
      4 C4         -4.0669    3.8414   -8.7352 C.ar      1 <0>         0.0000
      5 C5         -1.0300    1.0134   -4.6666 C.2       1 <0>         0.0000
      6 C6         -2.5215    2.2716   -7.7158 C.ar      1 <0>         0.0000
      7 C7         -3.2993    3.4363   -7.6406 C.ar      1 <0>         0.0000
      8 C8          0.0612    1.4318   -5.4983 C.2       1 <0>         0.0000
      9 C9         -2.1528    1.2922   -5.4356 C.2       1 <0>         0.0000
     10 C10        -1.0293    0.4217   -3.3403 C.2       1 <0>         0.0000
     11 C11         1.3564   -1.0242   -1.1758 C.3       1 <0>         0.0000
     12 C12        -1.0423   -1.0382   -0.8890 C.3       1 <0>         0.0000
     13 C13         1.2728   -2.4600   -1.6984 C.3       1 <0>         0.0000
     14 C14        -1.0787   -2.4697   -1.4334 C.3       1 <0>         0.0000
     15 C15         1.5245    1.3751   -5.1964 C.3       1 <0>         0.0000
     16 N1         -0.3700    1.9175   -6.6613 N.2       1 <0>         0.0000
     17 N2          0.0806    0.1714   -2.7297 N.2       1 <0>         0.0000
     18 N3         -1.7373    1.8352   -6.6157 N.pl3     1 <0>         0.0000
     19 N4          0.1059   -0.2994   -1.4406 N.pl3     1 <0>         0.0000
     20 O1          0.1466   -3.1456   -1.1413 O.3       1 <0>         0.0000
     21 Cl1        -3.2964    4.4113   -6.1906 Cl        1 <0>         0.0000
     22 Cl2        -3.8185    1.0050   -5.0946 Cl        1 <0>         0.0000
     23 H1         -3.2227    1.3655  -10.9233 H         1 <0>         0.0000
     24 H2         -4.6350    3.4161  -10.7638 H         1 <0>         0.0000
     25 H3         -1.8747    0.6449   -8.9430 H         1 <0>         0.0000
     26 H4         -4.6664    4.7430   -8.6619 H         1 <0>         0.0000
     27 H5         -2.0136    0.2228   -2.9100 H         1 <0>         0.0000
     28 H6          1.5210   -1.0333   -0.0929 H         1 <0>         0.0000
     29 H7          2.1726   -0.4799   -1.6555 H         1 <0>         0.0000
     30 H8         -1.9755   -0.5042   -1.0791 H         1 <0>         0.0000
     31 H9         -0.9058   -1.0694    0.1965 H         1 <0>         0.0000
     32 H10         1.1988   -2.4486   -2.7967 H         1 <0>         0.0000
     33 H11         2.1551   -3.0385   -1.4108 H         1 <0>         0.0000
     34 H12        -1.8720   -3.0512   -0.9556 H         1 <0>         0.0000
     35 H13        -1.2539   -2.4631   -2.5193 H         1 <0>         0.0000
     36 H14         1.8466    0.3436   -5.0239 H         1 <0>         0.0000
     37 H15         2.0871    1.7978   -6.0323 H         1 <0>         0.0000
     38 H16         1.7535    1.9303   -4.2821 H         1 <0>         0.0000
@<TRIPOS>BOND
     1    1    2 ar
     2    1    3 ar
     3    1   23 1
     4    2    4 ar
     5    2   24 1
     6    3    6 ar
     7    3   25 1
     8    4    7 ar
     9    4   26 1
    10    5    8 1
    11    5    9 2
    12    5   10 1
    13    6    7 ar
    14    6   18 1
    15    7   21 1
    16    8   15 1
    17    8   16 2
    18    9   18 1
    19    9   22 1
    20   10   17 2
    21   10   27 1
    22   11   13 1
    23   11   19 1
    24   11   28 1
    25   11   29 1
    26   12   14 1
    27   12   19 1
    28   12   30 1
    29   12   31 1
    30   13   20 1
    31   13   32 1
    32   13   33 1
    33   14   20 1
    34   14   34 1
    35   14   35 1
    36   15   36 1
    37   15   37 1
    38   15   38 1
    39   16   18 1
    40   17   19 1
