@<TRIPOS>MOLECULE
*****
   43    45     0     0     0
SMALL
NO_CHARGES

@<TRIPOS>ATOM
      1 C1         -2.4460   -0.2860   -8.7861 C.ar      1 <0>         0.0000
      2 C2         -3.5936   -0.4667   -7.9854 C.ar      1 <0>         0.0000
      3 C3         -1.1811   -0.2228   -8.2031 C.ar      1 <0>         0.0000
      4 C4         -3.5091   -0.6030   -6.5987 C.ar      1 <0>         0.0000
      5 C5         -1.0908   -0.3429   -6.8133 C.ar      1 <0>         0.0000
      6 C6         -2.2332   -0.5485   -6.0273 C.ar      1 <0>         0.0000
      7 C7          0.0702   -0.2957   -5.9093 C.2       1 <0>         0.0000
      8 C8         -0.2221    0.0165   -2.2368 C.2       1 <0>         0.0000
      9 C9          1.4378   -1.9966    0.0822 C.3       1 <0>         0.0000
     10 C10         1.7277   -0.8963   -0.9458 C.3       1 <0>         0.0000
     11 C11         0.0761    0.5694    0.1252 C.3       1 <0>         0.0000
     12 C12        -0.2478   -0.4894    1.1934 C.3       1 <0>         0.0000
     13 C13         0.9530   -1.4413    1.4367 C.3       1 <0>         0.0000
     14 C14        -0.7744    0.1758    2.4686 C.3       1 <0>         0.0000
     15 C15         2.0996   -0.7802    2.2054 C.3       1 <0>         0.0000
     16 C16         0.2729   -0.7516   -3.4706 C.3       1 <0>         0.0000
     17 N1         -1.8741   -0.7103   -4.6786 N.pl3     1 <0>         0.0000
     18 N2         -0.4878   -0.4026   -4.6380 N.am      1 <0>         0.0000
     19 N3          0.5510   -0.0439   -1.1162 N.am      1 <0>         0.0000
     20 O1          1.2765   -0.2062   -6.1418 O.2       1 <0>         0.0000
     21 O2         -1.2890    0.6414   -2.2790 O.2       1 <0>         0.0000
     22 O3          0.5489   -2.5392    2.2773 O.3       1 <0>         0.0000
     23 H1         -2.5557   -0.1927   -9.8627 H         1 <0>         0.0000
     24 H2         -4.5703   -0.5074   -8.4608 H         1 <0>         0.0000
     25 H3         -0.2833   -0.0756   -8.7966 H         1 <0>         0.0000
     26 H4         -4.3978   -0.7538   -5.9920 H         1 <0>         0.0000
     27 H5          0.6596   -2.6544   -0.3284 H         1 <0>         0.0000
     28 H6          2.3310   -2.6099    0.2407 H         1 <0>         0.0000
     29 H7          2.5653   -0.2713   -0.6131 H         1 <0>         0.0000
     30 H8          2.0237   -1.3366   -1.8961 H         1 <0>         0.0000
     31 H9         -0.8096    1.1577   -0.1111 H         1 <0>         0.0000
     32 H10         0.8489    1.2565    0.4928 H         1 <0>         0.0000
     33 H11        -1.0526   -1.1134    0.7759 H         1 <0>         0.0000
     34 H12        -0.0815    0.9378    2.8408 H         1 <0>         0.0000
     35 H13        -0.9215   -0.5638    3.2599 H         1 <0>         0.0000
     36 H14        -1.7328    0.6685    2.2751 H         1 <0>         0.0000
     37 H15         1.7741   -0.5086    3.2116 H         1 <0>         0.0000
     38 H16         2.4652    0.1209    1.7068 H         1 <0>         0.0000
     39 H17         2.9318   -1.4834    2.3006 H         1 <0>         0.0000
     40 H18         0.2110   -1.8320   -3.2735 H         1 <0>         0.0000
     41 H19         1.3091   -0.5099   -3.7180 H         1 <0>         0.0000
     42 H20        -2.3526   -0.1039   -4.0085 H         1 <0>         0.0000
     43 H21        -0.1730   -3.0104    1.8299 H         1 <0>         0.0000
@<TRIPOS>BOND
     1    1    2 ar
     2    1    3 ar
     3    1   23 1
     4    2    4 ar
     5    2   24 1
     6    3    5 ar
     7    3   25 1
     8    4    6 ar
     9    4   26 1
    10    5    6 ar
    11    5    7 1
    12    6   17 1
    13    7   18 am
    14    7   20 2
    15    8   16 1
    16    8   19 am
    17    8   21 2
    18    9   10 1
    19    9   13 1
    20    9   27 1
    21    9   28 1
    22   10   19 1
    23   10   29 1
    24   10   30 1
    25   11   12 1
    26   11   19 1
    27   11   31 1
    28   11   32 1
    29   12   13 1
    30   12   14 1
    31   12   33 1
    32   13   15 1
    33   13   22 1
    34   14   34 1
    35   14   35 1
    36   14   36 1
    37   15   37 1
    38   15   38 1
    39   15   39 1
    40   16   18 1
    41   16   40 1
    42   16   41 1
    43   17   18 1
    44   17   42 1
    45   22   43 1
