@<TRIPOS>MOLECULE
*****
   31    33     0     0     0
SMALL
NO_CHARGES

@<TRIPOS>ATOM
      1 C1          3.7942   -2.9785   -0.3151 C.ar      1 <0>         0.0000
      2 C2          3.7806   -1.5843   -0.1840 C.ar      1 <0>         0.0000
      3 C3          2.6711   -3.6772   -0.7765 C.ar      1 <0>         0.0000
      4 C4         -1.4983   -6.7140   -3.6915 C.ar      1 <0>         0.0000
      5 C5         -1.6540   -8.5210   -2.0914 C.ar      1 <0>         0.0000
      6 C6          2.6336   -0.8489   -0.5151 C.ar      1 <0>         0.0000
      7 C7         -2.6352   -7.1904   -4.3444 C.ar      1 <0>         0.0000
      8 C8         -2.7973   -8.9994   -2.7282 C.ar      1 <0>         0.0000
      9 C9          1.5239   -2.9478   -1.1071 C.ar      1 <0>         0.0000
     10 C10        -0.9972   -7.3630   -2.5461 C.ar      1 <0>         0.0000
     11 C11         1.5345   -1.5573   -0.9690 C.ar      1 <0>         0.0000
     12 C12        -3.2845   -8.3249   -3.8514 C.ar      1 <0>         0.0000
     13 C13         0.1888   -3.3744   -1.6217 C.2       1 <0>         0.0000
     14 C14         0.2185   -6.9188   -1.8343 C.2       1 <0>         0.0000
     15 N1         -0.7075   -2.4542   -1.8466 N.2       1 <0>         0.0000
     16 N2          0.6261   -5.7259   -1.5587 N.2       1 <0>         0.0000
     17 N3         -0.1530   -4.6651   -1.9122 N.pl3     1 <0>         0.0000
     18 O1         -0.7865   -0.3561   -0.3363 O.2       1 <0>         0.0000
     19 O2          0.0590   -0.1396   -2.7104 O.2       1 <0>         0.0000
     20 S1         -0.0727   -0.9207   -1.4808 S.o2      1 <0>         0.0000
     21 Cl1        -4.7180   -8.9186   -4.6595 Cl        1 <0>         0.0000
     22 H1          4.6922   -3.5311   -0.0535 H         1 <0>         0.0000
     23 H2          4.6652   -1.0668    0.1768 H         1 <0>         0.0000
     24 H3          2.6823   -4.7545   -0.8725 H         1 <0>         0.0000
     25 H4         -0.9782   -5.8578   -4.1109 H         1 <0>         0.0000
     26 H5         -1.2709   -9.0481   -1.2210 H         1 <0>         0.0000
     27 H6          2.6063    0.2324   -0.4208 H         1 <0>         0.0000
     28 H7         -3.0102   -6.6903   -5.2316 H         1 <0>         0.0000
     29 H8         -3.3049   -9.8864   -2.3630 H         1 <0>         0.0000
     30 H9          0.8752   -7.6994   -1.4529 H         1 <0>         0.0000
     31 H10        -1.1208   -4.7992   -2.2064 H         1 <0>         0.0000
@<TRIPOS>BOND
     1    1    2 ar
     2    1    3 ar
     3    1   22 1
     4    2    6 ar
     5    2   23 1
     6    3    9 ar
     7    3   24 1
     8    4    7 ar
     9    4   10 ar
    10    4   25 1
    11    5    8 ar
    12    5   10 ar
    13    5   26 1
    14    6   11 ar
    15    6   27 1
    16    7   12 ar
    17    7   28 1
    18    8   12 ar
    19    8   29 1
    20    9   11 ar
    21    9   13 1
    22   10   14 1
    23   11   20 1
    24   12   21 1
    25   13   15 2
    26   13   17 1
    27   14   16 2
    28   14   30 1
    29   15   20 1
    30   16   17 1
    31   17   31 1
    32   18   20 2
    33   19   20 2
