@<TRIPOS>MOLECULE
*****
   27    28     0     0     0
SMALL
NO_CHARGES

@<TRIPOS>ATOM
      1 C1          2.1319   -1.2489    0.0599 C.ar      1 <0>         0.0000
      2 C2          2.8604   -2.4822    2.0018 C.ar      1 <0>         0.0000
      3 C3          1.0094   -0.8006    0.7567 C.ar      1 <0>         0.0000
      4 C4          1.7420   -2.0391    2.7159 C.ar      1 <0>         0.0000
      5 C5          3.1199   -3.9141   -3.2415 C.2       1 <0>         0.0000
      6 C6          3.0702   -2.0906    0.6750 C.ar      1 <0>         0.0000
      7 C7          0.8247   -1.1999    2.0836 C.ar      1 <0>         0.0000
      8 C8          3.8344   -2.7343   -3.5883 C.2       1 <0>         0.0000
      9 C9          3.2264   -4.0017   -1.8590 C.2       1 <0>         0.0000
     10 C10         4.0482   -2.1517   -4.9534 C.3       1 <0>         0.0000
     11 C11         4.2910   -2.5648   -0.0939 C.3       1 <0>         0.0000
     12 N1          4.3370   -2.1326   -2.5079 N.2       1 <0>         0.0000
     13 N2          3.9804   -2.9407   -1.4577 N.pl3     1 <0>         0.0000
     14 N3          2.7852   -4.9567   -0.9301 N.pl3     1 <0>         0.0000
     15 Cl1        -0.5899   -0.6443    2.9648 Cl        1 <0>         0.0000
     16 H1          2.2811   -0.9494   -0.9742 H         1 <0>         0.0000
     17 H2          3.5718   -3.1449    2.4898 H         1 <0>         0.0000
     18 H3          0.2839   -0.1493    0.2791 H         1 <0>         0.0000
     19 H4          1.5818   -2.3467    3.7444 H         1 <0>         0.0000
     20 H5          2.5969   -4.5949   -3.9006 H         1 <0>         0.0000
     21 H6          3.0951   -1.9707   -5.4624 H         1 <0>         0.0000
     22 H7          4.5849   -1.2034   -4.8733 H         1 <0>         0.0000
     23 H8          4.6348   -2.8280   -5.5853 H         1 <0>         0.0000
     24 H9          5.0380   -1.7705   -0.1649 H         1 <0>         0.0000
     25 H10         4.7487   -3.4177    0.4178 H         1 <0>         0.0000
     26 H11         2.2230   -5.6716   -1.3804 H         1 <0>         0.0000
     27 H12         2.2527   -4.5415   -0.1676 H         1 <0>         0.0000
@<TRIPOS>BOND
     1    1    3 ar
     2    1    6 ar
     3    1   16 1
     4    2    4 ar
     5    2    6 ar
     6    2   17 1
     7    3    7 ar
     8    3   18 1
     9    4    7 ar
    10    4   19 1
    11    5    8 1
    12    5    9 2
    13    5   20 1
    14    6   11 1
    15    7   15 1
    16    8   10 1
    17    8   12 2
    18    9   13 1
    19    9   14 1
    20   10   21 1
    21   10   22 1
    22   10   23 1
    23   11   13 1
    24   11   24 1
    25   11   25 1
    26   12   13 1
    27   14   26 1
    28   14   27 1
