@<TRIPOS>MOLECULE
*****
   42    45     0     0     0
SMALL
NO_CHARGES

@<TRIPOS>ATOM
      1 C1          0.8433   -1.7834    1.7270 C.ar      1 <0>         0.0000
      2 C2         -0.0611   -2.0431    0.6918 C.ar      1 <0>         0.0000
      3 C3          0.9508   -2.6757    2.8045 C.ar      1 <0>         0.0000
      4 C4         -0.8700   -3.1883    0.6955 C.ar      1 <0>         0.0000
      5 C5         -4.9416   -5.9968    2.8247 C.ar      1 <0>         0.0000
      6 C6         -3.9023   -7.8595    3.9455 C.ar      1 <0>         0.0000
      7 C7          0.1554   -3.8151    2.8208 C.ar      1 <0>         0.0000
      8 C8         -3.9651   -6.9973    2.8465 C.ar      1 <0>         0.0000
      9 C9         -0.7419   -4.0708    1.7722 C.ar      1 <0>         0.0000
     10 C10        -5.8405   -5.8444    3.8812 C.ar      1 <0>         0.0000
     11 C11        -5.7598   -6.6853    5.0163 C.ar      1 <0>         0.0000
     12 C12        -4.7866   -7.6955    5.0120 C.ar      1 <0>         0.0000
     13 C13        -2.4206   -5.8174    1.2332 C.2       1 <0>         0.0000
     14 C14         0.0338   -4.8918    3.8752 C.3       1 <0>         0.0000
     15 C15        -8.1640   -4.7365    5.7771 C.3       1 <0>         0.0000
     16 C16        -0.8065   -5.9811    3.1734 C.3       1 <0>         0.0000
     17 C17        -8.0773   -5.0922    4.2932 C.3       1 <0>         0.0000
     18 C18        -6.9302   -5.2479    6.5203 C.3       1 <0>         0.0000
     19 C19        -3.0036   -7.1566    1.6813 C.3       1 <0>         0.0000
     20 N1         -1.4186   -5.2942    2.0102 N.am      1 <0>         0.0000
     21 O1         -2.8707   -5.2370    0.2436 O.2       1 <0>         0.0000
     22 O2         -6.7628   -4.8301    3.7645 O.3       1 <0>         0.0000
     23 O3         -6.5863   -6.5847    6.1045 O.3       1 <0>         0.0000
     24 Cl1        -4.6613   -8.7607    6.3977 Cl        1 <0>         0.0000
     25 H1          1.4611   -0.8899    1.6981 H         1 <0>         0.0000
     26 H2         -0.1422   -1.3460   -0.1383 H         1 <0>         0.0000
     27 H3          1.6453   -2.4773    3.6177 H         1 <0>         0.0000
     28 H4         -1.5721   -3.3910   -0.1013 H         1 <0>         0.0000
     29 H5         -5.0316   -5.3238    1.9770 H         1 <0>         0.0000
     30 H6         -3.1642   -8.6549    3.9876 H         1 <0>         0.0000
     31 H7          1.0001   -5.2795    4.2087 H         1 <0>         0.0000
     32 H8         -0.4889   -4.5047    4.7576 H         1 <0>         0.0000
     33 H9         -8.2301   -3.6510    5.9121 H         1 <0>         0.0000
     34 H10        -9.0770   -5.1793    6.1908 H         1 <0>         0.0000
     35 H11        -0.1689   -6.7997    2.8185 H         1 <0>         0.0000
     36 H12        -1.5763   -6.3947    3.8242 H         1 <0>         0.0000
     37 H13        -8.3285   -6.1447    4.1292 H         1 <0>         0.0000
     38 H14        -8.7584   -4.4798    3.6978 H         1 <0>         0.0000
     39 H15        -6.0726   -4.5884    6.3548 H         1 <0>         0.0000
     40 H16        -7.1105   -5.3156    7.5955 H         1 <0>         0.0000
     41 H17        -2.2157   -7.8683    1.9446 H         1 <0>         0.0000
     42 H18        -3.5301   -7.5514    0.8086 H         1 <0>         0.0000
@<TRIPOS>BOND
     1    1    2 ar
     2    1    3 ar
     3    1   25 1
     4    2    4 ar
     5    2   26 1
     6    3    7 ar
     7    3   27 1
     8    4    9 ar
     9    4   28 1
    10    5    8 ar
    11    5   10 ar
    12    5   29 1
    13    6    8 ar
    14    6   12 ar
    15    6   30 1
    16    7    9 ar
    17    7   14 1
    18    8   19 1
    19    9   20 1
    20   10   11 ar
    21   10   22 1
    22   11   12 ar
    23   11   23 1
    24   12   24 1
    25   13   19 1
    26   13   20 am
    27   13   21 2
    28   14   16 1
    29   14   31 1
    30   14   32 1
    31   15   17 1
    32   15   18 1
    33   15   33 1
    34   15   34 1
    35   16   20 1
    36   16   35 1
    37   16   36 1
    38   17   22 1
    39   17   37 1
    40   17   38 1
    41   18   23 1
    42   18   39 1
    43   18   40 1
    44   19   41 1
    45   19   42 1
