@<TRIPOS>MOLECULE
*****
   35    38     0     0     0
SMALL
NO_CHARGES

@<TRIPOS>ATOM
      1 C1          6.6675   -5.4347   -4.1076 C.ar      1 <0>         0.0000
      2 C2          5.3229   -4.9844   -4.1592 C.ar      1 <0>         0.0000
      3 C3          6.9353    3.9520   -4.2022 C.ar      1 <0>         0.0000
      4 C4          6.0066    4.8210   -3.5899 C.ar      1 <0>         0.0000
      5 C5          7.6264   -2.1895   -0.6096 C.ar      1 <0>         0.0000
      6 C6          7.5575   -4.8640   -3.2228 C.ar      1 <0>         0.0000
      7 C7          4.8956   -3.9677   -3.3308 C.ar      1 <0>         0.0000
      8 C8          6.8218    2.5756   -4.0509 C.ar      1 <0>         0.0000
      9 C9          8.0515   -3.2127   -1.4317 C.ar      1 <0>         0.0000
     10 C10         6.2955   -1.7164   -0.6732 C.ar      1 <0>         0.0000
     11 C11         4.9564    4.3259   -2.8204 C.ar      1 <0>         0.0000
     12 C12         7.1505   -3.8155   -2.3514 C.ar      1 <0>         0.0000
     13 C13         5.7931   -3.3595   -2.4116 C.ar      1 <0>         0.0000
     14 C14         5.7656    2.0593   -3.2765 C.ar      1 <0>         0.0000
     15 C15         5.3821   -2.2789   -1.5585 C.ar      1 <0>         0.0000
     16 C16         5.4733    0.6773   -2.9912 C.2       1 <0>         0.0000
     17 C17         4.8380    2.9376   -2.6724 C.ar      1 <0>         0.0000
     18 C18         4.3615    0.5044   -2.1840 C.2       1 <0>         0.0000
     19 C19         3.6391   -0.6855   -1.7484 C.2       1 <0>         0.0000
     20 N1          4.0323   -1.8966   -1.5597 N.2       1 <0>         0.0000
     21 O1          6.2522   -0.2639   -3.5693 O.3       1 <0>         0.0000
     22 S1          3.6204    2.0691   -1.7683 S.3       1 <0>         0.0000
     23 H1          6.9927   -6.2341   -4.7684 H         1 <0>         0.0000
     24 H2          4.6275   -5.4475   -4.8544 H         1 <0>         0.0000
     25 H3          7.7454    4.3673   -4.7953 H         1 <0>         0.0000
     26 H4          6.1103    5.8948   -3.7207 H         1 <0>         0.0000
     27 H5          8.3161   -1.7303    0.0935 H         1 <0>         0.0000
     28 H6          8.5883   -5.2082   -3.1804 H         1 <0>         0.0000
     29 H7          3.8674   -3.6216   -3.3586 H         1 <0>         0.0000
     30 H8          7.5296    1.8937   -4.5123 H         1 <0>         0.0000
     31 H9          9.0782   -3.5672   -1.3875 H         1 <0>         0.0000
     32 H10         5.9723   -0.9109   -0.0207 H         1 <0>         0.0000
     33 H11         4.2450    5.0004   -2.3521 H         1 <0>         0.0000
     34 H12         2.5730   -0.5154   -1.5692 H         1 <0>         0.0000
     35 H13         6.1327   -1.1278   -3.1291 H         1 <0>         0.0000
@<TRIPOS>BOND
     1    1    2 ar
     2    1    6 ar
     3    1   23 1
     4    2    7 ar
     5    2   24 1
     6    3    4 ar
     7    3    8 ar
     8    3   25 1
     9    4   11 ar
    10    4   26 1
    11    5    9 ar
    12    5   10 ar
    13    5   27 1
    14    6   12 ar
    15    6   28 1
    16    7   13 ar
    17    7   29 1
    18    8   14 ar
    19    8   30 1
    20    9   12 ar
    21    9   31 1
    22   10   15 ar
    23   10   32 1
    24   11   17 ar
    25   11   33 1
    26   12   13 ar
    27   13   15 ar
    28   14   16 1
    29   14   17 ar
    30   15   20 1
    31   16   18 2
    32   16   21 1
    33   17   22 1
    34   18   19 1
    35   18   22 1
    36   19   20 2
    37   19   34 1
    38   21   35 1
