@<TRIPOS>MOLECULE
*****
   25    26     0     0     0
SMALL
NO_CHARGES

@<TRIPOS>ATOM
      1 C1          5.1354   -0.6246    4.1655 C.ar      1 <0>         0.0000
      2 C2          6.3204   -1.3176    3.9236 C.ar      1 <0>         0.0000
      3 C3          4.3537   -0.2382    3.0744 C.ar      1 <0>         0.0000
      4 C4          0.7409   -0.7010    2.3027 C.ar      1 <0>         0.0000
      5 C5          1.9538   -2.2601    0.9445 C.ar      1 <0>         0.0000
      6 C6          6.6732   -1.5874    2.5935 C.ar      1 <0>         0.0000
      7 C7          0.0352   -1.7819    2.8285 C.ar      1 <0>         0.0000
      8 C8          1.7279   -0.9363    1.3355 C.ar      1 <0>         0.0000
      9 C9          4.7988   -0.5443    1.7806 C.ar      1 <0>         0.0000
     10 C10         1.1868   -3.2600    1.5497 C.ar      1 <0>         0.0000
     11 C11         4.0147   -0.1318    0.5545 C.2       1 <0>         0.0000
     12 C12         2.5264    0.1941    0.7234 C.3       1 <0>         0.0000
     13 N1          5.9424   -1.2092    1.5440 N.ar      1 <0>         0.0000
     14 N2          0.2542   -3.0557    2.4626 N.ar      1 <0>         0.0000
     15 O1          4.5396   -0.0708   -0.5420 O.2       1 <0>         0.0000
     16 Br1         1.5057   -5.0887    1.0317 Br        1 <0>         0.0000
     17 H1          4.8203   -0.3944    5.1797 H         1 <0>         0.0000
     18 H2          6.9591   -1.6485    4.7375 H         1 <0>         0.0000
     19 H3          3.4212    0.2909    3.2357 H         1 <0>         0.0000
     20 H4          0.5214    0.3078    2.6428 H         1 <0>         0.0000
     21 H5          2.7040   -2.5128    0.2024 H         1 <0>         0.0000
     22 H6          7.5873   -2.1349    2.3680 H         1 <0>         0.0000
     23 H7         -0.7382   -1.6290    3.5788 H         1 <0>         0.0000
     24 H8          2.1509    0.4246   -0.2774 H         1 <0>         0.0000
     25 H9          2.4134    1.1008    1.3282 H         1 <0>         0.0000
@<TRIPOS>BOND
     1    1    2 ar
     2    1    3 ar
     3    1   17 1
     4    2    6 ar
     5    2   18 1
     6    3    9 ar
     7    3   19 1
     8    4    7 ar
     9    4    8 ar
    10    4   20 1
    11    5    8 ar
    12    5   10 ar
    13    5   21 1
    14    6   13 ar
    15    6   22 1
    16    7   14 ar
    17    7   23 1
    18    8   12 1
    19    9   11 1
    20    9   13 ar
    21   10   14 ar
    22   10   16 1
    23   11   12 1
    24   11   15 2
    25   12   24 1
    26   12   25 1
