@<TRIPOS>MOLECULE
*****
   32    33     0     0     0
SMALL
NO_CHARGES

@<TRIPOS>ATOM
      1 C1          0.5511   -5.4413   -0.2119 C.2       1 <0>         0.0000
      2 C2          0.0260   -1.5480   -1.9559 C.2       1 <0>         0.0000
      3 C3         -0.7689   -5.4326    0.3576 C.2       1 <0>         0.0000
      4 C4          0.2643   -1.0537   -0.6382 C.2       1 <0>         0.0000
      5 C5          0.5122   -2.8625   -1.9978 C.2       1 <0>         0.0000
      6 C6          0.6711   -6.6880   -0.7595 C.2       1 <0>         0.0000
      7 C7         -1.4609   -4.3100    1.0668 C.3       1 <0>         0.0000
      8 C8         -0.0484    0.2804   -0.0407 C.3       1 <0>         0.0000
      9 C9          0.5497   -3.8848   -3.0861 C.3       1 <0>         0.0000
     10 C10         1.7486   -7.3820   -1.5200 C.3       1 <0>         0.0000
     11 C11         1.5449   -4.3206   -0.2030 C.3       1 <0>         0.0000
     12 N1          0.8492   -2.0035    0.0839 N.2       1 <0>         0.0000
     13 N2         -1.3783   -6.5815    0.1682 N.2       1 <0>         0.0000
     14 N3          0.9945   -3.0796   -0.7537 N.pl3     1 <0>         0.0000
     15 N4         -0.5918   -0.8436   -3.0320 N.pl3     1 <0>         0.0000
     16 O1         -0.7738   -1.4449   -4.1052 O.3       1 <0>         0.0000
     17 O2         -0.9189    0.3372   -2.8348 O.2       1 <0>         0.0000
     18 O3         -0.4643   -7.3877   -0.5405 O.3       1 <0>         0.0000
     19 H1         -1.6517   -3.4793    0.3803 H         1 <0>         0.0000
     20 H2         -2.4125   -4.6561    1.4749 H         1 <0>         0.0000
     21 H3         -0.8407   -3.9177    1.8780 H         1 <0>         0.0000
     22 H4         -1.1182    0.4965   -0.1059 H         1 <0>         0.0000
     23 H5          0.2637    0.2870    1.0058 H         1 <0>         0.0000
     24 H6          0.4658    1.0797   -0.5811 H         1 <0>         0.0000
     25 H7          0.6125   -3.3939   -4.0562 H         1 <0>         0.0000
     26 H8          1.3997   -4.5593   -2.9608 H         1 <0>         0.0000
     27 H9         -0.3643   -4.4885   -3.0776 H         1 <0>         0.0000
     28 H10         2.0883   -8.2752   -0.9863 H         1 <0>         0.0000
     29 H11         1.3832   -7.6987   -2.5021 H         1 <0>         0.0000
     30 H12         2.6068   -6.7221   -1.6639 H         1 <0>         0.0000
     31 H13         1.8517   -4.0591    0.8118 H         1 <0>         0.0000
     32 H14         2.4454   -4.5969   -0.7593 H         1 <0>         0.0000
@<TRIPOS>BOND
     1    1    3 1
     2    1    6 2
     3    1   11 1
     4    2    4 1
     5    2    5 2
     6    2   15 1
     7    3    7 1
     8    3   13 2
     9    4    8 1
    10    4   12 2
    11    5    9 1
    12    5   14 1
    13    6   10 1
    14    6   18 1
    15    7   19 1
    16    7   20 1
    17    7   21 1
    18    8   22 1
    19    8   23 1
    20    8   24 1
    21    9   25 1
    22    9   26 1
    23    9   27 1
    24   10   28 1
    25   10   29 1
    26   10   30 1
    27   11   14 1
    28   11   31 1
    29   11   32 1
    30   12   14 1
    31   13   18 1
    32   15   16 1
    33   15   17 2
