@<TRIPOS>MOLECULE
*****
   47    50     0     0     0
SMALL
NO_CHARGES

@<TRIPOS>ATOM
      1 C1          4.0261    2.3766   -2.5139 C.1       1 <0>         0.0000
      2 C2          6.6467    2.6711   -5.1283 C.ar      1 <0>         0.0000
      3 C3          6.6368    1.3903   -5.6960 C.ar      1 <0>         0.0000
      4 C4          5.7918    2.9536   -4.0673 C.ar      1 <0>         0.0000
      5 C5          5.7901    0.4064   -5.1938 C.ar      1 <0>         0.0000
      6 C6          3.5481   -1.5294   -4.2590 C.2       1 <0>         0.0000
      7 C7          2.7330   -2.1918   -3.2864 C.2       1 <0>         0.0000
      8 C8          4.9211    1.9691   -3.5625 C.ar      1 <0>         0.0000
      9 C9          4.9154    0.6654   -4.1209 C.ar      1 <0>         0.0000
     10 C10         4.0475   -0.4029   -3.6479 C.2       1 <0>         0.0000
     11 C11         2.7911   -1.4374   -2.1437 C.2       1 <0>         0.0000
     12 C12        -0.0537    1.7270    0.5728 C.3       1 <0>         0.0000
     13 C13         0.0211    1.4578   -0.9531 C.3       1 <0>         0.0000
     14 C14        -1.4570   -0.3168    1.2111 C.3       1 <0>         0.0000
     15 C15         1.0996   -0.4631    1.0585 C.3       1 <0>         0.0000
     16 C16        -0.9610   -0.8989   -1.1214 C.3       1 <0>         0.0000
     17 C17        -0.1168    0.4216    1.3845 C.3       1 <0>         0.0000
     18 C18         0.3144   -0.0239   -1.2331 C.3       1 <0>         0.0000
     19 C19        -3.1998   -1.1052   -0.2430 C.3       1 <0>         0.0000
     20 C20         2.1859   -1.5935   -0.7874 C.3       1 <0>         0.0000
     21 N1          3.3199    2.8034   -1.6911 N.1       1 <0>         0.0000
     22 N2         -1.9396   -0.3814   -0.1668 N.3       1 <0>         0.0000
     23 N3          1.4291   -0.4283   -0.3675 N.3       1 <0>         0.0000
     24 O1          3.5904   -0.3480   -2.3557 O.3       1 <0>         0.0000
     25 H1          7.3135    3.4387   -5.5098 H         1 <0>         0.0000
     26 H2          7.3028    1.1551   -6.5218 H         1 <0>         0.0000
     27 H3          5.7754    3.9429   -3.6204 H         1 <0>         0.0000
     28 H4          5.8171   -0.5926   -5.6179 H         1 <0>         0.0000
     29 H5          3.7105   -1.8267   -5.2865 H         1 <0>         0.0000
     30 H6          2.1639   -3.1028   -3.4169 H         1 <0>         0.0000
     31 H7          0.8355    2.2837    0.8865 H         1 <0>         0.0000
     32 H8         -0.9235    2.3479    0.8112 H         1 <0>         0.0000
     33 H9         -0.9175    1.7364   -1.4396 H         1 <0>         0.0000
     34 H10         0.8275    2.0514   -1.3884 H         1 <0>         0.0000
     35 H11        -1.3636   -1.3287    1.6564 H         1 <0>         0.0000
     36 H12        -2.2241    0.2101    1.7921 H         1 <0>         0.0000
     37 H13         1.9736   -0.1113    1.6240 H         1 <0>         0.0000
     38 H14         0.8916   -1.4923    1.4041 H         1 <0>         0.0000
     39 H15        -1.4528   -0.9160   -2.1008 H         1 <0>         0.0000
     40 H16        -0.6768   -1.9476   -0.8972 H         1 <0>         0.0000
     41 H17        -0.0486    0.6622    2.4523 H         1 <0>         0.0000
     42 H18         0.6755   -0.1188   -2.2613 H         1 <0>         0.0000
     43 H19        -3.5949   -1.0604   -1.2633 H         1 <0>         0.0000
     44 H20        -3.9340   -0.6418    0.4249 H         1 <0>         0.0000
     45 H21        -3.1077   -2.1720    0.0423 H         1 <0>         0.0000
     46 H22         1.5982   -2.5319   -0.7982 H         1 <0>         0.0000
     47 H23         2.9899   -1.7426   -0.0544 H         1 <0>         0.0000
@<TRIPOS>BOND
     1    1    8 1
     2    1   21 3
     3    2    3 ar
     4    2    4 ar
     5    2   25 1
     6    3    5 ar
     7    3   26 1
     8    4    8 ar
     9    4   27 1
    10    5    9 ar
    11    5   28 1
    12    6    7 1
    13    6   10 2
    14    6   29 1
    15    7   11 2
    16    7   30 1
    17    8    9 ar
    18    9   10 1
    19   10   24 1
    20   11   20 1
    21   11   24 1
    22   12   13 1
    23   12   17 1
    24   12   31 1
    25   12   32 1
    26   13   18 1
    27   13   33 1
    28   13   34 1
    29   14   17 1
    30   14   22 1
    31   14   35 1
    32   14   36 1
    33   15   17 1
    34   15   23 1
    35   15   37 1
    36   15   38 1
    37   16   18 1
    38   16   22 1
    39   16   39 1
    40   16   40 1
    41   17   41 1
    42   18   23 1
    43   18   42 1
    44   19   22 1
    45   19   43 1
    46   19   44 1
    47   19   45 1
    48   20   23 1
    49   20   46 1
    50   20   47 1
