@<TRIPOS>MOLECULE
*****
   33    35     0     0     0
SMALL
NO_CHARGES

@<TRIPOS>ATOM
      1 C1          4.7941    0.3408    5.8883 C.ar      1 <0>         0.0000
      2 C2          3.9718    1.4458    5.6753 C.ar      1 <0>         0.0000
      3 C3          3.3967   -0.9649    4.4009 C.ar      1 <0>         0.0000
      4 C4          2.5488    0.1322    4.1748 C.ar      1 <0>         0.0000
      5 C5          4.4978   -0.8686    5.2511 C.ar      1 <0>         0.0000
      6 C6          2.8699    1.3321    4.8329 C.ar      1 <0>         0.0000
      7 C7         -0.2082    0.3626    1.8730 C.2       1 <0>         0.0000
      8 C8         -0.3025   -0.9852    2.2123 C.2       1 <0>         0.0000
      9 C9          1.3829    0.0121    3.2963 C.2       1 <0>         0.0000
     10 C10        -1.0318    1.2108    0.9625 C.2       1 <0>         0.0000
     11 C11        -1.1955   -2.1219    1.8153 C.3       1 <0>         0.0000
     12 C12        -2.4037   -1.7106    0.9702 C.3       1 <0>         0.0000
     13 C13        -2.0235   -0.8281   -0.2268 C.3       1 <0>         0.0000
     14 C14         5.4093   -2.0517    5.4288 C.3       1 <0>         0.0000
     15 N1          0.8364    0.9543    2.5591 N.2       1 <0>         0.0000
     16 N2          0.7222   -1.1907    3.1115 N.pl3     1 <0>         0.0000
     17 N3         -1.9162    0.5867    0.1089 N.am      1 <0>         0.0000
     18 O1         -0.9487    2.4364    0.9804 O.2       1 <0>         0.0000
     19 F1          2.0843    2.4079    4.6815 F         1 <0>         0.0000
     20 F2          5.9641   -2.0849    6.6649 F         1 <0>         0.0000
     21 F3          4.7572   -3.2295    5.2481 F         1 <0>         0.0000
     22 F4          6.4394   -2.0398    4.5405 F         1 <0>         0.0000
     23 H1          5.6512    0.4183    6.5492 H         1 <0>         0.0000
     24 H2          4.1630    2.3975    6.1607 H         1 <0>         0.0000
     25 H3          3.2069   -1.9016    3.8863 H         1 <0>         0.0000
     26 H4         -0.5993   -2.8532    1.2517 H         1 <0>         0.0000
     27 H5         -1.5447   -2.6434    2.7159 H         1 <0>         0.0000
     28 H6         -2.8891   -2.6229    0.6071 H         1 <0>         0.0000
     29 H7         -3.1355   -1.1729    1.5813 H         1 <0>         0.0000
     30 H8         -1.0949   -1.1995   -0.6844 H         1 <0>         0.0000
     31 H9         -2.8026   -0.9016   -0.9894 H         1 <0>         0.0000
     32 H10         0.8802   -2.0491    3.6252 H         1 <0>         0.0000
     33 H11        -2.3848    1.2508   -0.4956 H         1 <0>         0.0000
@<TRIPOS>BOND
     1    1    2 ar
     2    1    5 ar
     3    1   23 1
     4    2    6 ar
     5    2   24 1
     6    3    4 ar
     7    3    5 ar
     8    3   25 1
     9    4    6 ar
    10    4    9 1
    11    5   14 1
    12    6   19 1
    13    7    8 2
    14    7   10 1
    15    7   15 1
    16    8   11 1
    17    8   16 1
    18    9   15 2
    19    9   16 1
    20   10   17 am
    21   10   18 2
    22   11   12 1
    23   11   26 1
    24   11   27 1
    25   12   13 1
    26   12   28 1
    27   12   29 1
    28   13   17 1
    29   13   30 1
    30   13   31 1
    31   14   20 1
    32   14   21 1
    33   14   22 1
    34   16   32 1
    35   17   33 1
