@<TRIPOS>MOLECULE
*****
   39    41     0     0     0
SMALL
NO_CHARGES

@<TRIPOS>ATOM
      1 C1          1.8813   -8.6422   -0.8390 C.ar      1 <0>         0.0000
      2 C2          2.4572   -8.8094    0.4295 C.ar      1 <0>         0.0000
      3 C3          0.6476   -7.9989   -0.9895 C.ar      1 <0>         0.0000
      4 C4          1.8134   -8.3359    1.5805 C.ar      1 <0>         0.0000
      5 C5         -3.6820   -8.8358    1.8168 C.2       1 <0>         0.0000
      6 C6          0.0027   -7.5285    0.1524 C.ar      1 <0>         0.0000
      7 C7         -4.3818   -7.7690    1.1487 C.2       1 <0>         0.0000
      8 C8          0.5912   -7.7028    1.4024 C.ar      1 <0>         0.0000
      9 C9         -4.2263  -10.0238    1.3938 C.2       1 <0>         0.0000
     10 C10        -5.3418   -8.3604    0.3183 C.2       1 <0>         0.0000
     11 C11        -1.3112   -6.8219    0.1966 C.2       1 <0>         0.0000
     12 C12        -4.1558   -6.3341    1.2727 C.2       1 <0>         0.0000
     13 C13        -3.8950  -11.4274    1.7903 C.3       1 <0>         0.0000
     14 C14        -6.3192   -7.7409   -0.6272 C.3       1 <0>         0.0000
     15 C15        -6.0796  -10.7037   -0.1827 C.3       1 <0>         0.0000
     16 C16        -2.8481   -5.8408    1.9290 C.3       1 <0>         0.0000
     17 N1         -5.2255   -9.7209    0.4647 N.pl3     1 <0>         0.0000
     18 N2         -1.6522   -6.5778    1.5230 N.am      1 <0>         0.0000
     19 O1         -1.9973   -6.5059   -0.7602 O.2       1 <0>         0.0000
     20 O2         -4.9575   -5.4665    0.9308 O.2       1 <0>         0.0000
     21 O3         -0.9631   -8.0089    3.5861 O.2       1 <0>         0.0000
     22 O4          0.1469   -5.7764    3.2361 O.2       1 <0>         0.0000
     23 S1         -0.4401   -6.9906    2.6732 S.o2      1 <0>         0.0000
     24 H1          2.4029   -9.0177   -1.7147 H         1 <0>         0.0000
     25 H2          3.4162   -9.3109    0.5231 H         1 <0>         0.0000
     26 H3          0.1863   -7.8592   -1.9625 H         1 <0>         0.0000
     27 H4          2.2524   -8.4591    2.5657 H         1 <0>         0.0000
     28 H5         -2.8971   -8.7476    2.5545 H         1 <0>         0.0000
     29 H6         -4.7580  -11.9576    2.2115 H         1 <0>         0.0000
     30 H7         -3.5200  -12.0230    0.9482 H         1 <0>         0.0000
     31 H8         -3.1132  -11.4071    2.5528 H         1 <0>         0.0000
     32 H9         -6.1531   -8.0804   -1.6573 H         1 <0>         0.0000
     33 H10        -7.3533   -7.9897   -0.3580 H         1 <0>         0.0000
     34 H11        -6.2130   -6.6580   -0.5946 H         1 <0>         0.0000
     35 H12        -6.9838  -10.8956    0.4069 H         1 <0>         0.0000
     36 H13        -6.3762  -10.3491   -1.1708 H         1 <0>         0.0000
     37 H14        -5.5370  -11.6422   -0.3049 H         1 <0>         0.0000
     38 H15        -2.9493   -5.9440    3.0144 H         1 <0>         0.0000
     39 H16        -2.7455   -4.7807    1.6889 H         1 <0>         0.0000
@<TRIPOS>BOND
     1    1    2 ar
     2    1    3 ar
     3    1   24 1
     4    2    4 ar
     5    2   25 1
     6    3    6 ar
     7    3   26 1
     8    4    8 ar
     9    4   27 1
    10    5    7 1
    11    5    9 2
    12    5   28 1
    13    6    8 ar
    14    6   11 1
    15    7   10 2
    16    7   12 1
    17    8   23 1
    18    9   13 1
    19    9   17 1
    20   10   14 1
    21   10   17 1
    22   11   18 am
    23   11   19 2
    24   12   16 1
    25   12   20 2
    26   13   29 1
    27   13   30 1
    28   13   31 1
    29   14   32 1
    30   14   33 1
    31   14   34 1
    32   15   17 1
    33   15   35 1
    34   15   36 1
    35   15   37 1
    36   16   18 1
    37   16   38 1
    38   16   39 1
    39   18   23 1
    40   21   23 2
    41   22   23 2
