@<TRIPOS>MOLECULE
*****
   25    26     0     0     0
SMALL
NO_CHARGES

@<TRIPOS>ATOM
      1 C1         -4.6194   -1.1443   -3.1283 C.ar      1 <0>         0.0000
      2 C2         -3.2890   -0.8496   -2.8331 C.ar      1 <0>         0.0000
      3 C3         -5.2452   -0.5910   -4.2512 C.ar      1 <0>         0.0000
      4 C4         -2.5418   -0.0001   -3.6626 C.ar      1 <0>         0.0000
      5 C5         -4.5013    0.2463   -5.0720 C.ar      1 <0>         0.0000
      6 C6         -3.1637    0.5354   -4.7994 C.ar      1 <0>         0.0000
      7 C7          2.7610    1.5617   -2.5844 C.3       1 <0>         0.0000
      8 C8          2.3627    3.0302   -2.7541 C.3       1 <0>         0.0000
      9 C9          0.5066    1.6494   -2.5838 C.3       1 <0>         0.0000
     10 C10        -0.6769    1.5230   -3.5259 C.3       1 <0>         0.0000
     11 O1          1.5944    0.8720   -3.0402 O.3       1 <0>         0.0000
     12 O2          0.9378    3.0138   -2.5673 O.3       1 <0>         0.0000
     13 O3         -1.2329    0.2100   -3.3402 O.3       1 <0>         0.0000
     14 F1         -5.0591    0.7919   -6.1750 F         1 <0>         0.0000
     15 F2         -2.4793    1.3226   -5.6616 F         1 <0>         0.0000
     16 H1         -5.1807   -1.8037   -2.4732 H         1 <0>         0.0000
     17 H2         -2.7961   -1.2661   -1.9603 H         1 <0>         0.0000
     18 H3         -6.2815   -0.7968   -4.4984 H         1 <0>         0.0000
     19 H4          3.6042    1.2523   -3.2042 H         1 <0>         0.0000
     20 H5          2.9669    1.3178   -1.5326 H         1 <0>         0.0000
     21 H6          2.8138    3.6900   -2.0073 H         1 <0>         0.0000
     22 H7          2.5939    3.4017   -3.7591 H         1 <0>         0.0000
     23 H8          0.2247    1.3492   -1.5620 H         1 <0>         0.0000
     24 H9         -0.3411    1.6673   -4.5550 H         1 <0>         0.0000
     25 H10        -1.4141    2.2900   -3.2681 H         1 <0>         0.0000
@<TRIPOS>BOND
     1    1    2 ar
     2    1    3 ar
     3    1   16 1
     4    2    4 ar
     5    2   17 1
     6    3    5 ar
     7    3   18 1
     8    4    6 ar
     9    4   13 1
    10    5    6 ar
    11    5   14 1
    12    6   15 1
    13    7    8 1
    14    7   11 1
    15    7   19 1
    16    7   20 1
    17    8   12 1
    18    8   21 1
    19    8   22 1
    20    9   10 1
    21    9   12 1
    22    9   11 1
    23    9   23 1
    24   10   13 1
    25   10   24 1
    26   10   25 1
