@<TRIPOS>MOLECULE
*****
   38    40     0     0     0
SMALL
NO_CHARGES

@<TRIPOS>ATOM
      1 C1         -3.6932    4.0949   -9.0912 C.ar      1 <0>         0.0000
      2 C2         -4.3015    3.1175   -9.8856 C.ar      1 <0>         0.0000
      3 C3         -2.8902    3.7111   -8.0170 C.ar      1 <0>         0.0000
      4 C4         -4.0991    1.7619   -9.6170 C.ar      1 <0>         0.0000
      5 C5         -1.0696    1.2704   -4.6879 C.2       1 <0>         0.0000
      6 C6         -2.6864    2.3576   -7.7357 C.ar      1 <0>         0.0000
      7 C7         -3.2839    1.3831   -8.5479 C.ar      1 <0>         0.0000
      8 C8         -0.0245    1.7125   -5.5592 C.2       1 <0>         0.0000
      9 C9         -2.2272    1.4763   -5.4333 C.2       1 <0>         0.0000
     10 C10        -0.8844    0.7370   -3.3474 C.2       1 <0>         0.0000
     11 C11        -0.4505   -0.6403   -0.8811 C.3       1 <0>         0.0000
     12 C12        -2.8526   -0.9051   -0.9188 C.3       1 <0>         0.0000
     13 C13        -0.3054   -2.0756   -1.3974 C.3       1 <0>         0.0000
     14 C14        -2.6568   -2.3381   -1.4178 C.3       1 <0>         0.0000
     15 C15         1.4494    1.7247   -5.2884 C.3       1 <0>         0.0000
     16 N1         -0.4990    2.1482   -6.7253 N.2       1 <0>         0.0000
     17 N2         -1.8851    0.3726   -2.6194 N.2       1 <0>         0.0000
     18 N3         -1.8557    1.9951   -6.6414 N.pl3     1 <0>         0.0000
     19 N4         -1.7257   -0.0541   -1.3267 N.pl3     1 <0>         0.0000
     20 O1         -1.4084   -2.8745   -0.9653 O.3       1 <0>         0.0000
     21 Cl1        -2.9986   -0.3139   -8.2469 Cl        1 <0>         0.0000
     22 Cl2        -3.8784    1.2133   -5.0456 Cl        1 <0>         0.0000
     23 H1         -3.8471    5.1487   -9.3040 H         1 <0>         0.0000
     24 H2         -4.9331    3.4063  -10.7211 H         1 <0>         0.0000
     25 H3         -2.4083    4.4474   -7.3812 H         1 <0>         0.0000
     26 H4         -4.5578    0.9973  -10.2356 H         1 <0>         0.0000
     27 H5          0.1546    0.6803   -3.0123 H         1 <0>         0.0000
     28 H6         -0.4717   -0.6515    0.2132 H         1 <0>         0.0000
     29 H7          0.3914   -0.0114   -1.1785 H         1 <0>         0.0000
     30 H8         -3.7681   -0.4712   -1.3258 H         1 <0>         0.0000
     31 H9         -2.9067   -0.8968    0.1753 H         1 <0>         0.0000
     32 H10        -0.2437   -2.0832   -2.4957 H         1 <0>         0.0000
     33 H11         0.5941   -2.5489   -0.9937 H         1 <0>         0.0000
     34 H12        -3.4329   -3.0029   -1.0285 H         1 <0>         0.0000
     35 H13        -2.6951   -2.3532   -2.5175 H         1 <0>         0.0000
     36 H14         1.8280    0.7148   -5.0951 H         1 <0>         0.0000
     37 H15         1.9768    2.1296   -6.1548 H         1 <0>         0.0000
     38 H16         1.6911    2.3419   -4.4159 H         1 <0>         0.0000
@<TRIPOS>BOND
     1    1    2 ar
     2    1    3 ar
     3    1   23 1
     4    2    4 ar
     5    2   24 1
     6    3    6 ar
     7    3   25 1
     8    4    7 ar
     9    4   26 1
    10    5    8 1
    11    5    9 2
    12    5   10 1
    13    6    7 ar
    14    6   18 1
    15    7   21 1
    16    8   15 1
    17    8   16 2
    18    9   18 1
    19    9   22 1
    20   10   17 2
    21   10   27 1
    22   11   13 1
    23   11   19 1
    24   11   28 1
    25   11   29 1
    26   12   14 1
    27   12   19 1
    28   12   30 1
    29   12   31 1
    30   13   20 1
    31   13   32 1
    32   13   33 1
    33   14   20 1
    34   14   34 1
    35   14   35 1
    36   15   36 1
    37   15   37 1
    38   15   38 1
    39   16   18 1
    40   17   19 1
