@<TRIPOS>MOLECULE
*****
   39    40     0     0     0
SMALL
NO_CHARGES

@<TRIPOS>ATOM
      1 C1         -2.2791    3.0136    3.2510 C.ar      1 <0>         0.0000
      2 C2         -2.9703    3.3052    4.4257 C.ar      1 <0>         0.0000
      3 C3         -1.5216    1.8357    5.6484 C.ar      1 <0>         0.0000
      4 C4         -1.2140    2.1032    3.2314 C.ar      1 <0>         0.0000
      5 C5         -2.6089    2.7233    5.6492 C.ar      1 <0>         0.0000
      6 C6         -0.8519    1.5294    4.4661 C.ar      1 <0>         0.0000
      7 C7         -0.5634    1.9046    1.8765 C.2       1 <0>         0.0000
      8 C8         -3.6010    2.0062    7.9641 C.3       1 <0>         0.0000
      9 C9         -2.6547    3.1416    8.2370 C.3       1 <0>         0.0000
     10 C10        -3.3571    3.0567    6.8884 C.3       1 <0>         0.0000
     11 C11         3.9365    1.8381    3.1874 C.3       1 <0>         0.0000
     12 C12         3.6537   -0.2041    4.6429 C.3       1 <0>         0.0000
     13 C13         2.8508   -0.2154    2.2412 C.3       1 <0>         0.0000
     14 C14         3.0418    0.6308    3.5069 C.3       1 <0>         0.0000
     15 N1          1.7257    1.2555    3.9056 N.pl3     1 <0>         0.0000
     16 O1         -0.4055    2.8522    1.1330 O.2       1 <0>         0.0000
     17 O2          0.7238    0.0960    6.0521 O.2       1 <0>         0.0000
     18 O3          0.2349   -0.7973    3.7404 O.2       1 <0>         0.0000
     19 O4         -0.2632    0.6595    1.4684 O.3       1 <0>         0.0000
     20 S1          0.5032    0.3558    4.6259 S.o2      1 <0>         0.0000
     21 H1         -2.5529    3.4973    2.3191 H         1 <0>         0.0000
     22 H2         -3.7997    4.0075    4.3922 H         1 <0>         0.0000
     23 H3         -1.1738    1.3731    6.5663 H         1 <0>         0.0000
     24 H4         -3.1840    1.0180    7.7942 H         1 <0>         0.0000
     25 H5         -4.5710    2.0093    8.4517 H         1 <0>         0.0000
     26 H6         -2.9709    3.9307    8.9124 H         1 <0>         0.0000
     27 H7         -1.5896    2.9307    8.2575 H         1 <0>         0.0000
     28 H8         -4.1647    3.7670    6.7361 H         1 <0>         0.0000
     29 H9          3.4874    2.4567    2.4050 H         1 <0>         0.0000
     30 H10         4.1031    2.4591    4.0761 H         1 <0>         0.0000
     31 H11         4.9128    1.4911    2.8379 H         1 <0>         0.0000
     32 H12         3.0384   -1.0773    4.8740 H         1 <0>         0.0000
     33 H13         3.7592    0.3865    5.5584 H         1 <0>         0.0000
     34 H14         4.6455   -0.5594    4.3451 H         1 <0>         0.0000
     35 H15         2.2517   -1.1049    2.4402 H         1 <0>         0.0000
     36 H16         2.3576    0.3646    1.4582 H         1 <0>         0.0000
     37 H17         3.8324   -0.5364    1.8782 H         1 <0>         0.0000
     38 H18         1.8793    2.0744    4.4970 H         1 <0>         0.0000
     39 H19        -0.3166   -0.0047    2.1933 H         1 <0>         0.0000
@<TRIPOS>BOND
     1    1    2 ar
     2    1    4 ar
     3    1   21 1
     4    2    5 ar
     5    2   22 1
     6    3    5 ar
     7    3    6 ar
     8    3   23 1
     9    4    6 ar
    10    4    7 1
    11    5   10 1
    12    6   20 1
    13    7   16 2
    14    7   19 1
    15    8    9 1
    16    8   10 1
    17    8   24 1
    18    8   25 1
    19    9   10 1
    20    9   26 1
    21    9   27 1
    22   10   28 1
    23   11   14 1
    24   11   29 1
    25   11   30 1
    26   11   31 1
    27   12   14 1
    28   12   32 1
    29   12   33 1
    30   12   34 1
    31   13   14 1
    32   13   35 1
    33   13   36 1
    34   13   37 1
    35   14   15 1
    36   15   20 1
    37   15   38 1
    38   17   20 2
    39   18   20 2
    40   19   39 1
