@<TRIPOS>MOLECULE
*****
   26    27     0     0     0
SMALL
NO_CHARGES

@<TRIPOS>ATOM
      1 C1          2.7167    3.0262   -4.3310 C.2       1 <0>         0.0000
      2 C2          0.7549    3.4991   -5.3904 C.2       1 <0>         0.0000
      3 C3          0.5636    0.5439   -0.7663 C.3       1 <0>         0.0000
      4 C4          0.1339    2.0082   -0.7774 C.3       1 <0>         0.0000
      5 C5          0.3506   -0.1159   -2.1257 C.3       1 <0>         0.0000
      6 C6          0.8244    2.7893   -1.8941 C.3       1 <0>         0.0000
      7 C7          1.0408    0.6628   -3.2444 C.3       1 <0>         0.0000
      8 C8          0.5978    2.1300   -3.2590 C.3       1 <0>         0.0000
      9 N1          2.9900    3.7909   -5.4747 N.am      1 <0>         0.0000
     10 N2          1.8113    4.0749   -6.1111 N.am      1 <0>         0.0000
     11 N3          1.3312    2.8600   -4.2912 N.am      1 <0>         0.0000
     12 O1          3.5445    2.6001   -3.5371 O.2       1 <0>         0.0000
     13 O2         -0.4321    3.5547   -5.6821 O.2       1 <0>         0.0000
     14 H1         -0.0002    0.0000   -0.0001 H         1 <0>         0.0000
     15 H2          1.6234    0.4775   -0.4911 H         1 <0>         0.0000
     16 H3         -0.9535    2.0686   -0.9090 H         1 <0>         0.0000
     17 H4          0.3646    2.4674    0.1904 H         1 <0>         0.0000
     18 H5          0.7336   -1.1424   -2.1011 H         1 <0>         0.0000
     19 H6         -0.7241   -0.1803   -2.3360 H         1 <0>         0.0000
     20 H7          0.4409    3.8168   -1.9036 H         1 <0>         0.0000
     21 H8          1.8993    2.8478   -1.6795 H         1 <0>         0.0000
     22 H9          2.1281    0.6005   -3.1071 H         1 <0>         0.0000
     23 H10         0.8096    0.1898   -4.2063 H         1 <0>         0.0000
     24 H11        -0.4512    2.1966   -3.5320 H         1 <0>         0.0000
     25 H12         3.9087    4.0848   -5.7797 H         1 <0>         0.0000
     26 H13         1.7796    4.6162   -6.9652 H         1 <0>         0.0000
@<TRIPOS>BOND
     1    1    9 am
     2    1   11 am
     3    1   12 2
     4    2   10 am
     5    2   11 am
     6    2   13 2
     7    3    5 1
     8    3    4 1
     9    3   14 1
    10    3   15 1
    11    4    6 1
    12    4   16 1
    13    4   17 1
    14    5    7 1
    15    5   18 1
    16    5   19 1
    17    6    8 1
    18    6   20 1
    19    6   21 1
    20    7    8 1
    21    7   22 1
    22    7   23 1
    23    8   11 1
    24    8   24 1
    25    9   10 1
    26    9   25 1
    27   10   26 1
