@<TRIPOS>MOLECULE
*****
   49    51     0     0     0
SMALL
NO_CHARGES

@<TRIPOS>ATOM
      1 C1         -1.9797   -0.7351    5.2380 C.ar      1 <0>         0.0000
      2 C2         -1.6101    0.3019    4.3879 C.ar      1 <0>         0.0000
      3 C3         -2.4604   -1.9393    4.7131 C.ar      1 <0>         0.0000
      4 C4         -2.2214   -1.0504    2.4327 C.ar      1 <0>         0.0000
      5 C5         -1.7308    0.1366    3.0058 C.ar      1 <0>         0.0000
      6 C6         -2.5815   -2.0752    3.3254 C.ar      1 <0>         0.0000
      7 C7         -0.8535   -4.3215    6.6063 C.2       1 <0>         0.0000
      8 C8         -2.9098   -5.5969    5.6924 C.2       1 <0>         0.0000
      9 C9         -2.7887   -3.0284    5.7009 C.2       1 <0>         0.0000
     10 C10        -0.1444   -5.6443    6.8123 C.3       1 <0>         0.0000
     11 C11        -2.1666   -6.9002    5.9256 C.3       1 <0>         0.0000
     12 C12        -1.1464   -6.7815    7.0677 C.3       1 <0>         0.0000
     13 C13        -2.1548   -3.4678   -1.2738 C.3       1 <0>         0.0000
     14 C14        -1.4404   -4.7646   -0.8910 C.3       1 <0>         0.0000
     15 C15         0.2058   -3.1173   -1.0374 C.3       1 <0>         0.0000
     16 C16        -2.0168   -4.3427    5.5916 C.3       1 <0>         0.0000
     17 C17        -1.1393   -2.4130   -0.8051 C.3       1 <0>         0.0000
     18 C18        -2.7935    2.3226    1.5461 C.3       1 <0>         0.0000
     19 C19        -2.3207   -1.2933    0.9434 C.3       1 <0>         0.0000
     20 O1         -0.5295   -3.2943    7.1720 O.2       1 <0>         0.0000
     21 O2         -4.1127   -5.5366    5.5486 O.2       1 <0>         0.0000
     22 O3         -3.5329   -2.8159    6.6357 O.2       1 <0>         0.0000
     23 O4         -0.5449    2.5102    2.9283 O.2       1 <0>         0.0000
     24 O5         -0.5376    1.1253    0.7862 O.2       1 <0>         0.0000
     25 O6         -0.0582   -4.5233   -1.1821 O.3       1 <0>         0.0000
     26 O7         -1.2440   -2.1538    0.5996 O.3       1 <0>         0.0000
     27 S1         -1.2127    1.5752    2.0119 S.o2      1 <0>         0.0000
     28 Cl1        -3.2645   -3.5694    2.6931 Cl        1 <0>         0.0000
     29 H1         -1.8821   -0.6377    6.3144 H         1 <0>         0.0000
     30 H2         -1.2116    1.2312    4.7803 H         1 <0>         0.0000
     31 H3          0.4313   -5.8631    5.9019 H         1 <0>         0.0000
     32 H4          0.5630   -5.5246    7.6357 H         1 <0>         0.0000
     33 H5         -2.9071   -7.6801    6.1152 H         1 <0>         0.0000
     34 H6         -1.6421   -7.1561    4.9939 H         1 <0>         0.0000
     35 H7         -1.6712   -6.6030    8.0133 H         1 <0>         0.0000
     36 H8         -0.6061   -7.7262    7.1776 H         1 <0>         0.0000
     37 H9         -2.2784   -3.4056   -2.3605 H         1 <0>         0.0000
     38 H10        -3.1358   -3.3583   -0.8051 H         1 <0>         0.0000
     39 H11        -1.5759   -4.9780    0.1788 H         1 <0>         0.0000
     40 H12        -1.7577   -5.6344   -1.4723 H         1 <0>         0.0000
     41 H13         0.6941   -2.7653   -1.9521 H         1 <0>         0.0000
     42 H14         0.8671   -2.9363   -0.1837 H         1 <0>         0.0000
     43 H15        -1.5230   -4.4290    4.6134 H         1 <0>         0.0000
     44 H16        -1.2106   -1.4655   -1.3535 H         1 <0>         0.0000
     45 H17        -2.5451    3.2110    0.9614 H         1 <0>         0.0000
     46 H18        -3.3693    1.6181    0.9447 H         1 <0>         0.0000
     47 H19        -3.3294    2.5973    2.4554 H         1 <0>         0.0000
     48 H20        -3.2899   -1.7562    0.7168 H         1 <0>         0.0000
     49 H21        -2.2428   -0.3643    0.3747 H         1 <0>         0.0000
@<TRIPOS>BOND
     1    1    2 ar
     2    1    3 ar
     3    1   29 1
     4    2    5 ar
     5    2   30 1
     6    3    6 ar
     7    3    9 1
     8    4    5 ar
     9    4    6 ar
    10    4   19 1
    11    5   27 1
    12    6   28 1
    13    7   10 1
    14    7   16 1
    15    7   20 2
    16    8   11 1
    17    8   16 1
    18    8   21 2
    19    9   16 1
    20    9   22 2
    21   10   12 1
    22   10   31 1
    23   10   32 1
    24   11   12 1
    25   11   33 1
    26   11   34 1
    27   12   35 1
    28   12   36 1
    29   13   14 1
    30   13   17 1
    31   13   37 1
    32   13   38 1
    33   14   25 1
    34   14   39 1
    35   14   40 1
    36   15   17 1
    37   15   25 1
    38   15   41 1
    39   15   42 1
    40   16   43 1
    41   17   26 1
    42   17   44 1
    43   18   27 1
    44   18   45 1
    45   18   46 1
    46   18   47 1
    47   19   26 1
    48   19   48 1
    49   19   49 1
    50   23   27 2
    51   24   27 2
