@<TRIPOS>MOLECULE
*****
   32    33     0     0     0
SMALL
NO_CHARGES

@<TRIPOS>ATOM
      1 C1          2.4890   -0.7209    0.0355 C.ar      1 <0>         0.0000
      2 C2          1.8012   -1.9186    0.2552 C.ar      1 <0>         0.0000
      3 C3          1.7850    0.4838   -0.0001 C.ar      1 <0>         0.0000
      4 C4          0.4125   -1.9026    0.3878 C.ar      1 <0>         0.0000
      5 C5          0.3872    0.5364    0.1750 C.ar      1 <0>         0.0000
      6 C6         -0.2991   -0.6968    0.3305 C.ar      1 <0>         0.0000
      7 C7         -1.6474    1.8977   -0.0459 C.2       1 <0>         0.0000
      8 C8         -0.3378    1.8257    0.2579 C.2       1 <0>         0.0000
      9 C9         -2.4429    0.7138   -0.5182 C.3       1 <0>         0.0000
     10 C10         0.3729    3.0446    0.8077 C.3       1 <0>         0.0000
     11 C11         0.5287    1.9362    3.1532 C.3       1 <0>         0.0000
     12 C12         0.1880    3.2050    2.3418 C.3       1 <0>         0.0000
     13 C13         1.0380    4.4078    2.8146 C.3       1 <0>         0.0000
     14 O1          1.8756    1.5132    3.0236 O.3       1 <0>         0.0000
     15 O2         -1.1668    3.4749    2.6825 O.3       1 <0>         0.0000
     16 F1          0.5154    5.5667    2.2955 F         1 <0>         0.0000
     17 F2          1.0324    4.5497    4.1540 F         1 <0>         0.0000
     18 F3          2.3218    4.3477    2.4102 F         1 <0>         0.0000
     19 S1         -2.0635   -0.7543    0.5096 S.3       1 <0>         0.0000
     20 H1          3.5667   -0.7209   -0.1006 H         1 <0>         0.0000
     21 H2          2.3381   -2.8621    0.3014 H         1 <0>         0.0000
     22 H3          2.3359    1.4014   -0.1803 H         1 <0>         0.0000
     23 H4         -0.1313   -2.8341    0.5209 H         1 <0>         0.0000
     24 H5         -2.1740    2.8419    0.0678 H         1 <0>         0.0000
     25 H6         -3.5158    0.8879   -0.4139 H         1 <0>         0.0000
     26 H7         -2.2372    0.4722   -1.5676 H         1 <0>         0.0000
     27 H8          1.4400    3.0237    0.5880 H         1 <0>         0.0000
     28 H9         -0.0205    3.9468    0.3290 H         1 <0>         0.0000
     29 H10        -0.1858    1.1623    2.8533 H         1 <0>         0.0000
     30 H11         0.3573    2.1566    4.2081 H         1 <0>         0.0000
     31 H12         1.9491    0.9439    2.2398 H         1 <0>         0.0000
     32 H13        -1.4242    4.3235    2.2856 H         1 <0>         0.0000
@<TRIPOS>BOND
     1    1    2 ar
     2    1    3 ar
     3    1   20 1
     4    2    4 ar
     5    2   21 1
     6    3    5 ar
     7    3   22 1
     8    4    6 ar
     9    4   23 1
    10    5    6 ar
    11    5    8 1
    12    6   19 1
    13    7    8 2
    14    7    9 1
    15    7   24 1
    16    8   10 1
    17    9   19 1
    18    9   25 1
    19    9   26 1
    20   10   12 1
    21   10   27 1
    22   10   28 1
    23   11   12 1
    24   11   14 1
    25   11   29 1
    26   11   30 1
    27   12   13 1
    28   12   15 1
    29   13   16 1
    30   13   17 1
    31   13   18 1
    32   14   31 1
    33   15   32 1
