@<TRIPOS>MOLECULE
*****
   41    41     0     0     0
SMALL
NO_CHARGES

@<TRIPOS>ATOM
      1 C1          0.9058   -1.2312   -2.8157 C.3       1 <0>         0.0000
      2 C2          1.9523   -2.0917   -2.0571 C.3       1 <0>         0.0000
      3 C3         -0.3614   -1.3269   -1.9474 C.3       1 <0>         0.0000
      4 C4          1.1830   -2.7142   -0.8680 C.3       1 <0>         0.0000
      5 C5          1.6134   -4.1432   -0.5386 C.3       1 <0>         0.0000
      6 C6          0.8473   -4.7428    0.6472 C.3       1 <0>         0.0000
      7 C7          0.9995  -10.6041    3.9896 C.3       1 <0>         0.0000
      8 C8          0.4418   -9.1899    3.7850 C.3       1 <0>         0.0000
      9 C9          0.3220  -11.3033    5.1737 C.3       1 <0>         0.0000
     10 C10         1.3359   -6.1553    0.9692 C.3       1 <0>         0.0000
     11 C11         1.1149   -8.4943    2.6015 C.3       1 <0>         0.0000
     12 C12         0.8450  -12.7017    5.4146 C.3       1 <0>         0.0000
     13 N1         -0.2204   -2.6434   -1.3092 N.3       1 <0>         0.0000
     14 O1         -0.9937   -6.9616    2.0143 O.2       1 <0>         0.0000
     15 O2          0.7923   -6.0315    3.5860 O.2       1 <0>         0.0000
     16 F1          0.2223  -13.2908    6.4662 F         1 <0>         0.0000
     17 F2          2.1770  -12.7096    5.6861 F         1 <0>         0.0000
     18 F3          0.6579  -13.5103    4.3381 F         1 <0>         0.0000
     19 S1          0.4250   -6.8218    2.3950 S.o2      1 <0>         0.0000
     20 H1          1.2276   -0.1952   -2.9522 H         1 <0>         0.0000
     21 H2          0.7139   -1.6517   -3.8064 H         1 <0>         0.0000
     22 H3          2.3478   -2.8798   -2.7051 H         1 <0>         0.0000
     23 H4          2.8034   -1.5027   -1.7041 H         1 <0>         0.0000
     24 H5         -0.3764   -0.5020   -1.2131 H         1 <0>         0.0000
     25 H6         -1.2858   -1.2764   -2.5311 H         1 <0>         0.0000
     26 H7          1.3506   -2.0843    0.0263 H         1 <0>         0.0000
     27 H8          1.4610   -4.7618   -1.4316 H         1 <0>         0.0000
     28 H9          2.6894   -4.1435   -0.3190 H         1 <0>         0.0000
     29 H10        -0.2213   -4.7861    0.4175 H         1 <0>         0.0000
     30 H11         0.9730   -4.1092    1.5319 H         1 <0>         0.0000
     31 H12         2.0797  -10.5561    4.1652 H         1 <0>         0.0000
     32 H13         0.8486  -11.1984    3.0819 H         1 <0>         0.0000
     33 H14        -0.6375   -9.2343    3.6069 H         1 <0>         0.0000
     34 H15         0.5975   -8.5908    4.6880 H         1 <0>         0.0000
     35 H16         0.4741  -10.7397    6.0992 H         1 <0>         0.0000
     36 H17        -0.7570  -11.3870    5.0126 H         1 <0>         0.0000
     37 H18         1.1633   -6.8415    0.1346 H         1 <0>         0.0000
     38 H19         2.3953   -6.1666    1.2426 H         1 <0>         0.0000
     39 H20         2.1911   -8.3757    2.7594 H         1 <0>         0.0000
     40 H21         0.9374   -9.0278    1.6630 H         1 <0>         0.0000
     41 H22        -0.8637   -2.7423   -0.5270 H         1 <0>         0.0000
@<TRIPOS>BOND
     1    1    2 1
     2    1    3 1
     3    1   20 1
     4    1   21 1
     5    2    4 1
     6    2   22 1
     7    2   23 1
     8    3   13 1
     9    3   24 1
    10    3   25 1
    11    4    5 1
    12    4   13 1
    13    4   26 1
    14    5    6 1
    15    5   27 1
    16    5   28 1
    17    6   10 1
    18    6   29 1
    19    6   30 1
    20    7    8 1
    21    7    9 1
    22    7   31 1
    23    7   32 1
    24    8   11 1
    25    8   33 1
    26    8   34 1
    27    9   12 1
    28    9   35 1
    29    9   36 1
    30   10   19 1
    31   10   37 1
    32   10   38 1
    33   11   19 1
    34   11   39 1
    35   11   40 1
    36   12   16 1
    37   12   17 1
    38   12   18 1
    39   13   41 1
    40   14   19 2
    41   15   19 2
