@<TRIPOS>MOLECULE
*****
   41    42     0     0     0
SMALL
NO_CHARGES

@<TRIPOS>ATOM
      1 C1          4.4556   -2.4906   -6.4365 C.2       1 <0>         0.0000
      2 C2          5.3111   -1.5659   -8.4158 C.2       1 <0>         0.0000
      3 C3          3.8354   -3.3188   -5.3509 C.2       1 <0>         0.0000
      4 C4          6.0640   -5.2109    0.0069 C.3       1 <0>         0.0000
      5 C5          4.8113   -5.9873   -0.4222 C.3       1 <0>         0.0000
      6 C6          6.6824   -4.4558   -1.1777 C.3       1 <0>         0.0000
      7 C7          3.7875   -5.0694   -1.1052 C.3       1 <0>         0.0000
      8 C8          5.6549   -3.5401   -1.8583 C.3       1 <0>         0.0000
      9 C9          4.4013   -4.3143   -2.2946 C.3       1 <0>         0.0000
     10 C10         8.2995   -0.6444  -11.0832 C.3       1 <0>         0.0000
     11 C11         8.1275   -2.4981   -9.3403 C.3       1 <0>         0.0000
     12 C12         3.3499   -3.3994   -2.9398 C.3       1 <0>         0.0000
     13 C13         7.6456   -1.1222   -9.7858 C.3       1 <0>         0.0000
     14 N1          5.0177   -1.3233   -6.2379 N.2       1 <0>         0.0000
     15 N2          5.5106   -0.7789   -7.3934 N.2       1 <0>         0.0000
     16 N3          3.8267   -2.7163   -4.1388 N.am      1 <0>         0.0000
     17 O1          3.3835   -4.4381   -5.5990 O.2       1 <0>         0.0000
     18 O2          5.4940   -2.3985  -10.9253 O.2       1 <0>         0.0000
     19 S1          4.4823   -3.0565   -8.0804 S.3       1 <0>         0.0000
     20 S2          5.7985   -1.1517  -10.1159 S.o       1 <0>         0.0000
     21 H1          6.8002   -5.8926    0.4486 H         1 <0>         0.0000
     22 H2          5.7920   -4.4909    0.7915 H         1 <0>         0.0000
     23 H3          5.1009   -6.7843   -1.1204 H         1 <0>         0.0000
     24 H4          4.3534   -6.4800    0.4435 H         1 <0>         0.0000
     25 H5          7.5464   -3.8682   -0.8462 H         1 <0>         0.0000
     26 H6          7.0589   -5.1809   -1.9122 H         1 <0>         0.0000
     27 H7          2.9221   -5.6535   -1.4413 H         1 <0>         0.0000
     28 H8          3.4106   -4.3407   -0.3721 H         1 <0>         0.0000
     29 H9          5.3585   -2.7456   -1.1566 H         1 <0>         0.0000
     30 H10         6.1128   -3.0448   -2.7227 H         1 <0>         0.0000
     31 H11         4.6959   -5.0525   -3.0526 H         1 <0>         0.0000
     32 H12         8.1220   -1.3580  -11.8935 H         1 <0>         0.0000
     33 H13         7.9237    0.3358  -11.3932 H         1 <0>         0.0000
     34 H14         9.3810   -0.5606  -10.9360 H         1 <0>         0.0000
     35 H15         7.8027   -3.2636  -10.0513 H         1 <0>         0.0000
     36 H16         7.7533   -2.7605   -8.3474 H         1 <0>         0.0000
     37 H17         9.2218   -2.5064   -9.3021 H         1 <0>         0.0000
     38 H18         3.0267   -2.6322   -2.2279 H         1 <0>         0.0000
     39 H19         2.4728   -3.9870   -3.2233 H         1 <0>         0.0000
     40 H20         7.7525   -0.3755   -8.9919 H         1 <0>         0.0000
     41 H21         4.2828   -1.8137   -4.0703 H         1 <0>         0.0000
@<TRIPOS>BOND
     1    1    3 1
     2    1   14 2
     3    1   19 1
     4    2   15 2
     5    2   19 1
     6    2   20 1
     7    3   16 am
     8    3   17 2
     9    4    6 1
    10    4    5 1
    11    4   21 1
    12    4   22 1
    13    5    7 1
    14    5   23 1
    15    5   24 1
    16    6    8 1
    17    6   25 1
    18    6   26 1
    19    7    9 1
    20    7   27 1
    21    7   28 1
    22    8    9 1
    23    8   29 1
    24    8   30 1
    25    9   12 1
    26    9   31 1
    27   10   13 1
    28   10   32 1
    29   10   33 1
    30   10   34 1
    31   11   13 1
    32   11   35 1
    33   11   36 1
    34   11   37 1
    35   12   16 1
    36   12   38 1
    37   12   39 1
    38   13   20 1
    39   13   40 1
    40   14   15 1
    41   16   41 1
    42   18   20 2
