@<TRIPOS>MOLECULE
*****
   33    34     0     0     0
SMALL
NO_CHARGES

@<TRIPOS>ATOM
      1 C1         -1.3640    1.2308    3.2210 C.ar      1 <0>         0.0000
      2 C2          0.0238    1.3473    3.0599 C.ar      1 <0>         0.0000
      3 C3         -1.9167    0.1136    3.8604 C.ar      1 <0>         0.0000
      4 C4          0.8763    0.3449    3.5389 C.ar      1 <0>         0.0000
      5 C5         -1.0660   -0.8838    4.3408 C.ar      1 <0>         0.0000
      6 C6          0.3213   -0.7611    4.1831 C.ar      1 <0>         0.0000
      7 C7          2.5968   -3.6010    3.7117 C.2       1 <0>         0.0000
      8 C8         -1.4054   -2.1802    5.0442 C.3       1 <0>         0.0000
      9 C9          1.0320   -1.9765    4.7424 C.3       1 <0>         0.0000
     10 C10        -0.0537   -2.6164    5.6630 C.3       1 <0>         0.0000
     11 C11         0.0911   -4.1166    5.8995 C.3       1 <0>         0.0000
     12 C12         1.0012   -5.4816    1.7156 C.3       1 <0>         0.0000
     13 C13         2.9564   -4.3270    2.4090 C.3       1 <0>         0.0000
     14 N1          1.4756   -2.8379    3.6434 N.am      1 <0>         0.0000
     15 O1          3.3173   -3.6989    4.7059 O.2       1 <0>         0.0000
     16 O2          1.8972   -4.4012    1.4637 O.3       1 <0>         0.0000
     17 H1         -2.0159    2.0170    2.8482 H         1 <0>         0.0000
     18 H2          0.4381    2.2217    2.5647 H         1 <0>         0.0000
     19 H3         -2.9945    0.0303    3.9818 H         1 <0>         0.0000
     20 H4          1.9535    0.4301    3.4146 H         1 <0>         0.0000
     21 H5         -2.1907   -2.0671    5.7986 H         1 <0>         0.0000
     22 H6         -1.7636   -2.9265    4.3211 H         1 <0>         0.0000
     23 H7          1.9285   -1.7325    5.3170 H         1 <0>         0.0000
     24 H8          0.0433   -2.0986    6.6253 H         1 <0>         0.0000
     25 H9         -0.0296   -4.6748    4.9651 H         1 <0>         0.0000
     26 H10        -0.6725   -4.4714    6.6004 H         1 <0>         0.0000
     27 H11         1.0759   -4.3595    6.3084 H         1 <0>         0.0000
     28 H12         0.2185   -5.4279    0.9559 H         1 <0>         0.0000
     29 H13         0.5446   -5.4076    2.7121 H         1 <0>         0.0000
     30 H14         1.5192   -6.4470    1.6337 H         1 <0>         0.0000
     31 H15         3.7681   -3.7682    1.9329 H         1 <0>         0.0000
     32 H16         3.3394   -5.3200    2.6731 H         1 <0>         0.0000
     33 H17         1.0025   -2.7916    2.7477 H         1 <0>         0.0000
@<TRIPOS>BOND
     1    1    2 ar
     2    1    3 ar
     3    1   17 1
     4    2    4 ar
     5    2   18 1
     6    3    5 ar
     7    3   19 1
     8    4    6 ar
     9    4   20 1
    10    5    6 ar
    11    5    8 1
    12    6    9 1
    13    7   13 1
    14    7   14 am
    15    7   15 2
    16    8   10 1
    17    8   21 1
    18    8   22 1
    19    9   10 1
    20    9   14 1
    21    9   23 1
    22   10   11 1
    23   10   24 1
    24   11   25 1
    25   11   26 1
    26   11   27 1
    27   12   16 1
    28   12   28 1
    29   12   29 1
    30   12   30 1
    31   13   16 1
    32   13   31 1
    33   13   32 1
    34   14   33 1
