@<TRIPOS>MOLECULE
*****
   47    48     0     0     0
SMALL
NO_CHARGES

@<TRIPOS>ATOM
      1 C1          7.4375    1.9458    1.2685 C.ar      1 <0>         0.0000
      2 C2          7.0277    2.3192   -0.0194 C.ar      1 <0>         0.0000
      3 C3          6.5303    1.3009    2.1099 C.ar      1 <0>         0.0000
      4 C4          5.7324    2.0507   -0.4559 C.ar      1 <0>         0.0000
      5 C5          5.2238    1.0238    1.6854 C.ar      1 <0>         0.0000
      6 C6         -0.9376    2.0417    3.8142 C.2       1 <0>         0.0000
      7 C7         -0.3195    2.8550    1.9760 C.2       1 <0>         0.0000
      8 C8          4.8244    1.4010    0.3958 C.ar      1 <0>         0.0000
      9 C9         -1.0574   -2.1343   -1.3122 C.3       1 <0>         0.0000
     10 C10        -1.1903    0.1805   -2.2692 C.3       1 <0>         0.0000
     11 C11        -3.1917   -0.8465   -1.1991 C.3       1 <0>         0.0000
     12 C12         1.3255    0.3961   -0.1127 C.3       1 <0>         0.0000
     13 C13         0.2551   -0.3644    0.6830 C.3       1 <0>         0.0000
     14 C14        -1.6533    1.3045    0.4622 C.3       1 <0>         0.0000
     15 C15         2.6131    0.5093    0.6913 C.3       1 <0>         0.0000
     16 C16        -1.6539   -0.7266   -1.1096 C.3       1 <0>         0.0000
     17 C17        -1.2391   -0.1835    0.3102 C.3       1 <0>         0.0000
     18 N1         -0.1232    2.9956    3.2828 N.2       1 <0>         0.0000
     19 N2         -1.6200    1.3314    2.9189 N.2       1 <0>         0.0000
     20 N3         -1.2159    1.8728    1.7333 N.pl3     1 <0>         0.0000
     21 O1         -1.9883   -0.9682    1.2498 O.3       1 <0>         0.0000
     22 O2          3.5744    1.1821   -0.1236 O.3       1 <0>         0.0000
     23 H1          8.4480    2.1564    1.6071 H         1 <0>         0.0000
     24 H2          7.7223    2.8225   -0.6874 H         1 <0>         0.0000
     25 H3          6.8325    1.0065    3.1118 H         1 <0>         0.0000
     26 H4          5.4009    2.3331   -1.4511 H         1 <0>         0.0000
     27 H5          4.5392    0.5245    2.3613 H         1 <0>         0.0000
     28 H6         -1.0381    1.8639    4.8770 H         1 <0>         0.0000
     29 H7          0.1513    3.4327    1.1908 H         1 <0>         0.0000
     30 H8         -1.2923   -2.7855   -0.4661 H         1 <0>         0.0000
     31 H9         -1.4792   -2.5870   -2.2158 H         1 <0>         0.0000
     32 H10         0.0292   -2.1063   -1.4402 H         1 <0>         0.0000
     33 H11        -1.7164    1.1408   -2.2811 H         1 <0>         0.0000
     34 H12        -1.4190   -0.3134   -3.2195 H         1 <0>         0.0000
     35 H13        -0.1177    0.3796   -2.2599 H         1 <0>         0.0000
     36 H14        -3.6919    0.1194   -1.0734 H         1 <0>         0.0000
     37 H15        -3.4676   -1.2249   -2.1894 H         1 <0>         0.0000
     38 H16        -3.5813   -1.5288   -0.4428 H         1 <0>         0.0000
     39 H17         1.0002    1.4092   -0.3704 H         1 <0>         0.0000
     40 H18         1.5514   -0.1086   -1.0561 H         1 <0>         0.0000
     41 H19         0.4683   -1.4351    0.6650 H         1 <0>         0.0000
     42 H20         0.3381   -0.0765    1.7373 H         1 <0>         0.0000
     43 H21        -1.2163    1.9267   -0.3179 H         1 <0>         0.0000
     44 H22        -2.7396    1.3878    0.4068 H         1 <0>         0.0000
     45 H23         2.4380    1.0788    1.6143 H         1 <0>         0.0000
     46 H24         2.9859   -0.4865    0.9686 H         1 <0>         0.0000
     47 H25        -1.9617   -0.5102    2.1132 H         1 <0>         0.0000
@<TRIPOS>BOND
     1    1    3 ar
     2    1    2 ar
     3    1   23 1
     4    2    4 ar
     5    2   24 1
     6    3    5 ar
     7    3   25 1
     8    4    8 ar
     9    4   26 1
    10    5    8 ar
    11    5   27 1
    12    6   18 1
    13    6   19 2
    14    6   28 1
    15    7   18 2
    16    7   20 1
    17    7   29 1
    18    8   22 1
    19    9   16 1
    20    9   30 1
    21    9   31 1
    22    9   32 1
    23   10   16 1
    24   10   33 1
    25   10   34 1
    26   10   35 1
    27   11   16 1
    28   11   36 1
    29   11   37 1
    30   11   38 1
    31   12   13 1
    32   12   15 1
    33   12   39 1
    34   12   40 1
    35   13   17 1
    36   13   41 1
    37   13   42 1
    38   14   17 1
    39   14   20 1
    40   14   43 1
    41   14   44 1
    42   15   22 1
    43   15   45 1
    44   15   46 1
    45   16   17 1
    46   17   21 1
    47   19   20 1
    48   21   47 1
