@<TRIPOS>MOLECULE
*****
   19    19     0     0     0
SMALL
NO_CHARGES

@<TRIPOS>ATOM
      1 C1          1.8851   -1.0363   -0.1124 C.ar      1 <0>         0.0000
      2 C2          0.8066   -0.4630    0.5610 C.ar      1 <0>         0.0000
      3 C3          2.9210   -1.6309    0.6081 C.ar      1 <0>         0.0000
      4 C4          1.7997   -1.0786    2.6757 C.ar      1 <0>         0.0000
      5 C5          0.7638   -0.4841    1.9551 C.ar      1 <0>         0.0000
      6 C6          2.8783   -1.6520    2.0022 C.ar      1 <0>         0.0000
      7 C7          4.5717   -2.7014    5.6185 C.3       1 <0>         0.0000
      8 C8          3.5993   -2.1328    4.6026 C.3       1 <0>         0.0000
      9 F1         -0.2722    0.0664    2.6015 F         1 <0>         0.0000
     10 S1          4.2020   -2.4111    2.9228 S.3       1 <0>         0.0000
     11 H1          1.9180   -1.0201   -1.1978 H         1 <0>         0.0000
     12 H2         -0.0003   -0.0004    0.0004 H         1 <0>         0.0000
     13 H3          3.7534   -2.0724    0.0654 H         1 <0>         0.0000
     14 H4          1.7484   -1.0853    3.7615 H         1 <0>         0.0000
     15 H5          4.7125   -3.7788    5.4810 H         1 <0>         0.0000
     16 H6          5.5495   -2.2116    5.5577 H         1 <0>         0.0000
     17 H7          4.1859   -2.5452    6.6315 H         1 <0>         0.0000
     18 H8          3.4740   -1.0570    4.7584 H         1 <0>         0.0000
     19 H9          2.6195   -2.6081    4.7086 H         1 <0>         0.0000
@<TRIPOS>BOND
     1    1    2 ar
     2    1    3 ar
     3    1   11 1
     4    2    5 ar
     5    2   12 1
     6    3    6 ar
     7    3   13 1
     8    4    5 ar
     9    4    6 ar
    10    4   14 1
    11    5    9 1
    12    6   10 1
    13    7    8 1
    14    7   15 1
    15    7   16 1
    16    7   17 1
    17    8   10 1
    18    8   18 1
    19    8   19 1
