@<TRIPOS>MOLECULE
*****
   66    69     0     0     0
SMALL
NO_CHARGES

@<TRIPOS>ATOM
      1 C1          1.5037    8.2811    1.4089 C.ar      1 <0>         0.0000
      2 C2          2.9154    3.1530    2.4601 C.ar      1 <0>         0.0000
      3 C3          4.4062    3.7863    4.2708 C.ar      1 <0>         0.0000
      4 C4          3.2361    1.8176    2.6839 C.ar      1 <0>         0.0000
      5 C5          4.7220    2.4521    4.4921 C.ar      1 <0>         0.0000
      6 C6          2.4476    7.6033    2.1837 C.ar      1 <0>         0.0000
      7 C7          0.5088    7.5730    0.7390 C.ar      1 <0>         0.0000
      8 C8          3.4946    4.1619    3.2578 C.ar      1 <0>         0.0000
      9 C9          4.1282    1.4624    3.6996 C.ar      1 <0>         0.0000
     10 C10         0.5217    6.1572    0.8583 C.ar      1 <0>         0.0000
     11 C11         2.3475    6.2063    2.2753 C.ar      1 <0>         0.0000
     12 C12        -1.3509    7.4884   -0.8254 C.2       1 <0>         0.0000
     13 C13        -0.7112    0.6584   -0.1661 C.3       1 <0>         0.0000
     14 C14        -2.1558    1.1954   -0.1759 C.3       1 <0>         0.0000
     15 C15         0.3848    1.6784    0.1904 C.3       1 <0>         0.0000
     16 C16        -2.4933    2.2330    0.9101 C.3       1 <0>         0.0000
     17 C17         0.2123    3.0877   -0.4047 C.3       1 <0>         0.0000
     18 C18        -2.1454    3.6795    0.5187 C.3       1 <0>         0.0000
     19 C19        -0.9302    6.0389   -1.0556 C.3       1 <0>         0.0000
     20 C20        -0.6456    4.0101    0.4871 C.3       1 <0>         0.0000
     21 C21         0.0896    5.9929   -2.2127 C.3       1 <0>         0.0000
     22 C22        -0.7986    9.6251    0.2299 C.3       1 <0>         0.0000
     23 C23         3.3568   -0.1243    6.4634 C.3       1 <0>         0.0000
     24 C24         1.8904   -0.7648    4.5941 C.3       1 <0>         0.0000
     25 N1          1.4147    5.5095    1.6165 N.ar      1 <0>         0.0000
     26 N2         -0.5460    8.1997    0.0376 N.am      1 <0>         0.0000
     27 N3         -0.4489    5.4427    0.1926 N.pl3     1 <0>         0.0000
     28 N4          3.2504    5.5231    3.0935 N.pl3     1 <0>         0.0000
     29 N5          3.2527   -0.7450    5.1381 N.pl3     1 <0>         0.0000
     30 O1         -2.3063    7.9821   -1.4200 O.2       1 <0>         0.0000
     31 O2          4.1936   -1.0157    2.8053 O.2       1 <0>         0.0000
     32 O3          5.7230   -0.3512    4.7520 O.2       1 <0>         0.0000
     33 S1          4.4502   -0.2605    4.0335 S.o2      1 <0>         0.0000
     34 H1          1.5438    9.3633    1.3500 H         1 <0>         0.0000
     35 H2          2.2288    3.4288    1.6762 H         1 <0>         0.0000
     36 H3          4.8738    4.5541    4.8844 H         1 <0>         0.0000
     37 H4          2.8088    1.0462    2.0515 H         1 <0>         0.0000
     38 H5          5.4373    2.1733    5.2593 H         1 <0>         0.0000
     39 H6          3.2296    8.1482    2.7043 H         1 <0>         0.0000
     40 H7         -0.6395   -0.1744    0.5443 H         1 <0>         0.0000
     41 H8         -0.4984    0.2288   -1.1525 H         1 <0>         0.0000
     42 H9         -2.3751    1.6442   -1.1531 H         1 <0>         0.0000
     43 H10        -2.8356    0.3402   -0.0876 H         1 <0>         0.0000
     44 H11         0.4524    1.7736    1.2807 H         1 <0>         0.0000
     45 H12         1.3490    1.2678   -0.1297 H         1 <0>         0.0000
     46 H13        -3.5723    2.2023    1.0993 H         1 <0>         0.0000
     47 H14        -2.0127    1.9670    1.8609 H         1 <0>         0.0000
     48 H15         1.1956    3.5576   -0.5038 H         1 <0>         0.0000
     49 H16        -0.2087    3.0243   -1.4158 H         1 <0>         0.0000
     50 H17        -2.6018    3.8718   -0.4598 H         1 <0>         0.0000
     51 H18        -2.6176    4.3742    1.2227 H         1 <0>         0.0000
     52 H19        -1.8390    5.5231   -1.3582 H         1 <0>         0.0000
     53 H20        -0.2676    3.8924    1.5050 H         1 <0>         0.0000
     54 H21         1.0227    6.4891   -1.9285 H         1 <0>         0.0000
     55 H22        -0.3236    6.5024   -3.0882 H         1 <0>         0.0000
     56 H23         0.3198    4.9617   -2.4868 H         1 <0>         0.0000
     57 H24         0.0037   10.2291   -0.2088 H         1 <0>         0.0000
     58 H25        -0.8763    9.8520    1.2975 H         1 <0>         0.0000
     59 H26        -1.7356    9.8675   -0.2685 H         1 <0>         0.0000
     60 H27         4.3874   -0.1850    6.8123 H         1 <0>         0.0000
     61 H28         2.7230   -0.6916    7.1508 H         1 <0>         0.0000
     62 H29         3.0255    0.9257    6.4642 H         1 <0>         0.0000
     63 H30         1.8924   -1.2720    3.6295 H         1 <0>         0.0000
     64 H31         1.4666    0.2452    4.4816 H         1 <0>         0.0000
     65 H32         1.2612   -1.3333    5.2848 H         1 <0>         0.0000
     66 H33         3.8444    6.1275    3.6452 H         1 <0>         0.0000
@<TRIPOS>BOND
     1    1    6 ar
     2    1    7 ar
     3    1   34 1
     4    2    4 ar
     5    2    8 ar
     6    2   35 1
     7    3    5 ar
     8    3    8 ar
     9    3   36 1
    10    4    9 ar
    11    4   37 1
    12    5    9 ar
    13    5   38 1
    14    6   11 ar
    15    6   39 1
    16    7   10 ar
    17    7   26 1
    18    8   28 1
    19    9   33 1
    20   10   25 ar
    21   10   27 1
    22   11   25 ar
    23   11   28 1
    24   12   19 1
    25   12   26 am
    26   12   30 2
    27   13   14 1
    28   13   15 1
    29   13   40 1
    30   13   41 1
    31   14   16 1
    32   14   42 1
    33   14   43 1
    34   15   17 1
    35   15   44 1
    36   15   45 1
    37   16   18 1
    38   16   46 1
    39   16   47 1
    40   17   20 1
    41   17   48 1
    42   17   49 1
    43   18   20 1
    44   18   50 1
    45   18   51 1
    46   19   21 1
    47   19   27 1
    48   19   52 1
    49   20   27 1
    50   20   53 1
    51   21   54 1
    52   21   55 1
    53   21   56 1
    54   22   26 1
    55   22   57 1
    56   22   58 1
    57   22   59 1
    58   23   29 1
    59   23   60 1
    60   23   61 1
    61   23   62 1
    62   24   29 1
    63   24   63 1
    64   24   64 1
    65   24   65 1
    66   28   66 1
    67   29   33 1
    68   31   33 2
    69   32   33 2
