@<TRIPOS>MOLECULE
*****
   68    70     0     0     0
SMALL
NO_CHARGES

@<TRIPOS>ATOM
      1 C1          7.0902   -1.0068   -2.3379 C.ar      1 <0>         0.0000
      2 C2          5.8255    6.2773    2.1469 C.ar      1 <0>         0.0000
      3 C3          6.0020   -1.0203   -1.4577 C.ar      1 <0>         0.0000
      4 C4          7.1996    0.0055   -3.2962 C.ar      1 <0>         0.0000
      5 C5          5.8114    4.8892    2.3282 C.ar      1 <0>         0.0000
      6 C6          5.8040    6.8117    0.8548 C.ar      1 <0>         0.0000
      7 C7          5.0266   -0.0241   -1.5308 C.ar      1 <0>         0.0000
      8 C8          6.2272    1.0069   -3.3664 C.ar      1 <0>         0.0000
      9 C9          5.7626    4.0413    1.2217 C.ar      1 <0>         0.0000
     10 C10         5.7474    5.9602   -0.2531 C.ar      1 <0>         0.0000
     11 C11         5.1386    1.0014   -2.4831 C.ar      1 <0>         0.0000
     12 C12         5.7135    4.5716   -0.0755 C.ar      1 <0>         0.0000
     13 C13         2.9259    2.0767    1.7633 C.2       1 <0>         0.0000
     14 C14         4.0483    0.4149    4.7631 C.3       1 <0>         0.0000
     15 C15         4.0030    0.3770    3.2246 C.3       1 <0>         0.0000
     16 C16         2.4874    2.0395    4.2582 C.3       1 <0>         0.0000
     17 C17         5.4130    0.4901    2.6413 C.3       1 <0>         0.0000
     18 C18         3.2766   -0.8782    2.7210 C.3       1 <0>         0.0000
     19 C19         0.9642    2.0839    4.1760 C.3       1 <0>         0.0000
     20 C20         3.0908    3.3632    4.7355 C.3       1 <0>         0.0000
     21 C21         0.2068    4.1932    0.8284 C.3       1 <0>         0.0000
     22 C22         4.0997    2.0877   -2.5555 C.3       1 <0>         0.0000
     23 C23         5.5866    3.6446   -1.2520 C.3       1 <0>         0.0000
     24 C24         2.4899    4.6208   -0.2230 C.3       1 <0>         0.0000
     25 C25         3.1234    4.1508   -1.5356 C.3       1 <0>         0.0000
     26 C26         1.5665    3.6015    0.4825 C.3       1 <0>         0.0000
     27 N1          3.1590    1.5870    2.9863 N.am      1 <0>         0.0000
     28 N2          4.1845    3.0785   -1.3989 N.4       1 <0>         0.0000
     29 O1          3.3901    1.5868    0.7102 O.2       1 <0>         0.0000
     30 O2          2.8053    0.9803    5.1556 O.3       1 <0>         0.0000
     31 O3          2.1416    3.1769    1.7551 O.3       1 <0>         0.0000
     32 H1          7.8442   -1.7870   -2.2833 H         1 <0>         0.0000
     33 H2          5.8674    6.9384    3.0079 H         1 <0>         0.0000
     34 H3          5.9086   -1.8134   -0.7210 H         1 <0>         0.0000
     35 H4          8.0363    0.0138   -3.9887 H         1 <0>         0.0000
     36 H5          5.8458    4.4715    3.3301 H         1 <0>         0.0000
     37 H6          5.8340    7.8877    0.7095 H         1 <0>         0.0000
     38 H7          4.1840   -0.0395   -0.8460 H         1 <0>         0.0000
     39 H8          6.3149    1.7906   -4.1159 H         1 <0>         0.0000
     40 H9          5.7591    2.9651    1.3614 H         1 <0>         0.0000
     41 H10         5.7326    6.3818   -1.2558 H         1 <0>         0.0000
     42 H11         4.1201   -0.5795    5.2058 H         1 <0>         0.0000
     43 H12         4.8903    1.0256    5.1161 H         1 <0>         0.0000
     44 H13         5.4056    0.4463    1.5518 H         1 <0>         0.0000
     45 H14         6.0189   -0.3432    3.0119 H         1 <0>         0.0000
     46 H15         5.8959    1.4179    2.9624 H         1 <0>         0.0000
     47 H16         3.0952   -0.8133    1.6458 H         1 <0>         0.0000
     48 H17         2.3192   -0.9996    3.2351 H         1 <0>         0.0000
     49 H18         3.8857   -1.7666    2.9148 H         1 <0>         0.0000
     50 H19         0.5830    1.1876    3.6802 H         1 <0>         0.0000
     51 H20         0.6127    2.9711    3.6522 H         1 <0>         0.0000
     52 H21         0.5776    2.1009    5.1979 H         1 <0>         0.0000
     53 H22         4.1658    3.2587    4.9040 H         1 <0>         0.0000
     54 H23         2.6208    3.6548    5.6782 H         1 <0>         0.0000
     55 H24         2.9269    4.1511    3.9974 H         1 <0>         0.0000
     56 H25         0.3188    5.0689    1.4749 H         1 <0>         0.0000
     57 H26        -0.4174    3.4567    1.3398 H         1 <0>         0.0000
     58 H27        -0.3062    4.5040   -0.0868 H         1 <0>         0.0000
     59 H28         4.1912    2.6710   -3.4749 H         1 <0>         0.0000
     60 H29         3.0899    1.6744   -2.5041 H         1 <0>         0.0000
     61 H30         5.8180    4.1469   -2.1944 H         1 <0>         0.0000
     62 H31         6.2458    2.7827   -1.1523 H         1 <0>         0.0000
     63 H32         1.8985    5.5026   -0.4900 H         1 <0>         0.0000
     64 H33         3.2437    4.9684    0.4829 H         1 <0>         0.0000
     65 H34         2.3494    3.7438   -2.1902 H         1 <0>         0.0000
     66 H35         3.5851    4.9909   -2.0581 H         1 <0>         0.0000
     67 H36         1.4349    2.7065   -0.1316 H         1 <0>         0.0000
     68 H37         3.9556    2.5268   -0.5330 H         1 <0>         0.0000
@<TRIPOS>BOND
     1    1    4 ar
     2    1    3 ar
     3    1   32 1
     4    2    6 ar
     5    2    5 ar
     6    2   33 1
     7    3    7 ar
     8    3   34 1
     9    4    8 ar
    10    4   35 1
    11    5    9 ar
    12    5   36 1
    13    6   10 ar
    14    6   37 1
    15    7   11 ar
    16    7   38 1
    17    8   11 ar
    18    8   39 1
    19    9   12 ar
    20    9   40 1
    21   10   12 ar
    22   10   41 1
    23   11   22 1
    24   12   23 1
    25   13   27 am
    26   13   29 2
    27   13   31 1
    28   14   15 1
    29   14   30 1
    30   14   42 1
    31   14   43 1
    32   15   17 1
    33   15   18 1
    34   15   27 1
    35   16   19 1
    36   16   20 1
    37   16   27 1
    38   16   30 1
    39   17   44 1
    40   17   45 1
    41   17   46 1
    42   18   47 1
    43   18   48 1
    44   18   49 1
    45   19   50 1
    46   19   51 1
    47   19   52 1
    48   20   53 1
    49   20   54 1
    50   20   55 1
    51   21   26 1
    52   21   56 1
    53   21   57 1
    54   21   58 1
    55   22   28 1
    56   22   59 1
    57   22   60 1
    58   23   28 1
    59   23   61 1
    60   23   62 1
    61   24   25 1
    62   24   26 1
    63   24   63 1
    64   24   64 1
    65   25   28 1
    66   25   65 1
    67   25   66 1
    68   26   31 1
    69   26   67 1
    70   28   68 1
