@<TRIPOS>MOLECULE
*****
   75    79     0     0     0
SMALL
NO_CHARGES

@<TRIPOS>ATOM
      1 C1          4.1663   -2.9346   -3.8126 C.ar      1 <0>         0.0000
      2 C2         -1.5981  -17.9933    6.2113 C.ar      1 <0>         0.0000
      3 C3          4.1974   -3.0497   -2.4179 C.ar      1 <0>         0.0000
      4 C4          3.2971   -2.0129   -4.4053 C.ar      1 <0>         0.0000
      5 C5         -0.3117  -17.5002    6.4527 C.ar      1 <0>         0.0000
      6 C6         -2.6148  -17.1160    5.8174 C.ar      1 <0>         0.0000
      7 C7          3.3623   -2.2598   -1.6275 C.ar      1 <0>         0.0000
      8 C8          2.4691   -1.2158   -3.6106 C.ar      1 <0>         0.0000
      9 C9          0.6682   -2.9716    1.1645 C.ar      1 <0>         0.0000
     10 C10         0.3233   -3.3161   -1.1886 C.ar      1 <0>         0.0000
     11 C11        -1.1993   -0.2782    0.9407 C.ar      1 <0>         0.0000
     12 C12        -0.0468  -16.1360    6.3023 C.ar      1 <0>         0.0000
     13 C13        -2.3513  -15.7523    5.6707 C.ar      1 <0>         0.0000
     14 C14         0.4817   -4.3370    1.4056 C.ar      1 <0>         0.0000
     15 C15         0.1264   -4.6728   -0.9671 C.ar      1 <0>         0.0000
     16 C16        -1.8808    0.5789    1.8040 C.ar      1 <0>         0.0000
     17 C17         0.1317    1.9103    2.0202 C.ar      1 <0>         0.0000
     18 C18         0.6123   -2.4344   -0.1287 C.ar      1 <0>         0.0000
     19 C19         2.4764   -1.3341   -2.2093 C.ar      1 <0>         0.0000
     20 C20         0.1393   -0.0545    0.5839 C.ar      1 <0>         0.0000
     21 C21         0.8140    1.0560    1.1508 C.ar      1 <0>         0.0000
     22 C22        -1.0633  -15.2495    5.9171 C.ar      1 <0>         0.0000
     23 C23         0.2123   -5.1976    0.3329 C.ar      1 <0>         0.0000
     24 C24        -1.2098    1.6826    2.3435 C.ar      1 <0>         0.0000
     25 C25         0.8294   -0.9809   -0.3541 C.2       1 <0>         0.0000
     26 C26         1.5991   -0.4856   -1.3628 C.2       1 <0>         0.0000
     27 C27         2.2730    1.2966    0.8368 C.3       1 <0>         0.0000
     28 C28         1.6295    1.0110   -1.6168 C.3       1 <0>         0.0000
     29 C29         2.5181    1.7700   -0.6108 C.3       1 <0>         0.0000
     30 C30        -0.7751  -13.7897    5.7269 C.3       1 <0>         0.0000
     31 C31        -0.0970   -9.3585    2.9460 C.3       1 <0>         0.0000
     32 C32        -0.1589   -8.6275    1.6002 C.3       1 <0>         0.0000
     33 C33        -0.3402  -10.8664    2.8026 C.3       1 <0>         0.0000
     34 C34         0.0855   -7.1330    1.7487 C.3       1 <0>         0.0000
     35 C35        -0.2849  -11.5889    4.1469 C.3       1 <0>         0.0000
     36 O1         -2.1192  -13.4146    3.4043 O.2       1 <0>         0.0000
     37 O2         -1.8137    2.5691    3.2047 O.3       1 <0>         0.0000
     38 O3          0.0104   -6.5472    0.4480 O.3       1 <0>         0.0000
     39 S1         -0.6840  -13.3766    3.9103 S.o       1 <0>         0.0000
     40 H1          4.8136   -3.5529   -4.4292 H         1 <0>         0.0000
     41 H2         -1.8066  -19.0536    6.3284 H         1 <0>         0.0000
     42 H3          4.8746   -3.7570   -1.9454 H         1 <0>         0.0000
     43 H4          3.2617   -1.9155   -5.4876 H         1 <0>         0.0000
     44 H5          0.4833  -18.1756    6.7584 H         1 <0>         0.0000
     45 H6         -3.6142  -17.4955    5.6209 H         1 <0>         0.0000
     46 H7          3.3870   -2.3593   -0.5466 H         1 <0>         0.0000
     47 H8          1.7891   -0.5133   -4.0861 H         1 <0>         0.0000
     48 H9          0.8683   -2.3121    2.0048 H         1 <0>         0.0000
     49 H10         0.2533   -2.9279   -2.1997 H         1 <0>         0.0000
     50 H11        -1.7176   -1.1396    0.5290 H         1 <0>         0.0000
     51 H12         0.9558  -15.7572    6.4907 H         1 <0>         0.0000
     52 H13        -3.1332  -15.0738    5.3423 H         1 <0>         0.0000
     53 H14         0.5453   -4.7086    2.4221 H         1 <0>         0.0000
     54 H15        -0.0989   -5.3486   -1.7870 H         1 <0>         0.0000
     55 H16        -2.9232    0.3891    2.0564 H         1 <0>         0.0000
     56 H17         0.6367    2.7621    2.4683 H         1 <0>         0.0000
     57 H18         2.6933    2.0220    1.5403 H         1 <0>         0.0000
     58 H19         2.8161    0.3563    0.9843 H         1 <0>         0.0000
     59 H20         1.9860    1.2177   -2.6295 H         1 <0>         0.0000
     60 H21         0.6115    1.4081   -1.5446 H         1 <0>         0.0000
     61 H22         2.3066    2.8424   -0.7004 H         1 <0>         0.0000
     62 H23         3.5778    1.6283   -0.8534 H         1 <0>         0.0000
     63 H24        -1.5777  -13.1554    6.1154 H         1 <0>         0.0000
     64 H25         0.1779  -13.4978    6.1784 H         1 <0>         0.0000
     65 H26         0.8816   -9.1864    3.4145 H         1 <0>         0.0000
     66 H27        -0.8458   -8.9357    3.6291 H         1 <0>         0.0000
     67 H28         0.5883   -9.0397    0.9123 H         1 <0>         0.0000
     68 H29        -1.1387   -8.7815    1.1339 H         1 <0>         0.0000
     69 H30        -1.3216  -11.0436    2.3502 H         1 <0>         0.0000
     70 H31         0.4059  -11.2952    2.1218 H         1 <0>         0.0000
     71 H32         1.0759   -6.9443    2.1864 H         1 <0>         0.0000
     72 H33        -0.6693   -6.6799    2.4067 H         1 <0>         0.0000
     73 H34         0.7104  -11.5311    4.6029 H         1 <0>         0.0000
     74 H35        -1.0272  -11.1844    4.8439 H         1 <0>         0.0000
     75 H36        -2.7353    2.2974    3.3393 H         1 <0>         0.0000
@<TRIPOS>BOND
     1    1    4 ar
     2    1    3 ar
     3    1   40 1
     4    2    6 ar
     5    2    5 ar
     6    2   41 1
     7    3    7 ar
     8    3   42 1
     9    4    8 ar
    10    4   43 1
    11    5   12 ar
    12    5   44 1
    13    6   13 ar
    14    6   45 1
    15    7   19 ar
    16    7   46 1
    17    8   19 ar
    18    8   47 1
    19    9   14 ar
    20    9   18 ar
    21    9   48 1
    22   10   15 ar
    23   10   18 ar
    24   10   49 1
    25   11   16 ar
    26   11   20 ar
    27   11   50 1
    28   12   22 ar
    29   12   51 1
    30   13   22 ar
    31   13   52 1
    32   14   23 ar
    33   14   53 1
    34   15   23 ar
    35   15   54 1
    36   16   24 ar
    37   16   55 1
    38   17   21 ar
    39   17   24 ar
    40   17   56 1
    41   18   25 1
    42   19   26 1
    43   20   21 ar
    44   20   25 1
    45   21   27 1
    46   22   30 1
    47   23   38 1
    48   24   37 1
    49   25   26 2
    50   26   28 1
    51   27   29 1
    52   27   57 1
    53   27   58 1
    54   28   29 1
    55   28   59 1
    56   28   60 1
    57   29   61 1
    58   29   62 1
    59   30   39 1
    60   30   63 1
    61   30   64 1
    62   31   32 1
    63   31   33 1
    64   31   65 1
    65   31   66 1
    66   32   34 1
    67   32   67 1
    68   32   68 1
    69   33   35 1
    70   33   69 1
    71   33   70 1
    72   34   38 1
    73   34   71 1
    74   34   72 1
    75   35   39 1
    76   35   73 1
    77   35   74 1
    78   36   39 2
    79   37   75 1
