@<TRIPOS>MOLECULE
*****
   68    72     0     0     0
SMALL
NO_CHARGES

@<TRIPOS>ATOM
      1 C1          2.8662    9.9554    4.9325 C.ar      1 <0>         0.0000
      2 C2          3.2870    8.6420    5.1647 C.ar      1 <0>         0.0000
      3 C3          2.5153   10.3586    3.6385 C.ar      1 <0>         0.0000
      4 C4        -13.4811   -2.0694   -1.9551 C.ar      1 <0>         0.0000
      5 C5         -1.0224    0.7217   -0.3200 C.ar      1 <0>         0.0000
      6 C6          0.6428    3.9969   -0.8962 C.ar      1 <0>         0.0000
      7 C7          1.2796    2.3586    0.7657 C.ar      1 <0>         0.0000
      8 C8          3.3721    7.7368    4.1041 C.ar      1 <0>         0.0000
      9 C9          2.5877    9.4533    2.5800 C.ar      1 <0>         0.0000
     10 C10       -12.3390   -1.4089   -2.4099 C.ar      1 <0>         0.0000
     11 C11        -2.2315    0.0644   -0.5139 C.ar      1 <0>         0.0000
     12 C12         1.8443    4.6753   -0.7068 C.ar      1 <0>         0.0000
     13 C13         2.4877    3.0213    0.9670 C.ar      1 <0>         0.0000
     14 C14        -2.1343    2.8372   -0.6071 C.ar      1 <0>         0.0000
     15 C15       -14.0466   -1.6626   -0.7428 C.ar      1 <0>         0.0000
     16 C16       -12.4543   -0.0402   -0.4468 C.ar      1 <0>         0.0000
     17 C17         0.3354    2.8336   -0.1652 C.ar      1 <0>         0.0000
     18 C18        -0.9489    2.1268   -0.3683 C.ar      1 <0>         0.0000
     19 C19         3.0280    8.1402    2.8043 C.ar      1 <0>         0.0000
     20 C20        -3.3650    2.2021   -0.7986 C.ar      1 <0>         0.0000
     21 C21       -11.8001   -0.3721   -1.6421 C.ar      1 <0>         0.0000
     22 C22        -3.4007    0.7978   -0.7567 C.ar      1 <0>         0.0000
     23 C23         2.7533    4.1783    0.2298 C.ar      1 <0>         0.0000
     24 C24         3.0815    7.2244    1.6206 C.2       1 <0>         0.0000
     25 C25        -4.6392    2.9905   -1.0150 C.3       1 <0>         0.0000
     26 C26        -5.8648    2.1204   -0.7249 C.3       1 <0>         0.0000
     27 C27        -5.7085    0.7714   -1.4164 C.3       1 <0>         0.0000
     28 C28        -6.8812   -0.1816   -1.1975 C.3       1 <0>         0.0000
     29 C29        -9.2927   -0.4668   -1.5805 C.3       1 <0>         0.0000
     30 C30       -10.5253    0.3233   -2.0585 C.3       1 <0>         0.0000
     31 N1        -13.5525   -0.6646    0.0030 N.ar      1 <0>         0.0000
     32 N2          3.9366    6.1336    1.7491 N.am      1 <0>         0.0000
     33 N3         -8.0850    0.3155   -1.8701 N.3       1 <0>         0.0000
     34 O1          2.4127    7.4046    0.6116 O.2       1 <0>         0.0000
     35 O2          4.6585    5.7510   -0.7256 O.2       1 <0>         0.0000
     36 O3          5.2488    4.1235    1.1480 O.2       1 <0>         0.0000
     37 O4         -4.5514    0.0692   -0.9232 O.3       1 <0>         0.0000
     38 O5        -10.4791    1.6365   -1.5159 O.3       1 <0>         0.0000
     39 S1          4.3008    5.0211    0.4825 S.o2      1 <0>         0.0000
     40 H1          2.8053   10.6599    5.7578 H         1 <0>         0.0000
     41 H2          3.5424    8.3210    6.1709 H         1 <0>         0.0000
     42 H3          2.1836   11.3773    3.4573 H         1 <0>         0.0000
     43 H4        -13.9300   -2.8772   -2.5263 H         1 <0>         0.0000
     44 H5         -0.1205    0.1369   -0.1627 H         1 <0>         0.0000
     45 H6         -0.0562    4.3612   -1.6431 H         1 <0>         0.0000
     46 H7          1.0559    1.4740    1.3545 H         1 <0>         0.0000
     47 H8          3.6675    6.7110    4.3088 H         1 <0>         0.0000
     48 H9          2.3093    9.7428    1.5716 H         1 <0>         0.0000
     49 H10       -11.8776   -1.6919   -3.3546 H         1 <0>         0.0000
     50 H11        -2.2916   -1.0198   -0.4930 H         1 <0>         0.0000
     51 H12         2.0812    5.5716   -1.2681 H         1 <0>         0.0000
     52 H13         3.2185    2.6507    1.6788 H         1 <0>         0.0000
     53 H14        -2.1124    3.9249   -0.6057 H         1 <0>         0.0000
     54 H15       -14.9378   -2.1558   -0.3569 H         1 <0>         0.0000
     55 H16       -12.0749    0.7779    0.1598 H         1 <0>         0.0000
     56 H17        -4.6395    3.8805   -0.3774 H         1 <0>         0.0000
     57 H18        -4.6809    3.3506   -2.0513 H         1 <0>         0.0000
     58 H19        -5.9651    1.9491    0.3535 H         1 <0>         0.0000
     59 H20        -6.7832    2.5994   -1.0736 H         1 <0>         0.0000
     60 H21        -5.5646    0.9324   -2.4971 H         1 <0>         0.0000
     61 H22        -7.0875   -0.2478   -0.1243 H         1 <0>         0.0000
     62 H23        -6.5841   -1.1871   -1.5344 H         1 <0>         0.0000
     63 H24        -9.2859   -1.4717   -2.0314 H         1 <0>         0.0000
     64 H25        -9.3644   -0.5919   -0.4952 H         1 <0>         0.0000
     65 H26       -10.4983    0.3748   -3.1609 H         1 <0>         0.0000
     66 H27         4.6177    6.0868    2.5010 H         1 <0>         0.0000
     67 H28        -7.9260    0.3130   -2.8778 H         1 <0>         0.0000
     68 H29        -9.5270    1.8559   -1.4823 H         1 <0>         0.0000
@<TRIPOS>BOND
     1    1    3 ar
     2    1    2 ar
     3    1   40 1
     4    2    8 ar
     5    2   41 1
     6    3    9 ar
     7    3   42 1
     8    4   10 ar
     9    4   15 ar
    10    4   43 1
    11    5   11 ar
    12    5   18 ar
    13    5   44 1
    14    6   12 ar
    15    6   17 ar
    16    6   45 1
    17    7   13 ar
    18    7   17 ar
    19    7   46 1
    20    8   19 ar
    21    8   47 1
    22    9   19 ar
    23    9   48 1
    24   10   21 ar
    25   10   49 1
    26   11   22 ar
    27   11   50 1
    28   12   23 ar
    29   12   51 1
    30   13   23 ar
    31   13   52 1
    32   14   18 ar
    33   14   20 ar
    34   14   53 1
    35   15   31 ar
    36   15   54 1
    37   16   21 ar
    38   16   31 ar
    39   16   55 1
    40   17   18 1
    41   19   24 1
    42   20   22 ar
    43   20   25 1
    44   21   30 1
    45   22   37 1
    46   23   39 1
    47   24   32 am
    48   24   34 2
    49   25   26 1
    50   25   56 1
    51   25   57 1
    52   26   27 1
    53   26   58 1
    54   26   59 1
    55   27   28 1
    56   27   37 1
    57   27   60 1
    58   28   33 1
    59   28   61 1
    60   28   62 1
    61   29   30 1
    62   29   33 1
    63   29   63 1
    64   29   64 1
    65   30   38 1
    66   30   65 1
    67   32   39 1
    68   32   66 1
    69   33   67 1
    70   35   39 2
    71   36   39 2
    72   38   68 1
