@<TRIPOS>MOLECULE
*****
   60    63     0     0     0
SMALL
NO_CHARGES

@<TRIPOS>ATOM
      1 C1          3.1344    7.1746   -2.4205 C.ar      1 <0>         0.0000
      2 C2          2.6108    6.4384   -1.3516 C.ar      1 <0>         0.0000
      3 C3         -2.1739    2.3991   -4.8292 C.ar      1 <0>         0.0000
      4 C4          2.6635    6.9859   -3.7170 C.ar      1 <0>         0.0000
      5 C5         -1.7180    2.0125   -3.5652 C.ar      1 <0>         0.0000
      6 C6          1.1091    5.3041   -2.9117 C.ar      1 <0>         0.0000
      7 C7         -3.7734    2.8105   -2.5412 C.ar      1 <0>         0.0000
      8 C8          1.5950    5.5058   -1.6057 C.ar      1 <0>         0.0000
      9 C9         -3.4269    3.0113   -4.9526 C.ar      1 <0>         0.0000
     10 C10        -4.2103    3.2069   -3.8084 C.ar      1 <0>         0.0000
     11 C11         1.6459    6.0428   -3.9738 C.ar      1 <0>         0.0000
     12 C12        -2.5101    2.2151   -2.4267 C.ar      1 <0>         0.0000
     13 C13        -0.1784    3.3750    0.6661 C.2       1 <0>         0.0000
     14 C14         0.7391    3.9481    1.5004 C.2       1 <0>         0.0000
     15 C15         1.0036    4.7135   -0.5320 C.2       1 <0>         0.0000
     16 C16        -2.2997    3.1186   -7.9094 C.2       1 <0>         0.0000
     17 C17        -5.5326    3.8433   -4.1815 C.3       1 <0>         0.0000
     18 C18        -5.2453    4.4224   -5.5857 C.3       1 <0>         0.0000
     19 C19        -4.1482    3.5094   -6.1987 C.3       1 <0>         0.0000
     20 C20         1.0571    3.8364    2.9494 C.3       1 <0>         0.0000
     21 C21        -3.2564    5.4976   -9.4553 C.3       1 <0>         0.0000
     22 C22         0.2688    4.9149   -5.5840 C.3       1 <0>         0.0000
     23 C23        -1.2628    2.3780    0.9720 C.3       1 <0>         0.0000
     24 C24        -4.1084    4.8240   -8.3720 C.3       1 <0>         0.0000
     25 C25        -2.4103    2.4355   -0.0378 C.3       1 <0>         0.0000
     26 C26        -3.2616    4.1747   -7.2645 C.3       1 <0>         0.0000
     27 N1          0.0065    3.8795   -0.6172 N.2       1 <0>         0.0000
     28 O1         -2.8702    2.1384   -8.4585 O.co2     1 <0>         0.0000
     29 O2         -1.0576    3.3548   -7.8150 O.co2     1 <0>         0.0000
     30 O3          1.5111    4.8116    0.7408 O.3       1 <0>         0.0000
     31 O4          1.2583    5.9196   -5.2647 O.3       1 <0>         0.0000
     32 O5         -1.9829    1.7791   -1.2248 O.3       1 <0>         0.0000
     33 H1          3.9212    7.9033   -2.2393 H         1 <0>         0.0000
     34 H2          2.9783    6.5835   -0.3409 H         1 <0>         0.0000
     35 H3         -1.5471    2.2543   -5.7040 H         1 <0>         0.0000
     36 H4          3.0666    7.5490   -4.5541 H         1 <0>         0.0000
     37 H5         -0.7368    1.5637   -3.4356 H         1 <0>         0.0000
     38 H6          0.3237    4.5738   -3.0651 H         1 <0>         0.0000
     39 H7         -4.4055    2.9593   -1.6694 H         1 <0>         0.0000
     40 H8         -6.3176    3.0742   -4.2322 H         1 <0>         0.0000
     41 H9         -5.8686    4.5989   -3.4608 H         1 <0>         0.0000
     42 H10        -6.1423    4.4862   -6.2090 H         1 <0>         0.0000
     43 H11        -4.8420    5.4380   -5.4789 H         1 <0>         0.0000
     44 H12        -4.6197    2.6462   -6.6899 H         1 <0>         0.0000
     45 H13         2.0640    3.4334    3.1125 H         1 <0>         0.0000
     46 H14         1.0042    4.8109    3.4492 H         1 <0>         0.0000
     47 H15         0.3426    3.1645    3.4318 H         1 <0>         0.0000
     48 H16        -2.5970    4.7697   -9.9363 H         1 <0>         0.0000
     49 H17        -3.8873    5.9566  -10.2281 H         1 <0>         0.0000
     50 H18        -2.6216    6.2824   -9.0256 H         1 <0>         0.0000
     51 H19         0.1111    4.9261   -6.6598 H         1 <0>         0.0000
     52 H20        -0.6762    5.1262   -5.0738 H         1 <0>         0.0000
     53 H21         0.6236    3.9216   -5.2932 H         1 <0>         0.0000
     54 H22        -0.8615    1.3571    0.9670 H         1 <0>         0.0000
     55 H23        -1.6582    2.5603    1.9786 H         1 <0>         0.0000
     56 H24        -4.7929    5.5685   -7.9415 H         1 <0>         0.0000
     57 H25        -4.7245    4.0404   -8.8296 H         1 <0>         0.0000
     58 H26        -3.2978    1.9310    0.3723 H         1 <0>         0.0000
     59 H27        -2.6719    3.4776   -0.2508 H         1 <0>         0.0000
     60 H28        -2.6531    4.9520   -6.7820 H         1 <0>         0.0000
@<TRIPOS>BOND
     1    1    2 ar
     2    1    4 ar
     3    1   33 1
     4    2    8 ar
     5    2   34 1
     6    3    5 ar
     7    3    9 ar
     8    3   35 1
     9    4   11 ar
    10    4   36 1
    11    5   12 ar
    12    5   37 1
    13    6    8 ar
    14    6   11 ar
    15    6   38 1
    16    7   10 ar
    17    7   12 ar
    18    7   39 1
    19    8   15 1
    20    9   10 ar
    21    9   19 1
    22   10   17 1
    23   11   31 1
    24   12   32 1
    25   13   14 2
    26   13   23 1
    27   13   27 1
    28   14   20 1
    29   14   30 1
    30   15   27 2
    31   15   30 1
    32   16   26 1
    33   16   28 1
    34   16   29 2
    35   17   18 1
    36   17   40 1
    37   17   41 1
    38   18   19 1
    39   18   42 1
    40   18   43 1
    41   19   26 1
    42   19   44 1
    43   20   45 1
    44   20   46 1
    45   20   47 1
    46   21   24 1
    47   21   48 1
    48   21   49 1
    49   21   50 1
    50   22   31 1
    51   22   51 1
    52   22   52 1
    53   22   53 1
    54   23   25 1
    55   23   54 1
    56   23   55 1
    57   24   26 1
    58   24   56 1
    59   24   57 1
    60   25   32 1
    61   25   58 1
    62   25   59 1
    63   26   60 1
