@<TRIPOS>MOLECULE
*****
   68    72     0     0     0
SMALL
NO_CHARGES

@<TRIPOS>ATOM
      1 C1          3.2456    9.8060    4.1963 C.ar      1 <0>         0.0000
      2 C2          3.6859    8.5081    4.4750 C.ar      1 <0>         0.0000
      3 C3          2.8115   10.1350    2.9067 C.ar      1 <0>         0.0000
      4 C4        -10.0244   -6.6561   -0.9877 C.ar      1 <0>         0.0000
      5 C5         -1.0053    0.3555   -0.2868 C.ar      1 <0>         0.0000
      6 C6          0.6599    3.5644   -1.1492 C.ar      1 <0>         0.0000
      7 C7          1.3737    2.0202    0.5708 C.ar      1 <0>         0.0000
      8 C8          3.7068    7.5443    3.4641 C.ar      1 <0>         0.0000
      9 C9          2.8204    9.1713    1.8985 C.ar      1 <0>         0.0000
     10 C10        -8.8947   -5.8516   -1.1420 C.ar      1 <0>         0.0000
     11 C11        -2.2310   -0.2939   -0.3757 C.ar      1 <0>         0.0000
     12 C12         1.8779    4.2351   -1.0708 C.ar      1 <0>         0.0000
     13 C13         2.5987    2.6761    0.6618 C.ar      1 <0>         0.0000
     14 C14        -2.1083    2.4680   -0.6272 C.ar      1 <0>         0.0000
     15 C15       -11.1259   -6.4227   -1.8167 C.ar      1 <0>         0.0000
     16 C16       -10.0575   -4.7040   -2.8941 C.ar      1 <0>         0.0000
     17 C17         0.3827    2.4526   -0.3315 C.ar      1 <0>         0.0000
     18 C18        -0.9194    1.7544   -0.4176 C.ar      1 <0>         0.0000
     19 C19         3.2794    7.8731    2.1680 C.ar      1 <0>         0.0000
     20 C20        -3.3550    1.8409   -0.7125 C.ar      1 <0>         0.0000
     21 C21        -8.9025   -4.8436   -2.1110 C.ar      1 <0>         0.0000
     22 C22        -3.4031    0.4421   -0.5922 C.ar      1 <0>         0.0000
     23 C23         2.8336    3.7826   -0.1587 C.ar      1 <0>         0.0000
     24 C24         3.2613    6.8923    1.0364 C.2       1 <0>         0.0000
     25 C25        -4.6282    2.6373   -0.9074 C.3       1 <0>         0.0000
     26 C26        -5.8570    1.8011   -0.5367 C.3       1 <0>         0.0000
     27 C27        -5.7375    0.4172   -1.1647 C.3       1 <0>         0.0000
     28 C28        -6.9189   -0.4938   -0.8739 C.3       1 <0>         0.0000
     29 C29        -7.8213   -2.7440   -1.2563 C.3       1 <0>         0.0000
     30 C30        -7.7298   -3.9043   -2.2657 C.3       1 <0>         0.0000
     31 N1        -11.1505   -5.4694   -2.7586 N.ar      1 <0>         0.0000
     32 N2          4.1196    5.8053    1.1750 N.am      1 <0>         0.0000
     33 N3         -6.7528   -1.7836   -1.5447 N.3       1 <0>         0.0000
     34 O1          2.5345    7.0194    0.0598 O.2       1 <0>         0.0000
     35 O2          4.6936    5.2749   -1.3112 O.2       1 <0>         0.0000
     36 O3          5.3780    3.7491    0.6153 O.2       1 <0>         0.0000
     37 O4         -4.5740   -0.2715   -0.6500 O.3       1 <0>         0.0000
     38 O5         -7.6917   -3.3751   -3.5840 O.3       1 <0>         0.0000
     39 S1          4.4010    4.6191   -0.0446 S.o2      1 <0>         0.0000
     40 H1          3.2347   10.5561    4.9827 H         1 <0>         0.0000
     41 H2          4.0065    8.2448    5.4793 H         1 <0>         0.0000
     42 H3          2.4648   11.1418    2.6897 H         1 <0>         0.0000
     43 H4        -10.0533   -7.4514   -0.2480 H         1 <0>         0.0000
     44 H5         -0.1023   -0.2326   -0.1500 H         1 <0>         0.0000
     45 H6         -0.0769    3.8927   -1.8762 H         1 <0>         0.0000
     46 H7          1.1746    1.1758    1.2240 H         1 <0>         0.0000
     47 H8          4.0191    6.5321    3.7077 H         1 <0>         0.0000
     48 H9          2.4777    9.4033    0.8950 H         1 <0>         0.0000
     49 H10        -8.0146   -6.0116   -0.5212 H         1 <0>         0.0000
     50 H11        -2.3005   -1.3748   -0.2934 H         1 <0>         0.0000
     51 H12         2.0921    5.0921   -1.6985 H         1 <0>         0.0000
     52 H13         3.3654    2.3386    1.3519 H         1 <0>         0.0000
     53 H14        -2.0734    3.5536   -0.6891 H         1 <0>         0.0000
     54 H15       -12.0247   -7.0309   -1.7242 H         1 <0>         0.0000
     55 H16       -10.0851   -3.9465   -3.6728 H         1 <0>         0.0000
     56 H17        -4.5905    3.5520   -0.3070 H         1 <0>         0.0000
     57 H18        -4.7057    2.9556   -1.9550 H         1 <0>         0.0000
     58 H19        -5.9312    1.6915    0.5513 H         1 <0>         0.0000
     59 H20        -6.7740    2.2862   -0.8863 H         1 <0>         0.0000
     60 H21        -5.6137    0.5075   -2.2531 H         1 <0>         0.0000
     61 H22        -7.8293   -0.0178   -1.2547 H         1 <0>         0.0000
     62 H23        -7.0285   -0.5940    0.2194 H         1 <0>         0.0000
     63 H24        -7.7990   -3.1329   -0.2256 H         1 <0>         0.0000
     64 H25        -8.7839   -2.2407   -1.3988 H         1 <0>         0.0000
     65 H26        -6.8015   -4.4659   -2.0622 H         1 <0>         0.0000
     66 H27         4.8427    5.7945    1.8881 H         1 <0>         0.0000
     67 H28        -5.8550   -2.1743   -1.2608 H         1 <0>         0.0000
     68 H29        -7.1837   -2.5434   -3.4995 H         1 <0>         0.0000
@<TRIPOS>BOND
     1    1    3 ar
     2    1    2 ar
     3    1   40 1
     4    2    8 ar
     5    2   41 1
     6    3    9 ar
     7    3   42 1
     8    4   10 ar
     9    4   15 ar
    10    4   43 1
    11    5   11 ar
    12    5   18 ar
    13    5   44 1
    14    6   12 ar
    15    6   17 ar
    16    6   45 1
    17    7   13 ar
    18    7   17 ar
    19    7   46 1
    20    8   19 ar
    21    8   47 1
    22    9   19 ar
    23    9   48 1
    24   10   21 ar
    25   10   49 1
    26   11   22 ar
    27   11   50 1
    28   12   23 ar
    29   12   51 1
    30   13   23 ar
    31   13   52 1
    32   14   18 ar
    33   14   20 ar
    34   14   53 1
    35   15   31 ar
    36   15   54 1
    37   16   21 ar
    38   16   31 ar
    39   16   55 1
    40   17   18 1
    41   19   24 1
    42   20   22 ar
    43   20   25 1
    44   21   30 1
    45   22   37 1
    46   23   39 1
    47   24   32 am
    48   24   34 2
    49   25   26 1
    50   25   56 1
    51   25   57 1
    52   26   27 1
    53   26   58 1
    54   26   59 1
    55   27   28 1
    56   27   37 1
    57   27   60 1
    58   28   33 1
    59   28   61 1
    60   28   62 1
    61   29   30 1
    62   29   33 1
    63   29   63 1
    64   29   64 1
    65   30   38 1
    66   30   65 1
    67   32   39 1
    68   32   66 1
    69   33   67 1
    70   35   39 2
    71   36   39 2
    72   38   68 1
