@<TRIPOS>MOLECULE
*****
   51    54     0     0     0
SMALL
NO_CHARGES

@<TRIPOS>ATOM
      1 C1          2.2835    5.1590   -0.9593 C.ar      1 <0>         0.0000
      2 C2         -0.0687   -1.4968   -1.9514 C.ar      1 <0>         0.0000
      3 C3          2.4466    5.1395   -2.3315 C.ar      1 <0>         0.0000
      4 C4          1.3209    4.3436   -0.3213 C.ar      1 <0>         0.0000
      5 C5          1.1294   -1.3813   -2.6538 C.ar      1 <0>         0.0000
      6 C6          1.7234    0.5012   -1.2570 C.ar      1 <0>         0.0000
      7 C7          0.0330    2.5027   -3.3359 C.ar      1 <0>         0.0000
      8 C8          0.7009    3.4150   -2.4745 C.ar      1 <0>         0.0000
      9 C9         -0.4150   -0.6171   -0.9129 C.ar      1 <0>         0.0000
     10 C10         0.4993    0.3978   -0.5808 C.ar      1 <0>         0.0000
     11 C11         1.6544    4.2646   -3.1141 C.ar      1 <0>         0.0000
     12 C12         0.5256    3.4787   -1.0564 C.ar      1 <0>         0.0000
     13 C13         2.0266   -0.3754   -2.2917 C.ar      1 <0>         0.0000
     14 C14         1.1305    3.3521   -5.1587 C.ar      1 <0>         0.0000
     15 C15        -2.0588    0.3638    0.7810 C.3       1 <0>         0.0000
     16 C16         0.1366    1.5195    0.3714 C.3       1 <0>         0.0000
     17 C17        -1.7200   -0.8357   -0.1394 C.3       1 <0>         0.0000
     18 C18        -0.8490    1.0328    1.4411 C.3       1 <0>         0.0000
     19 C19         1.3143    3.2893   -6.6494 C.3       1 <0>         0.0000
     20 C20        -1.5775   -2.1314    0.6959 C.3       1 <0>         0.0000
     21 C21        -2.9155   -1.0011   -1.1037 C.3       1 <0>         0.0000
     22 C22        -1.3225    2.1956    2.3505 C.3       1 <0>         0.0000
     23 N1          0.2292    2.4573   -4.6358 N.ar      1 <0>         0.0000
     24 N2          1.8382    4.2248   -4.4689 N.ar      1 <0>         0.0000
     25 N3         -0.4239    2.6668   -0.3827 N.pl3     1 <0>         0.0000
     26 O1         -0.0879    0.1473    2.2562 O.3       1 <0>         0.0000
     27 F1         -1.8666    1.6722    3.4925 F         1 <0>         0.0000
     28 F2         -0.3032    2.9928    2.7346 F         1 <0>         0.0000
     29 F3         -2.2741    2.9732    1.8001 F         1 <0>         0.0000
     30 Cl1         3.5378   -0.1960   -3.1638 Cl        1 <0>         0.0000
     31 H1          2.8892    5.8274   -0.3528 H         1 <0>         0.0000
     32 H2         -0.7471   -2.2971   -2.2308 H         1 <0>         0.0000
     33 H3          3.1713    5.7707   -2.8357 H         1 <0>         0.0000
     34 H4          1.1809    4.4019    0.7543 H         1 <0>         0.0000
     35 H5          1.3655   -2.0607   -3.4665 H         1 <0>         0.0000
     36 H6          2.4251    1.2858   -0.9921 H         1 <0>         0.0000
     37 H7         -0.6646    1.7663   -2.9370 H         1 <0>         0.0000
     38 H8         -2.5856    1.1288    0.2026 H         1 <0>         0.0000
     39 H9         -2.7668    0.0346    1.5499 H         1 <0>         0.0000
     40 H10         1.0285    1.8740    0.8880 H         1 <0>         0.0000
     41 H11         0.3556    3.4488   -7.1539 H         1 <0>         0.0000
     42 H12         2.0332    4.0404   -6.9782 H         1 <0>         0.0000
     43 H13         1.6653    2.2932   -6.9391 H         1 <0>         0.0000
     44 H14        -2.4845   -2.3073    1.2865 H         1 <0>         0.0000
     45 H15        -0.7203   -2.0733    1.3690 H         1 <0>         0.0000
     46 H16        -1.4326   -2.9967    0.0424 H         1 <0>         0.0000
     47 H17        -3.8498   -1.0737   -0.5359 H         1 <0>         0.0000
     48 H18        -2.8312   -1.9072   -1.7091 H         1 <0>         0.0000
     49 H19        -2.9974   -0.1478   -1.7855 H         1 <0>         0.0000
     50 H20        -1.1304    2.3309   -1.0289 H         1 <0>         0.0000
     51 H21        -0.6660   -0.2024    2.9543 H         1 <0>         0.0000
@<TRIPOS>BOND
     1    1    3 ar
     2    1    4 ar
     3    1   31 1
     4    2    5 ar
     5    2    9 ar
     6    2   32 1
     7    3   11 ar
     8    3   33 1
     9    4   12 ar
    10    4   34 1
    11    5   13 ar
    12    5   35 1
    13    6   10 ar
    14    6   13 ar
    15    6   36 1
    16    7    8 ar
    17    7   23 ar
    18    7   37 1
    19    8   11 ar
    20    8   12 ar
    21    9   10 ar
    22    9   17 1
    23   10   16 1
    24   11   24 ar
    25   12   25 1
    26   13   30 1
    27   14   19 1
    28   14   23 ar
    29   14   24 ar
    30   15   17 1
    31   15   18 1
    32   15   38 1
    33   15   39 1
    34   16   18 1
    35   16   25 1
    36   16   40 1
    37   17   20 1
    38   17   21 1
    39   18   22 1
    40   18   26 1
    41   19   41 1
    42   19   42 1
    43   19   43 1
    44   20   44 1
    45   20   45 1
    46   20   46 1
    47   21   47 1
    48   21   48 1
    49   21   49 1
    50   22   27 1
    51   22   28 1
    52   22   29 1
    53   25   50 1
    54   26   51 1
