@<TRIPOS>MOLECULE
*****
   70    74     0     0     0
SMALL
NO_CHARGES

@<TRIPOS>ATOM
      1 C1          2.9441   -7.2450   -4.6675 C.ar      1 <0>         0.0000
      2 C2          4.6499   -6.4232   -6.1660 C.ar      1 <0>         0.0000
      3 C3         -3.6737  -16.0765   -5.0578 C.ar      1 <0>         0.0000
      4 C4         -2.7014  -16.0432   -6.0428 C.ar      1 <0>         0.0000
      5 C5          3.5153   -6.5328   -3.6214 C.ar      1 <0>         0.0000
      6 C6          5.2409   -5.7124   -5.1249 C.ar      1 <0>         0.0000
      7 C7         -2.5012  -14.4023   -3.7710 C.ar      1 <0>         0.0000
      8 C8         -1.5066  -14.3586   -4.7623 C.ar      1 <0>         0.0000
      9 C9          3.5024   -7.2073   -5.9625 C.ar      1 <0>         0.0000
     10 C10        -3.5908  -15.2573   -3.9035 C.ar      1 <0>         0.0000
     11 C11        -1.5979  -15.1765   -5.9023 C.ar      1 <0>         0.0000
     12 C12         4.6737   -5.7642   -3.8384 C.ar      1 <0>         0.0000
     13 C13        -0.3562  -13.4678   -4.6525 C.2       1 <0>         0.0000
     14 C14         2.9445   -7.9611   -7.1260 C.2       1 <0>         0.0000
     15 C15         3.8638  -10.7414   -6.5617 C.2       1 <0>         0.0000
     16 C16         8.6282   -3.2885    0.6992 C.3       1 <0>         0.0000
     17 C17         8.3075   -2.1833   -0.3166 C.3       1 <0>         0.0000
     18 C18         7.4583   -4.2722    0.8388 C.3       1 <0>         0.0000
     19 C19         1.3597   -9.7462   -8.1117 C.3       1 <0>         0.0000
     20 C20         7.8955   -2.7680   -1.6754 C.3       1 <0>         0.0000
     21 C21         7.0485   -4.8558   -0.5203 C.3       1 <0>         0.0000
     22 C22         0.9177  -11.1673   -7.6734 C.3       1 <0>         0.0000
     23 C23         1.9461   -9.0822   -6.8522 C.3       1 <0>         0.0000
     24 C24         2.5089  -10.2831   -6.0220 C.3       1 <0>         0.0000
     25 C25         6.7198   -3.7503   -1.5368 C.3       1 <0>         0.0000
     26 C26         1.3785  -11.3163   -6.2035 C.3       1 <0>         0.0000
     27 C27        -4.6717  -15.3264   -2.8524 C.3       1 <0>         0.0000
     28 C28         1.7277  -12.7427   -5.7712 C.3       1 <0>         0.0000
     29 C29         6.3543   -4.3218   -2.8997 C.3       1 <0>         0.0000
     30 N1         -0.6358  -15.1715   -6.9100 N.2       1 <0>         0.0000
     31 N2          0.3771  -14.4100   -6.8178 N.2       1 <0>         0.0000
     32 N3          0.5276  -13.5893   -5.7312 N.am      1 <0>         0.0000
     33 O1         -0.1391  -12.6759   -3.7337 O.2       1 <0>         0.0000
     34 O2          3.3134   -7.7102   -8.2675 O.2       1 <0>         0.0000
     35 O3          4.0199  -11.6271   -7.3721 O.2       1 <0>         0.0000
     36 O4          4.9483  -10.0771   -6.0715 O.3       1 <0>         0.0000
     37 O5          5.1646   -5.1159   -2.7537 O.3       1 <0>         0.0000
     38 H1          2.0440   -7.8183   -4.4693 H         1 <0>         0.0000
     39 H2          5.0792   -6.3938   -7.1628 H         1 <0>         0.0000
     40 H3         -4.5235  -16.7468   -5.1679 H         1 <0>         0.0000
     41 H4         -2.7609  -16.6700   -6.9275 H         1 <0>         0.0000
     42 H5          3.0840   -6.5516   -2.6250 H         1 <0>         0.0000
     43 H6          6.1330   -5.1284   -5.3181 H         1 <0>         0.0000
     44 H7         -2.3939  -13.7550   -2.9055 H         1 <0>         0.0000
     45 H8          8.8727   -2.8473    1.6724 H         1 <0>         0.0000
     46 H9          9.5223   -3.8350    0.3683 H         1 <0>         0.0000
     47 H10         7.4882   -1.5623    0.0706 H         1 <0>         0.0000
     48 H11         9.1706   -1.5197   -0.4434 H         1 <0>         0.0000
     49 H12         7.7227   -5.0824    1.5280 H         1 <0>         0.0000
     50 H13         6.5983   -3.7521    1.2829 H         1 <0>         0.0000
     51 H14         2.1312   -9.7963   -8.8815 H         1 <0>         0.0000
     52 H15         0.5400   -9.1493   -8.5195 H         1 <0>         0.0000
     53 H16         7.6319   -1.9591   -2.3683 H         1 <0>         0.0000
     54 H17         8.7545   -3.2937   -2.1167 H         1 <0>         0.0000
     55 H18         7.8737   -5.4657   -0.9165 H         1 <0>         0.0000
     56 H19         6.1888   -5.5236   -0.4074 H         1 <0>         0.0000
     57 H20        -0.1634  -11.3087   -7.7563 H         1 <0>         0.0000
     58 H21         1.3936  -11.9259   -8.2978 H         1 <0>         0.0000
     59 H22         1.1307   -8.6644   -6.2488 H         1 <0>         0.0000
     60 H23         2.6278  -10.0193   -4.9665 H         1 <0>         0.0000
     61 H24         5.8466   -3.1921   -1.1708 H         1 <0>         0.0000
     62 H25         0.5757  -10.9729   -5.5426 H         1 <0>         0.0000
     63 H26        -4.7566  -16.3394   -2.4436 H         1 <0>         0.0000
     64 H27        -4.4688  -14.6433   -2.0241 H         1 <0>         0.0000
     65 H28        -5.6479  -15.0652   -3.2762 H         1 <0>         0.0000
     66 H29         2.1576  -12.7437   -4.7665 H         1 <0>         0.0000
     67 H30         2.4214  -13.2080   -6.4680 H         1 <0>         0.0000
     68 H31         7.1688   -4.9514   -3.2825 H         1 <0>         0.0000
     69 H32         6.1662   -3.5171   -3.6224 H         1 <0>         0.0000
     70 H33         4.6685   -9.3441   -5.4932 H         1 <0>         0.0000
@<TRIPOS>BOND
     1    1    5 ar
     2    1    9 ar
     3    1   38 1
     4    2    6 ar
     5    2    9 ar
     6    2   39 1
     7    3    4 ar
     8    3   10 ar
     9    3   40 1
    10    4   11 ar
    11    4   41 1
    12    5   12 ar
    13    5   42 1
    14    6   12 ar
    15    6   43 1
    16    7    8 ar
    17    7   10 ar
    18    7   44 1
    19    8   11 ar
    20    8   13 1
    21    9   14 1
    22   10   27 1
    23   11   30 1
    24   12   37 1
    25   13   32 am
    26   13   33 2
    27   14   23 1
    28   14   34 2
    29   15   24 1
    30   15   35 2
    31   15   36 1
    32   16   18 1
    33   16   17 1
    34   16   45 1
    35   16   46 1
    36   17   20 1
    37   17   47 1
    38   17   48 1
    39   18   21 1
    40   18   49 1
    41   18   50 1
    42   19   22 1
    43   19   23 1
    44   19   51 1
    45   19   52 1
    46   20   25 1
    47   20   53 1
    48   20   54 1
    49   21   25 1
    50   21   55 1
    51   21   56 1
    52   22   26 1
    53   22   57 1
    54   22   58 1
    55   23   24 1
    56   23   59 1
    57   24   26 1
    58   24   60 1
    59   25   29 1
    60   25   61 1
    61   26   28 1
    62   26   62 1
    63   27   63 1
    64   27   64 1
    65   27   65 1
    66   28   32 1
    67   28   66 1
    68   28   67 1
    69   29   37 1
    70   29   68 1
    71   29   69 1
    72   30   31 2
    73   31   32 1
    74   36   70 1
