@<TRIPOS>MOLECULE
*****
   48    50     0     0     0
SMALL
NO_CHARGES

@<TRIPOS>ATOM
      1 C1         -3.7121    2.6073   -1.0880 C.ar      1 <0>         0.0000
      2 C2          3.0881    1.8296    0.1019 C.ar      1 <0>         0.0000
      3 C3         -2.5115    2.1671   -1.6460 C.ar      1 <0>         0.0000
      4 C4          1.9558    1.8459   -0.7158 C.ar      1 <0>         0.0000
      5 C5         -3.2964    1.2375    0.8328 C.ar      1 <0>         0.0000
      6 C6          1.3367   -0.3500    0.1393 C.ar      1 <0>         0.0000
      7 C7         -2.0936    0.7687    0.2892 C.ar      1 <0>         0.0000
      8 C8         -4.1249    2.1510    0.1691 C.ar      1 <0>         0.0000
      9 C9          3.3621    0.7513    0.9413 C.ar      1 <0>         0.0000
     10 C10         2.4703   -0.3462    0.9747 C.ar      1 <0>         0.0000
     11 C11         1.0864    0.7580   -0.6966 C.ar      1 <0>         0.0000
     12 C12        -1.6927    1.2491   -0.9744 C.ar      1 <0>         0.0000
     13 C13         0.4119   -1.5292   -0.0016 C.2       1 <0>         0.0000
     14 C14         6.4068   -2.0560    1.1600 C.2       1 <0>         0.0000
     15 C15         5.8761   -1.0532    0.4470 C.2       1 <0>         0.0000
     16 C16        -1.2767   -0.1824    1.1329 C.3       1 <0>         0.0000
     17 C17        -5.4355    2.5955    0.7747 C.3       1 <0>         0.0000
     18 C18         5.2739   -1.2764   -0.9189 C.3       1 <0>         0.0000
     19 C19         1.8902   -2.2899    2.3462 C.3       1 <0>         0.0000
     20 C20         5.8854    0.3647    0.9846 C.3       1 <0>         0.0000
     21 C21         4.6272    0.7597    1.7826 C.3       1 <0>         0.0000
     22 O1          0.7554   -2.5847   -0.4850 O.2       1 <0>         0.0000
     23 O2         -0.8678   -1.3775    0.4348 O.3       1 <0>         0.0000
     24 O3          4.8996    2.0795    2.2862 O.3       1 <0>         0.0000
     25 O4          2.8311   -1.3408    1.8341 O.3       1 <0>         0.0000
     26 S1         -0.2556    0.6869   -1.8898 S.3       1 <0>         0.0000
     27 H1         -4.3255    3.3196   -1.6353 H         1 <0>         0.0000
     28 H2          3.7794    2.6673    0.0969 H         1 <0>         0.0000
     29 H3         -2.1957    2.5450   -2.6144 H         1 <0>         0.0000
     30 H4          1.7556    2.6822   -1.3777 H         1 <0>         0.0000
     31 H5         -3.6039    0.8655    1.8090 H         1 <0>         0.0000
     32 H6          6.8607   -1.8834    2.1341 H         1 <0>         0.0000
     33 H7          6.4000   -3.0809    0.7962 H         1 <0>         0.0000
     34 H8         -0.4027    0.3240    1.5499 H         1 <0>         0.0000
     35 H9         -1.8866   -0.5404    1.9647 H         1 <0>         0.0000
     36 H10        -6.2460    1.9111    0.4963 H         1 <0>         0.0000
     37 H11        -5.3860    2.6175    1.8674 H         1 <0>         0.0000
     38 H12        -5.7161    3.5942    0.4277 H         1 <0>         0.0000
     39 H13         4.2298   -0.9520   -0.9643 H         1 <0>         0.0000
     40 H14         5.3128   -2.3304   -1.2060 H         1 <0>         0.0000
     41 H15         5.8165   -0.6932   -1.6741 H         1 <0>         0.0000
     42 H16         2.3364   -2.6687    3.2672 H         1 <0>         0.0000
     43 H17         1.7320   -3.1094    1.6438 H         1 <0>         0.0000
     44 H18         0.9327   -1.8124    2.5829 H         1 <0>         0.0000
     45 H19         6.0025    1.0859    0.1669 H         1 <0>         0.0000
     46 H20         6.7324    0.5024    1.6632 H         1 <0>         0.0000
     47 H21         4.5115    0.0560    2.6124 H         1 <0>         0.0000
     48 H22         4.1357    2.3558    2.8176 H         1 <0>         0.0000
@<TRIPOS>BOND
     1    1    3 ar
     2    1    8 ar
     3    1   27 1
     4    2    4 ar
     5    2    9 ar
     6    2   28 1
     7    3   12 ar
     8    3   29 1
     9    4   11 ar
    10    4   30 1
    11    5    7 ar
    12    5    8 ar
    13    5   31 1
    14    6   10 ar
    15    6   11 ar
    16    6   13 1
    17    7   12 ar
    18    7   16 1
    19    8   17 1
    20    9   10 ar
    21    9   21 1
    22   10   25 1
    23   11   26 1
    24   12   26 1
    25   13   22 2
    26   13   23 1
    27   14   15 2
    28   14   32 1
    29   14   33 1
    30   15   18 1
    31   15   20 1
    32   16   23 1
    33   16   34 1
    34   16   35 1
    35   17   36 1
    36   17   37 1
    37   17   38 1
    38   18   39 1
    39   18   40 1
    40   18   41 1
    41   19   25 1
    42   19   42 1
    43   19   43 1
    44   19   44 1
    45   20   21 1
    46   20   45 1
    47   20   46 1
    48   21   24 1
    49   21   47 1
    50   24   48 1
