@<TRIPOS>MOLECULE
*****
   37    38     0     0     0
SMALL
NO_CHARGES

@<TRIPOS>ATOM
      1 C1         -1.5040    0.0629   -1.3722 C.2       1 <0>         0.0000
      2 C2          0.3898    0.9231   -1.6840 C.2       1 <0>         0.0000
      3 C3          1.3680    2.8256    2.8851 C.3       1 <0>         0.0000
      4 C4          1.0016    1.9064    1.7215 C.3       1 <0>         0.0000
      5 C5          0.7007    1.5070    3.1406 C.3       1 <0>         0.0000
      6 C6          3.6484   -3.0357   -1.3181 C.3       1 <0>         0.0000
      7 C7          1.5034   -2.1692   -2.2381 C.3       1 <0>         0.0000
      8 C8          1.5443   -3.1950    0.0574 C.3       1 <0>         0.0000
      9 C9          2.0708    1.2019    0.9157 C.3       1 <0>         0.0000
     10 C10         1.5580   -0.1239    0.3261 C.3       1 <0>         0.0000
     11 C11         2.7027   -0.9436   -0.3260 C.3       1 <0>         0.0000
     12 C12         2.3293   -2.3265   -0.9442 C.3       1 <0>         0.0000
     13 N1         -0.8266    0.8959   -2.2161 N.2       1 <0>         0.0000
     14 N2         -0.7823   -0.4197   -0.3647 N.2       1 <0>         0.0000
     15 N3          0.4409    0.1416   -0.5799 N.pl3     1 <0>         0.0000
     16 O1          3.7381   -1.0684    0.6584 O.3       1 <0>         0.0000
     17 Cl1         1.6515    0.2064    3.9116 Cl        1 <0>         0.0000
     18 Cl2        -0.9968    1.5046    3.6671 Cl        1 <0>         0.0000
     19 H1         -2.5487   -0.1913   -1.4955 H         1 <0>         0.0000
     20 H2          1.2388    1.4749   -2.0649 H         1 <0>         0.0000
     21 H3          2.4170    2.9018    3.1556 H         1 <0>         0.0000
     22 H4          0.7783    3.7218    3.0484 H         1 <0>         0.0000
     23 H5          0.1157    2.1939    1.1618 H         1 <0>         0.0000
     24 H6          4.2744   -3.2288   -0.4444 H         1 <0>         0.0000
     25 H7          4.2358   -2.4299   -2.0177 H         1 <0>         0.0000
     26 H8          3.4298   -3.9921   -1.8045 H         1 <0>         0.0000
     27 H9          0.4782   -1.8480   -2.0546 H         1 <0>         0.0000
     28 H10         1.9717   -1.4581   -2.9280 H         1 <0>         0.0000
     29 H11         1.4511   -3.1346   -2.7528 H         1 <0>         0.0000
     30 H12         0.5612   -2.7726    0.2833 H         1 <0>         0.0000
     31 H13         2.0871   -3.3340    1.0016 H         1 <0>         0.0000
     32 H14         1.3862   -4.1944   -0.3611 H         1 <0>         0.0000
     33 H15         2.9448    0.9875    1.5299 H         1 <0>         0.0000
     34 H16         2.4078    1.8653    0.1101 H         1 <0>         0.0000
     35 H17         1.1225   -0.7148    1.1338 H         1 <0>         0.0000
     36 H18         3.1600   -0.3380   -1.1176 H         1 <0>         0.0000
     37 H19         3.4060   -1.6333    1.3754 H         1 <0>         0.0000
@<TRIPOS>BOND
     1    1   13 1
     2    1   14 2
     3    1   19 1
     4    2   13 2
     5    2   15 1
     6    2   20 1
     7    3    4 1
     8    3    5 1
     9    3   21 1
    10    3   22 1
    11    4    5 1
    12    4    9 1
    13    4   23 1
    14    5   17 1
    15    5   18 1
    16    6   12 1
    17    6   24 1
    18    6   25 1
    19    6   26 1
    20    7   12 1
    21    7   27 1
    22    7   28 1
    23    7   29 1
    24    8   12 1
    25    8   30 1
    26    8   31 1
    27    8   32 1
    28    9   10 1
    29    9   33 1
    30    9   34 1
    31   10   11 1
    32   10   15 1
    33   10   35 1
    34   11   12 1
    35   11   16 1
    36   11   36 1
    37   14   15 1
    38   16   37 1
