@<TRIPOS>MOLECULE
*****
   52    54     0     0     0
SMALL
NO_CHARGES

@<TRIPOS>ATOM
      1 C1          3.2154   -1.8282    0.6657 C.ar      1 <0>         0.0000
      2 C2          2.0466   -1.8577   -0.1050 C.ar      1 <0>         0.0000
      3 C3         -3.3202    0.4339    0.6213 C.ar      1 <0>         0.0000
      4 C4         -3.3406   -1.9628    0.4565 C.ar      1 <0>         0.0000
      5 C5          1.8667    0.5634    0.1248 C.ar      1 <0>         0.0000
      6 C6         -2.1040    0.4922   -0.0611 C.ar      1 <0>         0.0000
      7 C7          3.7145   -0.6326    1.1694 C.ar      1 <0>         0.0000
      8 C8         -3.9631   -0.7865    0.8798 C.ar      1 <0>         0.0000
      9 C9         -2.1182   -1.9265   -0.2248 C.ar      1 <0>         0.0000
     10 C10         3.0335    0.5792    0.8995 C.ar      1 <0>         0.0000
     11 C11         1.3746   -0.6702   -0.3646 C.ar      1 <0>         0.0000
     12 C12        -1.4930   -0.7011   -0.5063 C.ar      1 <0>         0.0000
     13 C13         1.0051    1.7342   -0.2611 C.2       1 <0>         0.0000
     14 C14         6.2560   -1.4388    5.0822 C.2       1 <0>         0.0000
     15 C15         5.7791   -0.3703    4.4222 C.2       1 <0>         0.0000
     16 C16        -1.4026    1.8192   -0.2321 C.3       1 <0>         0.0000
     17 C17        -5.2930   -0.8235    1.5951 C.3       1 <0>         0.0000
     18 C18         6.4514    0.9793    4.4814 C.3       1 <0>         0.0000
     19 C19        -1.9070   -3.6292   -1.8503 C.3       1 <0>         0.0000
     20 C20         2.9842    2.9627    1.4251 C.3       1 <0>         0.0000
     21 C21         4.5591   -0.4714    3.5370 C.3       1 <0>         0.0000
     22 C22         4.9506   -0.6084    2.0414 C.3       1 <0>         0.0000
     23 O1          1.2260    2.5404   -1.1366 O.2       1 <0>         0.0000
     24 O2         -0.1418    1.6973    0.4782 O.3       1 <0>         0.0000
     25 O3          5.6856   -1.8120    1.8238 O.3       1 <0>         0.0000
     26 O4         -1.5195   -3.1194   -0.5677 O.3       1 <0>         0.0000
     27 O5          3.6124    1.6800    1.4737 O.3       1 <0>         0.0000
     28 S1         -0.0116   -0.6805   -1.5266 S.3       1 <0>         0.0000
     29 H1          3.7614   -2.7414    0.8749 H         1 <0>         0.0000
     30 H2          1.6613   -2.7899   -0.5042 H         1 <0>         0.0000
     31 H3         -3.7708    1.3585    0.9768 H         1 <0>         0.0000
     32 H4         -3.7826   -2.9338    0.6670 H         1 <0>         0.0000
     33 H5          5.7449   -2.3988    5.0522 H         1 <0>         0.0000
     34 H6          7.1518   -1.3772    5.6964 H         1 <0>         0.0000
     35 H7         -1.1984    2.0670   -1.2760 H         1 <0>         0.0000
     36 H8         -1.9727    2.6296    0.2259 H         1 <0>         0.0000
     37 H9         -6.1192   -0.6889    0.8865 H         1 <0>         0.0000
     38 H10        -5.4472   -1.7793    2.1035 H         1 <0>         0.0000
     39 H11        -5.3678   -0.0253    2.3397 H         1 <0>         0.0000
     40 H12         6.6976    1.3460    3.4779 H         1 <0>         0.0000
     41 H13         7.3702    0.9522    5.0732 H         1 <0>         0.0000
     42 H14         5.7754    1.7199    4.9264 H         1 <0>         0.0000
     43 H15        -1.3879   -4.5818   -1.9720 H         1 <0>         0.0000
     44 H16        -1.6047   -2.9429   -2.6493 H         1 <0>         0.0000
     45 H17        -2.9913   -3.7923   -1.8943 H         1 <0>         0.0000
     46 H18         3.5802    3.5990    2.0813 H         1 <0>         0.0000
     47 H19         1.9584    2.9151    1.8067 H         1 <0>         0.0000
     48 H20         2.9865    3.3703    0.4118 H         1 <0>         0.0000
     49 H21         3.9336    0.4192    3.6483 H         1 <0>         0.0000
     50 H22         3.9591   -1.3474    3.8020 H         1 <0>         0.0000
     51 H23         5.5621    0.2567    1.7555 H         1 <0>         0.0000
     52 H24         6.3424   -1.8749    2.5392 H         1 <0>         0.0000
@<TRIPOS>BOND
     1    1    2 ar
     2    1    7 ar
     3    1   29 1
     4    2   11 ar
     5    2   30 1
     6    3    6 ar
     7    3    8 ar
     8    3   31 1
     9    4    8 ar
    10    4    9 ar
    11    4   32 1
    12    5   10 ar
    13    5   11 ar
    14    5   13 1
    15    6   12 ar
    16    6   16 1
    17    7   10 ar
    18    7   22 1
    19    8   17 1
    20    9   12 ar
    21    9   26 1
    22   10   27 1
    23   11   28 1
    24   12   28 1
    25   13   23 2
    26   13   24 1
    27   14   15 2
    28   14   33 1
    29   14   34 1
    30   15   18 1
    31   15   21 1
    32   16   24 1
    33   16   35 1
    34   16   36 1
    35   17   37 1
    36   17   38 1
    37   17   39 1
    38   18   40 1
    39   18   41 1
    40   18   42 1
    41   19   26 1
    42   19   43 1
    43   19   44 1
    44   19   45 1
    45   20   27 1
    46   20   46 1
    47   20   47 1
    48   20   48 1
    49   21   22 1
    50   21   49 1
    51   21   50 1
    52   22   25 1
    53   22   51 1
    54   25   52 1
