@<TRIPOS>MOLECULE
*****
   36    38     0     0     0
SMALL
NO_CHARGES

@<TRIPOS>ATOM
      1 C1         -4.8205   -0.2395    1.3646 C.ar      1 <0>         0.0000
      2 C2         -5.3459   -1.1628    0.4615 C.ar      1 <0>         0.0000
      3 C3         -3.6778    0.4948    1.0369 C.ar      1 <0>         0.0000
      4 C4         -3.5777   -0.6005   -1.1052 C.ar      1 <0>         0.0000
      5 C5         -4.7223   -1.3430   -0.7809 C.ar      1 <0>         0.0000
      6 C6         -3.0377    0.3186   -0.1994 C.ar      1 <0>         0.0000
      7 C7          1.2349   -1.0440   -0.8346 C.2       1 <0>         0.0000
      8 C8         -0.3988    0.7180    1.5160 C.2       1 <0>         0.0000
      9 C9          1.7927   -2.0495   -1.5142 C.2       1 <0>         0.0000
     10 C10        -5.3094   -2.3267   -1.7258 C.2       1 <0>         0.0000
     11 C11         1.9169    0.2520   -0.4500 C.3       1 <0>         0.0000
     12 C12        -0.2174   -0.9775   -0.3858 C.3       1 <0>         0.0000
     13 C13         0.9035    2.3948    0.5867 C.3       1 <0>         0.0000
     14 C14         0.7807    1.2946   -0.4681 C.3       1 <0>         0.0000
     15 C15        -0.4609    0.4985   -0.0010 C.3       1 <0>         0.0000
     16 C16        -1.7866    1.0903   -0.5566 C.3       1 <0>         0.0000
     17 O1         -0.9117    0.0551    2.3859 O.2       1 <0>         0.0000
     18 O2         -6.3042   -2.9979   -1.5129 O.2       1 <0>         0.0000
     19 O3          0.3416    1.8321    1.7988 O.3       1 <0>         0.0000
     20 O4         -4.6182   -2.4262   -2.8987 O.3       1 <0>         0.0000
     21 H1         -5.2977   -0.0911    2.3293 H         1 <0>         0.0000
     22 H2         -6.2317   -1.7445    0.6960 H         1 <0>         0.0000
     23 H3         -3.2759    1.2032    1.7554 H         1 <0>         0.0000
     24 H4         -3.1160   -0.7415   -2.0775 H         1 <0>         0.0000
     25 H5          1.2301   -2.9451   -1.7689 H         1 <0>         0.0000
     26 H6          2.8329   -2.0151   -1.8299 H         1 <0>         0.0000
     27 H7          2.3165    0.1681    0.5705 H         1 <0>         0.0000
     28 H8          2.7511    0.5119   -1.1070 H         1 <0>         0.0000
     29 H9         -0.8860   -1.2931   -1.1907 H         1 <0>         0.0000
     30 H10        -0.4226   -1.6320    0.4668 H         1 <0>         0.0000
     31 H11         1.9346    2.6793    0.8094 H         1 <0>         0.0000
     32 H12         0.3331    3.2930    0.3292 H         1 <0>         0.0000
     33 H13         0.6506    1.7085   -1.4724 H         1 <0>         0.0000
     34 H14        -1.6824    1.1204   -1.6465 H         1 <0>         0.0000
     35 H15        -1.8840    2.1297   -0.2219 H         1 <0>         0.0000
     36 H16        -5.0946   -3.0937   -3.4280 H         1 <0>         0.0000
@<TRIPOS>BOND
     1    1    2 ar
     2    1    3 ar
     3    1   21 1
     4    2    5 ar
     5    2   22 1
     6    3    6 ar
     7    3   23 1
     8    4    5 ar
     9    4    6 ar
    10    4   24 1
    11    5   10 1
    12    6   16 1
    13    7    9 2
    14    7   11 1
    15    7   12 1
    16    8   15 1
    17    8   17 2
    18    8   19 1
    19    9   25 1
    20    9   26 1
    21   10   18 2
    22   10   20 1
    23   11   14 1
    24   11   27 1
    25   11   28 1
    26   12   15 1
    27   12   29 1
    28   12   30 1
    29   13   14 1
    30   13   19 1
    31   13   31 1
    32   13   32 1
    33   14   15 1
    34   14   33 1
    35   15   16 1
    36   16   34 1
    37   16   35 1
    38   20   36 1
