@<TRIPOS>MOLECULE
*****
   39    41     0     0     0
SMALL
NO_CHARGES

@<TRIPOS>ATOM
      1 C1          3.6650   -0.4373    5.3660 C.1       1 <0>         0.0000
      2 C2          0.0007   -3.6323    4.3134 C.ar      1 <0>         0.0000
      3 C3         -0.3390   -2.8291    5.4032 C.ar      1 <0>         0.0000
      4 C4          1.0698   -3.2629    3.4876 C.ar      1 <0>         0.0000
      5 C5          0.3813   -1.6582    5.6691 C.ar      1 <0>         0.0000
      6 C6          1.7877   -2.0985    3.7531 C.ar      1 <0>         0.0000
      7 C7          2.5987    4.1177    7.0250 C.2       1 <0>         0.0000
      8 C8          3.5801    2.6270    5.9060 C.2       1 <0>         0.0000
      9 C9          1.4460   -1.2840    4.8432 C.ar      1 <0>         0.0000
     10 C10         1.8670    3.4309    2.6174 C.3       1 <0>         0.0000
     11 C11         2.2810    2.4681    1.4643 C.3       1 <0>         0.0000
     12 C12         0.8556    2.6401    3.4798 C.3       1 <0>         0.0000
     13 C13         1.4655    1.1733    1.6895 C.3       1 <0>         0.0000
     14 C14         1.1724    1.1664    3.1913 C.3       1 <0>         0.0000
     15 C15         1.7420    0.8443    6.2226 C.3       1 <0>         0.0000
     16 C16         2.2767   -0.0046    5.0495 C.3       1 <0>         0.0000
     17 N1          4.7383   -0.7895    5.6372 N.1       1 <0>         0.0000
     18 N2          3.7333    3.8835    6.3033 N.2       1 <0>         0.0000
     19 N3          1.7585    3.0919    7.0956 N.2       1 <0>         0.0000
     20 N4          2.4049    2.1312    6.3697 N.pl3     1 <0>         0.0000
     21 O1          2.4024    0.7409    3.8437 O.3       1 <0>         0.0000
     22 H1         -0.5595   -4.5407    4.1091 H         1 <0>         0.0000
     23 H2         -1.1647   -3.1092    6.0516 H         1 <0>         0.0000
     24 H3          1.3445   -3.8843    2.6396 H         1 <0>         0.0000
     25 H4          0.0943   -1.0567    6.5250 H         1 <0>         0.0000
     26 H5          2.6153   -1.8087    3.1121 H         1 <0>         0.0000
     27 H6          2.3819    5.0622    7.5072 H         1 <0>         0.0000
     28 H7          4.2687    2.0660    5.2926 H         1 <0>         0.0000
     29 H8          2.7370    3.7091    3.2170 H         1 <0>         0.0000
     30 H9          1.4273    4.3597    2.2436 H         1 <0>         0.0000
     31 H10         2.0893    2.8955    0.4761 H         1 <0>         0.0000
     32 H11         3.3509    2.2503    1.5188 H         1 <0>         0.0000
     33 H12         0.8932    2.9061    4.5364 H         1 <0>         0.0000
     34 H13        -0.1698    2.8255    3.1368 H         1 <0>         0.0000
     35 H14         0.5104    1.2177    1.1538 H         1 <0>         0.0000
     36 H15         1.9860    0.2661    1.3732 H         1 <0>         0.0000
     37 H16         0.3619    0.4838    3.4627 H         1 <0>         0.0000
     38 H17         0.6843    1.0554    6.0591 H         1 <0>         0.0000
     39 H18         1.8381    0.2822    7.1558 H         1 <0>         0.0000
@<TRIPOS>BOND
     1    1   16 1
     2    1   17 3
     3    2    4 ar
     4    2    3 ar
     5    2   22 1
     6    3    5 ar
     7    3   23 1
     8    4    6 ar
     9    4   24 1
    10    5    9 ar
    11    5   25 1
    12    6    9 ar
    13    6   26 1
    14    7   18 1
    15    7   19 2
    16    7   27 1
    17    8   18 2
    18    8   20 1
    19    8   28 1
    20    9   16 1
    21   10   11 1
    22   10   12 1
    23   10   29 1
    24   10   30 1
    25   11   13 1
    26   11   31 1
    27   11   32 1
    28   12   14 1
    29   12   33 1
    30   12   34 1
    31   13   14 1
    32   13   35 1
    33   13   36 1
    34   14   21 1
    35   14   37 1
    36   15   16 1
    37   15   20 1
    38   15   38 1
    39   15   39 1
    40   16   21 1
    41   19   20 1
