@<TRIPOS>MOLECULE
*****
   49    49     0     0     0
SMALL
NO_CHARGES

@<TRIPOS>ATOM
      1 C1          1.3174   -0.7307   -0.2772 C.2       1 <0>         0.0000
      2 C2         -0.9944   -2.1688   -2.2456 C.2       1 <0>         0.0000
      3 C3         -1.3308   -0.2368    1.6236 C.3       1 <0>         0.0000
      4 C4         -0.6627    0.9703   -0.2066 C.3       1 <0>         0.0000
      5 C5         -0.9881   -1.2978    0.5784 C.3       1 <0>         0.0000
      6 C6         -0.1935   -0.4971   -0.5058 C.3       1 <0>         0.0000
      7 C7          4.0644    0.3415    0.4000 C.3       1 <0>         0.0000
      8 C8          3.0429    0.4289    2.7043 C.3       1 <0>         0.0000
      9 C9          3.3941   -1.8078    1.5955 C.3       1 <0>         0.0000
     10 C10        -2.7144   -4.2116   -3.8530 C.3       1 <0>         0.0000
     11 C11        -1.7773   -2.8126   -5.7387 C.3       1 <0>         0.0000
     12 C12        -0.2007   -4.1125   -4.2657 C.3       1 <0>         0.0000
     13 C13         3.0930   -0.3245    1.3757 C.3       1 <0>         0.0000
     14 C14        -1.5349   -3.3701   -4.3369 C.3       1 <0>         0.0000
     15 N1         -0.5269   -0.8900   -1.8936 N.am      1 <0>         0.0000
     16 O1          2.0032   -1.3610   -1.0524 O.2       1 <0>         0.0000
     17 O2         -1.0284   -3.1244   -1.5043 O.2       1 <0>         0.0000
     18 O3          0.9495   -0.8362   -4.0664 O.2       1 <0>         0.0000
     19 O4          0.8384    1.1760   -2.5264 O.2       1 <0>         0.0000
     20 O5         -1.6386    0.9039    0.8398 O.3       1 <0>         0.0000
     21 O6         -1.0894    0.6126   -3.9316 O.3       1 <0>         0.0000
     22 O7          1.7026   -0.1689    0.8701 O.3       1 <0>         0.0000
     23 O8         -1.4591   -2.1239   -3.5154 O.3       1 <0>         0.0000
     24 F1         -0.2511   -2.3327    1.1374 F         1 <0>         0.0000
     25 S1          0.2214    0.0328   -3.1644 S.o2      1 <0>         0.0000
     26 H1         -2.2108   -0.4992    2.2138 H         1 <0>         0.0000
     27 H2         -0.4725   -0.0697    2.2865 H         1 <0>         0.0000
     28 H3          0.1885    1.5818    0.0989 H         1 <0>         0.0000
     29 H4         -1.1433    1.4274   -1.0682 H         1 <0>         0.0000
     30 H5         -1.8925   -1.7247    0.1498 H         1 <0>         0.0000
     31 H6          4.1045   -0.1909   -0.5505 H         1 <0>         0.0000
     32 H7          3.7675    1.3779    0.2124 H         1 <0>         0.0000
     33 H8          5.0665    0.3476    0.8410 H         1 <0>         0.0000
     34 H9          2.3160   -0.0294    3.3814 H         1 <0>         0.0000
     35 H10         2.7612    1.4741    2.5460 H         1 <0>         0.0000
     36 H11         4.0259    0.4036    3.1833 H         1 <0>         0.0000
     37 H12         2.6142   -2.2675    2.2095 H         1 <0>         0.0000
     38 H13         3.4614   -2.3478    0.6509 H         1 <0>         0.0000
     39 H14         4.3491   -1.9031    2.1223 H         1 <0>         0.0000
     40 H15        -2.5437   -4.5811   -2.8412 H         1 <0>         0.0000
     41 H16        -3.6374   -3.6236   -3.8664 H         1 <0>         0.0000
     42 H17        -2.8451   -5.0679   -4.5226 H         1 <0>         0.0000
     43 H18        -0.9395   -2.1829   -6.0519 H         1 <0>         0.0000
     44 H19        -2.7014   -2.2255   -5.7702 H         1 <0>         0.0000
     45 H20        -1.8763   -3.6348   -6.4528 H         1 <0>         0.0000
     46 H21         0.6245   -3.4343   -4.4972 H         1 <0>         0.0000
     47 H22        -0.0348   -4.5513   -3.2810 H         1 <0>         0.0000
     48 H23        -0.2073   -4.9194   -5.0051 H         1 <0>         0.0000
     49 H24        -1.5756   -0.1665   -4.2806 H         1 <0>         0.0000
@<TRIPOS>BOND
     1    1    6 1
     2    1   16 2
     3    1   22 1
     4    2   15 am
     5    2   17 2
     6    2   23 1
     7    3    5 1
     8    3   20 1
     9    3   26 1
    10    3   27 1
    11    4    6 1
    12    4   20 1
    13    4   28 1
    14    4   29 1
    15    5    6 1
    16    5   24 1
    17    5   30 1
    18    6   15 1
    19    7   13 1
    20    7   31 1
    21    7   32 1
    22    7   33 1
    23    8   13 1
    24    8   34 1
    25    8   35 1
    26    8   36 1
    27    9   13 1
    28    9   37 1
    29    9   38 1
    30    9   39 1
    31   10   14 1
    32   10   40 1
    33   10   41 1
    34   10   42 1
    35   11   14 1
    36   11   43 1
    37   11   44 1
    38   11   45 1
    39   12   14 1
    40   12   46 1
    41   12   47 1
    42   12   48 1
    43   13   22 1
    44   14   23 1
    45   15   25 1
    46   18   25 2
    47   19   25 2
    48   21   25 1
    49   21   49 1
