@<TRIPOS>MOLECULE
*****
   16    17     0     0     0
SMALL
NO_CHARGES

@<TRIPOS>ATOM
      1 C1         -0.8066   -1.2640    0.5736 C.2       1 <0>         0.0000
      2 C2          2.4001   -6.9276    2.9566 C.2       1 <0>         0.0000
      3 C3         -0.1659   -0.8466    1.7169 C.2       1 <0>         0.0000
      4 C4          3.4081   -6.0113    2.7663 C.2       1 <0>         0.0000
      5 C5         -0.1050   -3.2438    1.2644 C.2       1 <0>         0.0000
      6 C6          1.1956   -5.3561    1.9722 C.2       1 <0>         0.0000
      7 C7          0.0049   -4.7377    1.3048 C.2       1 <0>         0.0000
      8 N1         -0.7760   -2.6094    0.3357 N.2       1 <0>         0.0000
      9 N2          1.1677   -6.5552    2.4981 N.2       1 <0>         0.0000
     10 O1         -0.8577   -5.4366    0.8045 O.2       1 <0>         0.0000
     11 S1          0.5295   -2.1939    2.5315 S.3       1 <0>         0.0000
     12 S2          2.7901   -4.6027    1.9942 S.3       1 <0>         0.0000
     13 H1         -1.3185   -0.6094   -0.1238 H         1 <0>         0.0000
     14 H2          2.5239   -7.8953    3.4309 H         1 <0>         0.0000
     15 H3         -0.0751    0.1583    2.1089 H         1 <0>         0.0000
     16 H4          4.4540   -6.0963    3.0323 H         1 <0>         0.0000
@<TRIPOS>BOND
     1    1    3 2
     2    1    8 1
     3    1   13 1
     4    2    4 2
     5    2    9 1
     6    2   14 1
     7    3   11 1
     8    3   15 1
     9    4   12 1
    10    4   16 1
    11    5    7 1
    12    5    8 2
    13    5   11 1
    14    6    7 1
    15    6    9 2
    16    6   12 1
    17    7   10 2
