@<TRIPOS>MOLECULE
*****
   22    23     0     0     0
SMALL
NO_CHARGES

@<TRIPOS>ATOM
      1 C1          0.1597   -0.4584    0.9637 C.ar      1 <0>         0.0000
      2 C2          1.3487   -0.0512    1.5750 C.ar      1 <0>         0.0000
      3 C3          0.7135   -3.3193    6.5025 C.2       1 <0>         0.0000
      4 C4         -0.6481   -1.3673    1.6375 C.ar      1 <0>         0.0000
      5 C5          1.9264   -2.5797    6.5638 C.2       1 <0>         0.0000
      6 C6          0.1546   -2.9740    5.2923 C.2       1 <0>         0.0000
      7 C7          1.7026   -0.5545    2.8324 C.ar      1 <0>         0.0000
      8 C8          0.8028   -1.4807    3.4339 C.ar      1 <0>         0.0000
      9 C9          3.7187    0.7209    2.8671 C.3       1 <0>         0.0000
     10 N1         -0.3256   -1.8587    2.8393 N.ar      1 <0>         0.0000
     11 N2          2.1109   -1.8333    5.4814 N.2       1 <0>         0.0000
     12 N3          1.0167   -2.0794    4.7006 N.pl3     1 <0>         0.0000
     13 O1          2.8364   -0.2085    3.4884 O.3       1 <0>         0.0000
     14 H1         -0.1247   -0.0745   -0.0114 H         1 <0>         0.0000
     15 H2          1.9962    0.6564    1.0709 H         1 <0>         0.0000
     16 H3          0.3083   -4.0038    7.2353 H         1 <0>         0.0000
     17 H4         -1.5845   -1.7192    1.2101 H         1 <0>         0.0000
     18 H5          2.6702   -2.5617    7.3516 H         1 <0>         0.0000
     19 H6         -0.7570   -3.2698    4.7981 H         1 <0>         0.0000
     20 H7          4.5450    0.8457    3.5673 H         1 <0>         0.0000
     21 H8          3.2312    1.6900    2.7024 H         1 <0>         0.0000
     22 H9          4.1035    0.3353    1.9146 H         1 <0>         0.0000
@<TRIPOS>BOND
     1    1    2 ar
     2    1    4 ar
     3    1   14 1
     4    2    7 ar
     5    2   15 1
     6    3    5 1
     7    3    6 2
     8    3   16 1
     9    4   10 ar
    10    4   17 1
    11    5   11 2
    12    5   18 1
    13    6   12 1
    14    6   19 1
    15    7    8 ar
    16    7   13 1
    17    8   10 ar
    18    8   12 1
    19    9   13 1
    20    9   20 1
    21    9   21 1
    22    9   22 1
    23   11   12 1
