@<TRIPOS>MOLECULE
*****
   46    49     0     0     0
SMALL
NO_CHARGES

@<TRIPOS>ATOM
      1 C1         -1.9566   -0.3719    5.1780 C.ar      1 <0>         0.0000
      2 C2         -2.0751    2.0260    5.3950 C.ar      1 <0>         0.0000
      3 C3         -0.6049   -0.2881    4.8351 C.ar      1 <0>         0.0000
      4 C4         -0.7248    2.1361    5.0545 C.ar      1 <0>         0.0000
      5 C5         -2.7085    0.7768    5.4621 C.ar      1 <0>         0.0000
      6 C6         -0.0190    0.9701    4.7799 C.ar      1 <0>         0.0000
      7 C7         -4.2424   -2.3246    2.8664 C.2       1 <0>         0.0000
      8 C8         -3.7792   -0.1617    2.4334 C.2       1 <0>         0.0000
      9 C9         -1.1788   -1.6597    1.4908 C.2       1 <0>         0.0000
     10 C10        -4.2609   -3.8033    2.6404 C.3       1 <0>         0.0000
     11 C11        -3.0573   -4.2483    1.7917 C.3       1 <0>         0.0000
     12 C12        -2.8685   -3.3263    0.5765 C.3       1 <0>         0.0000
     13 C13         0.8896   -0.2435    1.2373 C.3       1 <0>         0.0000
     14 C14        -0.7978    0.4640    0.0436 C.3       1 <0>         0.0000
     15 C15        -2.6190   -1.8584    0.9750 C.3       1 <0>         0.0000
     16 C16         0.6106    0.9985    0.3700 C.3       1 <0>         0.0000
     17 C17        -4.1912    0.6700    5.7300 C.3       1 <0>         0.0000
     18 C18        -5.0145    0.7235    4.4267 C.3       1 <0>         0.0000
     19 N1         -4.8916   -1.6578    3.7813 N.2       1 <0>         0.0000
     20 N2         -3.5672   -1.4779    2.0110 N.am      1 <0>         0.0000
     21 N3         -4.6348   -0.3206    3.4962 N.am      1 <0>         0.0000
     22 N4         -0.4346   -0.7471    0.8235 N.am      1 <0>         0.0000
     23 O1         -3.3124    0.8665    1.9380 O.2       1 <0>         0.0000
     24 O2         -0.7218   -2.3352    2.4155 O.2       1 <0>         0.0000
     25 F1          1.2980    1.0649    4.4313 F         1 <0>         0.0000
     26 F2          1.4302    1.1210   -0.7201 F         1 <0>         0.0000
     27 F3          0.6409    2.1887    1.0296 F         1 <0>         0.0000
     28 H1         -2.4323   -1.3485    5.2112 H         1 <0>         0.0000
     29 H2         -2.6441    2.9301    5.6003 H         1 <0>         0.0000
     30 H3         -0.0321   -1.1748    4.5876 H         1 <0>         0.0000
     31 H4         -0.2258    3.0983    4.9933 H         1 <0>         0.0000
     32 H5         -4.2873   -4.3149    3.6058 H         1 <0>         0.0000
     33 H6         -5.1942   -4.0562    2.1209 H         1 <0>         0.0000
     34 H7         -2.1483   -4.2372    2.3956 H         1 <0>         0.0000
     35 H8         -3.2195   -5.2741    1.4464 H         1 <0>         0.0000
     36 H9         -2.0298   -3.6684   -0.0366 H         1 <0>         0.0000
     37 H10        -3.7653   -3.3572   -0.0543 H         1 <0>         0.0000
     38 H11         1.7263   -0.8597    0.8995 H         1 <0>         0.0000
     39 H12         0.9677   -0.0344    2.3047 H         1 <0>         0.0000
     40 H13        -1.6134    1.0339    0.4939 H         1 <0>         0.0000
     41 H14        -0.9651    0.2791   -1.0208 H         1 <0>         0.0000
     42 H15        -2.7935   -1.2067    0.1156 H         1 <0>         0.0000
     43 H16        -4.5303    1.4886    6.3744 H         1 <0>         0.0000
     44 H17        -4.4202   -0.2675    6.2453 H         1 <0>         0.0000
     45 H18        -6.0820    0.6228    4.6441 H         1 <0>         0.0000
     46 H19        -4.8484    1.6687    3.9049 H         1 <0>         0.0000
@<TRIPOS>BOND
     1    1    3 ar
     2    1    5 ar
     3    1   28 1
     4    2    4 ar
     5    2    5 ar
     6    2   29 1
     7    3    6 ar
     8    3   30 1
     9    4    6 ar
    10    4   31 1
    11    5   17 1
    12    6   25 1
    13    7   10 1
    14    7   19 2
    15    7   20 1
    16    8   20 am
    17    8   21 am
    18    8   23 2
    19    9   15 1
    20    9   22 am
    21    9   24 2
    22   10   11 1
    23   10   32 1
    24   10   33 1
    25   11   12 1
    26   11   34 1
    27   11   35 1
    28   12   15 1
    29   12   36 1
    30   12   37 1
    31   13   16 1
    32   13   22 1
    33   13   38 1
    34   13   39 1
    35   14   16 1
    36   14   22 1
    37   14   40 1
    38   14   41 1
    39   15   20 1
    40   15   42 1
    41   16   26 1
    42   16   27 1
    43   17   18 1
    44   17   43 1
    45   17   44 1
    46   18   21 1
    47   18   45 1
    48   18   46 1
    49   19   21 1
