@<TRIPOS>MOLECULE
*****
   12    12     0     0     0
SMALL
NO_CHARGES

@<TRIPOS>ATOM
      1 C1         -0.0902   -0.9420    0.5216 C.2       1 <0>         0.0000
      2 C2         -0.5536   -1.1782    1.7989 C.2       1 <0>         0.0000
      3 C3         -0.0938   -3.2451    1.2275 C.2       1 <0>         0.0000
      4 C4          0.0495    0.2744   -0.2096 C.2       1 <0>         0.0000
      5 N1         -0.5568   -2.4983    2.2053 N.2       1 <0>         0.0000
      6 N2         -0.9535    1.0790   -0.4986 N.2       1 <0>         0.0000
      7 O1         -2.1494    0.5667    0.0113 O.3       1 <0>         0.0000
      8 S1          0.3645   -2.4256   -0.2089 S.3       1 <0>         0.0000
      9 Cl1        -1.1086    0.0404    2.8728 Cl        1 <0>         0.0000
     10 Cl2         0.0614   -4.9481    1.3375 Cl        1 <0>         0.0000
     11 H1          1.0730    0.5803   -0.5701 H         1 <0>         0.0000
     12 H2         -2.7875    1.2447   -0.2689 H         1 <0>         0.0000
@<TRIPOS>BOND
     1    1    2 2
     2    1    4 1
     3    1    8 1
     4    2    5 1
     5    2    9 1
     6    3    5 2
     7    3    8 1
     8    3   10 1
     9    4    6 2
    10    4   11 1
    11    6    7 1
    12    7   12 1
