@<TRIPOS>MOLECULE
*****
   17    17     0     0     0
SMALL
NO_CHARGES

@<TRIPOS>ATOM
      1 C1          1.3879   -0.0684    1.6522 C.ar      1 <0>         0.0000
      2 C2          0.2265   -0.4197    0.9733 C.ar      1 <0>         0.0000
      3 C3          1.6520   -0.6227    2.8997 C.ar      1 <0>         0.0000
      4 C4         -0.6317   -1.3224    1.5803 C.ar      1 <0>         0.0000
      5 C5          0.7299   -1.5161    3.4206 C.ar      1 <0>         0.0000
      6 C6         -0.0226   -1.7938    5.5988 C.2       1 <0>         0.0000
      7 C7          0.3276   -2.4474    6.9026 C.3       1 <0>         0.0000
      8 N1         -0.4092   -1.8816    2.7908 N.ar      1 <0>         0.0000
      9 O1         -1.0266   -1.1183    5.4154 O.2       1 <0>         0.0000
     10 O2          0.9675   -2.0756    4.6488 O.3       1 <0>         0.0000
     11 H1          2.0860    0.6357    1.2091 H         1 <0>         0.0000
     12 H2         -0.0001   -0.0005   -0.0002 H         1 <0>         0.0000
     13 H3          2.5536   -0.3593    3.4419 H         1 <0>         0.0000
     14 H4         -1.5503   -1.6288    1.0908 H         1 <0>         0.0000
     15 H5         -0.1010   -3.4520    6.9409 H         1 <0>         0.0000
     16 H6         -0.0892   -1.8596    7.7256 H         1 <0>         0.0000
     17 H7          1.4138   -2.4865    7.0175 H         1 <0>         0.0000
@<TRIPOS>BOND
     1    1    2 ar
     2    1    3 ar
     3    1   11 1
     4    2    4 ar
     5    2   12 1
     6    3    5 ar
     7    3   13 1
     8    4    8 ar
     9    4   14 1
    10    5    8 ar
    11    5   10 1
    12    6    7 1
    13    6    9 2
    14    6   10 1
    15    7   15 1
    16    7   16 1
    17    7   17 1
