@<TRIPOS>MOLECULE
*****
   25    26     0     0     0
SMALL
NO_CHARGES

@<TRIPOS>ATOM
      1 C1         -1.8080   -3.1800   -1.8520 C.ar      1 <0>         0.0000
      2 C2         -0.9820   -3.6860   -0.8500 C.ar      1 <0>         0.0000
      3 C3         -1.5310   -1.9410   -2.4260 C.ar      1 <0>         0.0000
      4 C4          5.8510    0.4420    1.0620 C.ar      1 <0>         0.0000
      5 C5          5.4680    1.7540    0.8260 C.ar      1 <0>         0.0000
      6 C6          0.1220   -2.9590   -0.4190 C.ar      1 <0>         0.0000
      7 C7         -0.4270   -1.2070   -2.0030 C.ar      1 <0>         0.0000
      8 C8          4.9500   -0.5650    0.7540 C.ar      1 <0>         0.0000
      9 C9          4.2090    2.0220    0.2950 C.ar      1 <0>         0.0000
     10 C10         0.4010   -1.7210   -1.0050 C.ar      1 <0>         0.0000
     11 C11         3.6910   -0.2500    0.2220 C.ar      1 <0>         0.0000
     12 C12         2.7280   -1.3180   -0.1060 C.2       1 <0>         0.0000
     13 N1          3.3500    1.0490    0.0030 N.ar      1 <0>         0.0000
     14 N2          1.5000   -0.9240   -0.6070 N.am      1 <0>         0.0000
     15 O1          2.9720   -2.5160    0.0270 O.2       1 <0>         0.0000
     16 H1         -2.6480   -3.7390   -2.1780 H         1 <0>         0.0000
     17 H2         -1.1960   -4.6280   -0.4130 H         1 <0>         0.0000
     18 H3         -2.1620   -1.5590   -3.1880 H         1 <0>         0.0000
     19 H4          6.8060    0.2160    1.4660 H         1 <0>         0.0000
     20 H5          6.1280    2.5520    1.0490 H         1 <0>         0.0000
     21 H6          0.7400   -3.3420    0.3500 H         1 <0>         0.0000
     22 H7         -0.2140   -0.2670   -2.4410 H         1 <0>         0.0000
     23 H8          5.2080   -1.5800    0.9200 H         1 <0>         0.0000
     24 H9          3.9100    3.0240    0.1120 H         1 <0>         0.0000
     25 H10         1.4300    0.0950   -0.7500 H         1 <0>         0.0000
@<TRIPOS>BOND
     1    1    2 ar
     2    1    3 ar
     3    1   16 1
     4    2    6 ar
     5    2   17 1
     6    3    7 ar
     7    3   18 1
     8    4    5 ar
     9    4    8 ar
    10    4   19 1
    11    5    9 ar
    12    5   20 1
    13    6   10 ar
    14    6   21 1
    15    7   10 ar
    16    7   22 1
    17    8   11 ar
    18    8   23 1
    19    9   13 ar
    20    9   24 1
    21   10   14 1
    22   11   12 1
    23   11   13 ar
    24   12   14 am
    25   12   15 2
    26   14   25 1
