@<TRIPOS>MOLECULE
*****
   45    49     0     0     0
SMALL
NO_CHARGES

@<TRIPOS>ATOM
      1 C1         -2.5462    5.4484    1.1682 C.ar      1 <0>         0.0000
      2 C2         -1.2905    5.6731    1.7642 C.ar      1 <0>         0.0000
      3 C3         -2.8161    4.2607    0.4895 C.ar      1 <0>         0.0000
      4 C4         -0.2643    4.7284    1.7059 C.ar      1 <0>         0.0000
      5 C5         -0.5338    3.5258    1.0202 C.ar      1 <0>         0.0000
      6 C6         -1.7964    3.3060    0.4239 C.ar      1 <0>         0.0000
      7 C7         -0.1626    1.5106    0.1905 C.2       1 <0>         0.0000
      8 C8          0.1250   -0.7442   -0.7851 C.2       1 <0>         0.0000
      9 C9          3.8106   -3.0677   -0.4534 C.3       1 <0>         0.0000
     10 C10         1.9068   -4.7103   -0.5201 C.3       1 <0>         0.0000
     11 C11         2.7516   -3.6766   -2.6522 C.3       1 <0>         0.0000
     12 C12         1.5599   -2.4193    0.4592 C.3       1 <0>         0.0000
     13 C13         2.4081   -1.3814   -1.6814 C.3       1 <0>         0.0000
     14 C14         0.5013   -3.0228   -1.7429 C.3       1 <0>         0.0000
     15 C15         2.5615   -3.5770    0.2902 C.3       1 <0>         0.0000
     16 C16         3.4071   -2.5423   -1.8440 C.3       1 <0>         0.0000
     17 C17         1.5016   -4.1795   -1.9073 C.3       1 <0>         0.0000
     18 C18         1.1412   -1.8756   -0.9332 C.3       1 <0>         0.0000
     19 C19         1.0842    4.9563    2.3394 C.3       1 <0>         0.0000
     20 N1          0.3738    2.4831    0.8685 N.2       1 <0>         0.0000
     21 N2          0.5666    0.3629   -0.0813 N.am      1 <0>         0.0000
     22 O1         -1.0123   -0.7813   -1.2444 O.2       1 <0>         0.0000
     23 S1         -1.8299    1.7258   -0.3525 S.3       1 <0>         0.0000
     24 H1         -3.3163    6.2120    1.2384 H         1 <0>         0.0000
     25 H2         -1.1137    6.6108    2.2860 H         1 <0>         0.0000
     26 H3         -3.7850    4.0872    0.0297 H         1 <0>         0.0000
     27 H4          4.2972   -2.2717    0.1253 H         1 <0>         0.0000
     28 H5          4.5411   -3.8793   -0.5575 H         1 <0>         0.0000
     29 H6          1.0250   -5.0918    0.0098 H         1 <0>         0.0000
     30 H7          2.6073   -5.5484   -0.6244 H         1 <0>         0.0000
     31 H8          3.4661   -4.4976   -2.7918 H         1 <0>         0.0000
     32 H9          2.4756   -3.3167   -3.6514 H         1 <0>         0.0000
     33 H10         0.6699   -2.7602    1.0015 H         1 <0>         0.0000
     34 H11         2.0185   -1.6285    1.0664 H         1 <0>         0.0000
     35 H12         2.8914   -0.5617   -1.1346 H         1 <0>         0.0000
     36 H13         2.1220   -0.9833   -2.6623 H         1 <0>         0.0000
     37 H14         0.1840   -2.6461   -2.7205 H         1 <0>         0.0000
     38 H15        -0.4050   -3.3664   -1.2344 H         1 <0>         0.0000
     39 H16         2.8467   -3.9463    1.2824 H         1 <0>         0.0000
     40 H17         4.2947   -2.1744   -2.3722 H         1 <0>         0.0000
     41 H18         1.0266   -4.9814   -2.4843 H         1 <0>         0.0000
     42 H19         1.3034    4.1829    3.0830 H         1 <0>         0.0000
     43 H20         1.8819    4.9081    1.5906 H         1 <0>         0.0000
     44 H21         1.1273    5.9324    2.8302 H         1 <0>         0.0000
     45 H22         1.5072    0.3835    0.2947 H         1 <0>         0.0000
@<TRIPOS>BOND
     1    1    2 ar
     2    1    3 ar
     3    1   24 1
     4    2    4 ar
     5    2   25 1
     6    3    6 ar
     7    3   26 1
     8    4    5 ar
     9    4   19 1
    10    5    6 ar
    11    5   20 1
    12    6   23 1
    13    7   20 2
    14    7   21 1
    15    7   23 1
    16    8   18 1
    17    8   21 am
    18    8   22 2
    19    9   15 1
    20    9   16 1
    21    9   27 1
    22    9   28 1
    23   10   17 1
    24   10   15 1
    25   10   29 1
    26   10   30 1
    27   11   17 1
    28   11   16 1
    29   11   31 1
    30   11   32 1
    31   12   15 1
    32   12   18 1
    33   12   33 1
    34   12   34 1
    35   13   16 1
    36   13   18 1
    37   13   35 1
    38   13   36 1
    39   14   17 1
    40   14   18 1
    41   14   37 1
    42   14   38 1
    43   15   39 1
    44   16   40 1
    45   17   41 1
    46   19   42 1
    47   19   43 1
    48   19   44 1
    49   21   45 1
