@<TRIPOS>MOLECULE
*****
   31    32     0     0     0
SMALL
NO_CHARGES

@<TRIPOS>ATOM
      1 C1         -0.3087   -2.9258    0.2225 C.ar      1 <0>         0.0000
      2 C2          3.3048   -3.0405   -0.7438 C.ar      1 <0>         0.0000
      3 C3         -0.5680   -1.5792    0.1296 C.ar      1 <0>         0.0000
      4 C4          3.5789   -4.3911   -0.6537 C.ar      1 <0>         0.0000
      5 C5          1.7109   -1.1397   -0.5440 C.ar      1 <0>         0.0000
      6 C6          1.2837   -4.8251    0.0228 C.ar      1 <0>         0.0000
      7 C7          2.0158   -2.5271   -0.4562 C.ar      1 <0>         0.0000
      8 C8          0.9885   -3.4457   -0.0641 C.ar      1 <0>         0.0000
      9 C9          0.4502   -0.6550   -0.2576 C.ar      1 <0>         0.0000
     10 C10         2.5548   -5.2970   -0.2655 C.ar      1 <0>         0.0000
     11 C11        -0.9138    1.1311   -1.4400 C.2       1 <0>         0.0000
     12 C12        -0.2843    1.4397    0.9930 C.3       1 <0>         0.0000
     13 C13         4.0301   -7.1816   -0.4474 C.3       1 <0>         0.0000
     14 C14         0.1320    0.8262   -0.3510 C.3       1 <0>         0.0000
     15 O1         -1.7386    2.0125   -1.3602 O.2       1 <0>         0.0000
     16 O2         -0.8290    0.3697   -2.5650 O.3       1 <0>         0.0000
     17 O3          2.7423   -6.6476   -0.1518 O.3       1 <0>         0.0000
     18 H1         -1.0982   -3.6143    0.5140 H         1 <0>         0.0000
     19 H2          4.0936   -2.3533   -1.0412 H         1 <0>         0.0000
     20 H3         -1.5674   -1.2081    0.3441 H         1 <0>         0.0000
     21 H4          4.5769   -4.7483   -0.8808 H         1 <0>         0.0000
     22 H5          2.5011   -0.4515   -0.8404 H         1 <0>         0.0000
     23 H6          0.5155   -5.5346    0.3177 H         1 <0>         0.0000
     24 H7         -1.1990    0.9762    1.3719 H         1 <0>         0.0000
     25 H8          0.5087    1.2898    1.7310 H         1 <0>         0.0000
     26 H9         -0.4761    2.5087    0.8807 H         1 <0>         0.0000
     27 H10         3.9447   -8.2586   -0.2979 H         1 <0>         0.0000
     28 H11         4.7956   -6.7827    0.2293 H         1 <0>         0.0000
     29 H12         4.3184   -6.9830   -1.4869 H         1 <0>         0.0000
     30 H13         1.0402    1.3394   -0.6952 H         1 <0>         0.0000
     31 H14        -0.1741   -0.3393   -2.4214 H         1 <0>         0.0000
@<TRIPOS>BOND
     1    1    3 ar
     2    1    8 ar
     3    1   18 1
     4    2    4 ar
     5    2    7 ar
     6    2   19 1
     7    3    9 ar
     8    3   20 1
     9    4   10 ar
    10    4   21 1
    11    5    7 ar
    12    5    9 ar
    13    5   22 1
    14    6    8 ar
    15    6   10 ar
    16    6   23 1
    17    7    8 ar
    18    9   14 1
    19   10   17 1
    20   11   14 1
    21   11   15 2
    22   11   16 1
    23   12   14 1
    24   12   24 1
    25   12   25 1
    26   12   26 1
    27   13   17 1
    28   13   27 1
    29   13   28 1
    30   13   29 1
    31   14   30 1
    32   16   31 1
