@<TRIPOS>MOLECULE
*****
   30    30     0     0     0
SMALL
NO_CHARGES

@<TRIPOS>ATOM
      1 C1          0.6280   -0.0697   -0.7932 C.2       1 <0>         0.0000
      2 C2          1.3313    2.1802    0.1139 C.2       1 <0>         0.0000
      3 C3         -0.6266   -0.3006    1.3373 C.3       1 <0>         0.0000
      4 C4          1.5442    0.6757    0.1970 C.3       1 <0>         0.0000
      5 C5         -0.5622   -0.7591   -0.1223 C.3       1 <0>         0.0000
      6 C6         -3.0377   -1.3579   -0.3763 C.3       1 <0>         0.0000
      7 C7         -2.3272    5.4153   -0.2472 C.3       1 <0>         0.0000
      8 C8         -1.8582   -0.5439   -0.9178 C.3       1 <0>         0.0000
      9 C9         -1.8524    3.9590   -0.1835 C.3       1 <0>         0.0000
     10 C10        -0.3412    3.8712   -0.0482 C.3       1 <0>         0.0000
     11 O1          0.8628   -0.1083   -1.9834 O.2       1 <0>         0.0000
     12 O2          2.2134    3.0099    0.1620 O.2       1 <0>         0.0000
     13 O3          0.0133    2.4643   -0.0019 O.3       1 <0>         0.0000
     14 S1          1.1062    0.0430    1.8625 S.3       1 <0>         0.0000
     15 H1         -1.2254    0.6076    1.4392 H         1 <0>         0.0000
     16 H2         -1.0251   -1.0672    2.0038 H         1 <0>         0.0000
     17 H3          2.5916    0.4686   -0.0213 H         1 <0>         0.0000
     18 H4         -0.3084   -1.8288   -0.1368 H         1 <0>         0.0000
     19 H5         -2.8133   -2.4308   -0.3824 H         1 <0>         0.0000
     20 H6         -3.9317   -1.2011   -0.9885 H         1 <0>         0.0000
     21 H7         -3.2891   -1.0757    0.6518 H         1 <0>         0.0000
     22 H8         -2.0465    5.9664    0.6572 H         1 <0>         0.0000
     23 H9         -1.8926    5.9389   -1.1058 H         1 <0>         0.0000
     24 H10        -3.4160    5.4653   -0.3431 H         1 <0>         0.0000
     25 H11        -2.0999    0.5255   -0.9054 H         1 <0>         0.0000
     26 H12        -1.6621   -0.8096   -1.9613 H         1 <0>         0.0000
     27 H13        -2.1603    3.4209   -1.0872 H         1 <0>         0.0000
     28 H14        -2.3171    3.4474    0.6673 H         1 <0>         0.0000
     29 H15         0.1731    4.3325   -0.8963 H         1 <0>         0.0000
     30 H16         0.0172    4.3507    0.8676 H         1 <0>         0.0000
@<TRIPOS>BOND
     1    1    4 1
     2    1    5 1
     3    1   11 2
     4    2    4 1
     5    2   12 2
     6    2   13 1
     7    3    5 1
     8    3   14 1
     9    3   15 1
    10    3   16 1
    11    4   14 1
    12    4   17 1
    13    5    8 1
    14    5   18 1
    15    6    8 1
    16    6   19 1
    17    6   20 1
    18    6   21 1
    19    7    9 1
    20    7   22 1
    21    7   23 1
    22    7   24 1
    23    8   25 1
    24    8   26 1
    25    9   10 1
    26    9   27 1
    27    9   28 1
    28   10   13 1
    29   10   29 1
    30   10   30 1
