@<TRIPOS>MOLECULE
*****
   31    32     0     0     0
SMALL
NO_CHARGES

@<TRIPOS>ATOM
      1 C1          3.5305    1.7067    2.4366 C.ar      1 <0>         0.0000
      2 C2          2.3018   -0.2627    3.1684 C.ar      1 <0>         0.0000
      3 C3          4.6463    1.2810    3.1602 C.ar      1 <0>         0.0000
      4 C4          3.4178   -0.6961    3.8859 C.ar      1 <0>         0.0000
      5 C5          2.3749    0.9268    2.4410 C.ar      1 <0>         0.0000
      6 C6          4.5789    0.0815    3.8738 C.ar      1 <0>         0.0000
      7 C7          0.9993   -1.0284    0.2955 C.2       1 <0>         0.0000
      8 C8         -1.1182    1.1838   -0.9820 C.3       1 <0>         0.0000
      9 C9         -1.8864   -0.1014   -0.6545 C.3       1 <0>         0.0000
     10 C10         0.3941    1.0216   -1.1802 C.3       1 <0>         0.0000
     11 C11        -1.5135   -0.7266    0.6945 C.3       1 <0>         0.0000
     12 C12         1.2051    0.4492   -0.0087 C.3       1 <0>         0.0000
     13 N1         -0.2365   -1.4504    0.7091 N.am      1 <0>         0.0000
     14 O1          1.9386   -1.8174    0.1943 O.2       1 <0>         0.0000
     15 O2          1.2767    2.9350    1.0388 O.2       1 <0>         0.0000
     16 S1          0.9375    1.5320    1.5128 S.o       1 <0>         0.0000
     17 Cl1         5.9790   -0.4561    4.7840 Cl        1 <0>         0.0000
     18 H1          3.5379    2.6399    1.8798 H         1 <0>         0.0000
     19 H2          1.3931   -0.8585    3.1739 H         1 <0>         0.0000
     20 H3          5.5565    1.8723    3.1735 H         1 <0>         0.0000
     21 H4          3.3878   -1.6241    4.4474 H         1 <0>         0.0000
     22 H5         -1.5269    1.6158   -1.9023 H         1 <0>         0.0000
     23 H6         -1.3057    1.9258   -0.1964 H         1 <0>         0.0000
     24 H7         -2.9573    0.1331   -0.6250 H         1 <0>         0.0000
     25 H8         -1.7457   -0.8474   -1.4468 H         1 <0>         0.0000
     26 H9          0.5913    0.3767   -2.0460 H         1 <0>         0.0000
     27 H10         0.8218    2.0018   -1.4095 H         1 <0>         0.0000
     28 H11        -1.5179    0.0435    1.4738 H         1 <0>         0.0000
     29 H12        -2.2722   -1.4602    0.9779 H         1 <0>         0.0000
     30 H13         2.2689    0.5558   -0.2283 H         1 <0>         0.0000
     31 H14        -0.2750   -2.4575    0.8207 H         1 <0>         0.0000
@<TRIPOS>BOND
     1    1    3 ar
     2    1    5 ar
     3    1   18 1
     4    2    4 ar
     5    2    5 ar
     6    2   19 1
     7    3    6 ar
     8    3   20 1
     9    4    6 ar
    10    4   21 1
    11    5   16 1
    12    6   17 1
    13    7   12 1
    14    7   13 am
    15    7   14 2
    16    8    9 1
    17    8   10 1
    18    8   22 1
    19    8   23 1
    20    9   11 1
    21    9   24 1
    22    9   25 1
    23   10   12 1
    24   10   26 1
    25   10   27 1
    26   11   13 1
    27   11   28 1
    28   11   29 1
    29   12   16 1
    30   12   30 1
    31   13   31 1
    32   15   16 2
