@<TRIPOS>MOLECULE
*****
   36    38     0     0     0
SMALL
NO_CHARGES

@<TRIPOS>ATOM
      1 C1          2.5218   -0.1256    6.6776 C.ar      1 <0>         0.0000
      2 C2          2.0097    0.8552    5.8213 C.ar      1 <0>         0.0000
      3 C3          2.1151   -1.4552    6.5278 C.ar      1 <0>         0.0000
      4 C4          0.0863    2.6850   -0.8408 C.ar      1 <0>         0.0000
      5 C5         -1.0052    2.7262    0.0360 C.ar      1 <0>         0.0000
      6 C6          1.0998    0.5052    4.8200 C.ar      1 <0>         0.0000
      7 C7          1.2055   -1.8021    5.5242 C.ar      1 <0>         0.0000
      8 C8          0.6859    1.4644   -1.1570 C.ar      1 <0>         0.0000
      9 C9         -1.5039    1.5550    0.6153 C.ar      1 <0>         0.0000
     10 C10         0.6883   -0.8262    4.6611 C.ar      1 <0>         0.0000
     11 C11         0.1782    0.2993   -0.5828 C.ar      1 <0>         0.0000
     12 C12        -0.9024    0.3399    0.3055 C.ar      1 <0>         0.0000
     13 C13         0.4062   -2.0594   -0.1901 C.cat     1 <0>         0.0000
     14 C14        -0.4065   -1.8346    1.0717 C.3       1 <0>         0.0000
     15 C15        -0.2555   -1.2050    3.5417 C.3       1 <0>         0.0000
     16 C16         0.5254   -1.4749    2.2412 C.3       1 <0>         0.0000
     17 N1          0.7012   -0.9886   -0.9076 N.pl3     1 <0>         0.0000
     18 N2          0.8218   -3.2819   -0.5099 N.pl3     1 <0>         0.0000
     19 O1         -1.4002   -0.8412    0.8139 O.3       1 <0>         0.0000
     20 H1          3.2243    0.1458    7.4606 H         1 <0>         0.0000
     21 H2          2.3127    1.8920    5.9398 H         1 <0>         0.0000
     22 H3          2.4998   -2.2198    7.1971 H         1 <0>         0.0000
     23 H4          0.4697    3.6005   -1.2791 H         1 <0>         0.0000
     24 H5         -1.4694    3.6778    0.2758 H         1 <0>         0.0000
     25 H6          0.6963    1.2759    4.1652 H         1 <0>         0.0000
     26 H7          0.8848   -2.8375    5.4231 H         1 <0>         0.0000
     27 H8          1.5312    1.4220   -1.8398 H         1 <0>         0.0000
     28 H9         -2.3503    1.5697    1.2949 H         1 <0>         0.0000
     29 H10        -0.9727   -2.7414    1.2999 H         1 <0>         0.0000
     30 H11        -0.8298   -2.0982    3.8122 H         1 <0>         0.0000
     31 H12        -0.9772   -0.4024    3.3655 H         1 <0>         0.0000
     32 H13         1.1233   -0.5949    1.9826 H         1 <0>         0.0000
     33 H14         1.2292   -2.3008    2.3971 H         1 <0>         0.0000
     34 H15         1.2750   -1.0664   -1.7443 H         1 <0>         0.0000
     35 H16         1.4053   -3.4774   -1.3179 H         1 <0>         0.0000
     36 H17         0.5629   -4.0731    0.0686 H         1 <0>         0.0000
@<TRIPOS>BOND
     1    1    3 ar
     2    1    2 ar
     3    1   20 1
     4    2    6 ar
     5    2   21 1
     6    3    7 ar
     7    3   22 1
     8    4    5 ar
     9    4    8 ar
    10    4   23 1
    11    5    9 ar
    12    5   24 1
    13    6   10 ar
    14    6   25 1
    15    7   10 ar
    16    7   26 1
    17    8   11 ar
    18    8   27 1
    19    9   12 ar
    20    9   28 1
    21   10   15 1
    22   11   12 ar
    23   11   17 1
    24   12   19 1
    25   13   14 1
    26   13   17 2
    27   13   18 1
    28   14   16 1
    29   14   19 1
    30   14   29 1
    31   15   16 1
    32   15   30 1
    33   15   31 1
    34   16   32 1
    35   16   33 1
    36   17   34 1
    37   18   35 1
    38   18   36 1
