@<TRIPOS>MOLECULE
*****
   29    30     0     0     0
SMALL
NO_CHARGES

@<TRIPOS>ATOM
      1 C1          0.3185    5.9620    2.0414 C.ar      1 <0>         0.0000
      2 C2          0.0895    5.9337    3.4187 C.ar      1 <0>         0.0000
      3 C3          0.7339    4.8048    1.3793 C.ar      1 <0>         0.0000
      4 C4          0.2768    4.7477    4.1337 C.ar      1 <0>         0.0000
      5 C5          0.9306    3.6013    2.0697 C.ar      1 <0>         0.0000
      6 C6          0.6914    3.6033    3.4549 C.ar      1 <0>         0.0000
      7 C7         -0.8744    1.3793    0.9282 C.cat     1 <0>         0.0000
      8 C8         -3.1319    1.0726    0.5263 C.3       1 <0>         0.0000
      9 C9         -2.5582    2.1949   -0.3569 C.3       1 <0>         0.0000
     10 C10         1.9099    2.5040   -0.0643 C.3       1 <0>         0.0000
     11 C11         1.4011    2.3369    1.3670 C.3       1 <0>         0.0000
     12 N1         -1.8871    0.5135    1.0834 N.pl3     1 <0>         0.0000
     13 N2          0.3374    1.2746    1.4354 N.pl3     1 <0>         0.0000
     14 O1         -1.1943    2.4035    0.1596 O.3       1 <0>         0.0000
     15 Cl1         0.9280    2.1303    4.4030 Cl        1 <0>         0.0000
     16 H1          0.1817    6.8835    1.4835 H         1 <0>         0.0000
     17 H2         -0.2272    6.8303    3.9434 H         1 <0>         0.0000
     18 H3          0.9134    4.8442    0.3105 H         1 <0>         0.0000
     19 H4          0.1127    4.7118    5.2058 H         1 <0>         0.0000
     20 H5         -3.7756    1.4517    1.3249 H         1 <0>         0.0000
     21 H6         -3.6700    0.3228   -0.0550 H         1 <0>         0.0000
     22 H7         -2.4575    1.9070   -1.4041 H         1 <0>         0.0000
     23 H8         -3.0797    3.1457   -0.2685 H         1 <0>         0.0000
     24 H9          1.1431    2.8846   -0.7405 H         1 <0>         0.0000
     25 H10         2.2608    1.5417   -0.4453 H         1 <0>         0.0000
     26 H11         2.7532    3.1986   -0.0698 H         1 <0>         0.0000
     27 H12         2.2095    1.9035    1.9599 H         1 <0>         0.0000
     28 H13        -1.8759   -0.2288    1.7732 H         1 <0>         0.0000
     29 H14         0.4819    0.5408    2.1204 H         1 <0>         0.0000
@<TRIPOS>BOND
     1    1    2 ar
     2    1    3 ar
     3    1   16 1
     4    2    4 ar
     5    2   17 1
     6    3    5 ar
     7    3   18 1
     8    4    6 ar
     9    4   19 1
    10    5    6 ar
    11    5   11 1
    12    6   15 1
    13    7   12 1
    14    7   13 2
    15    7   14 1
    16    8    9 1
    17    8   12 1
    18    8   20 1
    19    8   21 1
    20    9   14 1
    21    9   22 1
    22    9   23 1
    23   10   11 1
    24   10   24 1
    25   10   25 1
    26   10   26 1
    27   11   13 1
    28   11   27 1
    29   12   28 1
    30   13   29 1
