@<TRIPOS>MOLECULE
*****
   35    36     0     0     0
SMALL
NO_CHARGES

@<TRIPOS>ATOM
      1 C1          3.4733   -3.1047   -5.9889 C.ar      1 <0>         0.0000
      2 C2          2.9745   -2.3828   -7.0779 C.ar      1 <0>         0.0000
      3 C3          2.7308   -3.1826   -4.8088 C.ar      1 <0>         0.0000
      4 C4          1.7280   -1.7577   -6.9892 C.ar      1 <0>         0.0000
      5 C5         -0.3077   -3.4120   -1.7270 C.2       1 <0>         0.0000
      6 C6          0.4668   -3.8071   -2.7923 C.2       1 <0>         0.0000
      7 C7          0.1129   -1.6178   -2.8364 C.2       1 <0>         0.0000
      8 C8          1.4832   -2.5573   -4.7142 C.ar      1 <0>         0.0000
      9 C9          0.9706   -1.8468   -5.8184 C.ar      1 <0>         0.0000
     10 C10        -5.0307   -1.1348   -4.6986 C.3       1 <0>         0.0000
     11 C11        -4.3279   -2.7596   -6.5008 C.3       1 <0>         0.0000
     12 C12        -2.6116   -1.2221   -5.3917 C.3       1 <0>         0.0000
     13 C13        -1.4011   -2.0637   -5.7619 C.3       1 <0>         0.0000
     14 C14        -3.9021   -2.0405   -5.2113 C.3       1 <0>         0.0000
     15 N1         -0.5189   -2.0456   -1.7624 N.2       1 <0>         0.0000
     16 N2          0.7348   -2.6464   -3.5095 N.pl3     1 <0>         0.0000
     17 O1         -0.2386   -1.1969   -5.7496 O.3       1 <0>         0.0000
     18 H1          4.4430   -3.5904   -6.0490 H         1 <0>         0.0000
     19 H2          3.5530   -2.3061   -7.9943 H         1 <0>         0.0000
     20 H3          3.1218   -3.7087   -3.9425 H         1 <0>         0.0000
     21 H4          1.3168   -1.1947   -7.8222 H         1 <0>         0.0000
     22 H5         -0.7259   -4.0293   -0.9423 H         1 <0>         0.0000
     23 H6          0.8261   -4.7711   -3.1218 H         1 <0>         0.0000
     24 H7          0.1632   -0.5971   -3.1884 H         1 <0>         0.0000
     25 H8         -5.2634   -0.3497   -5.4285 H         1 <0>         0.0000
     26 H9         -4.7526   -0.6472   -3.7582 H         1 <0>         0.0000
     27 H10        -5.9475   -1.7082   -4.5228 H         1 <0>         0.0000
     28 H11        -4.4773   -2.0403   -7.3159 H         1 <0>         0.0000
     29 H12        -5.2719   -3.2957   -6.3541 H         1 <0>         0.0000
     30 H13        -3.5845   -3.4915   -6.8330 H         1 <0>         0.0000
     31 H14        -2.3813   -0.7049   -4.4540 H         1 <0>         0.0000
     32 H15        -2.7627   -0.4494   -6.1565 H         1 <0>         0.0000
     33 H16        -1.2670   -2.8773   -5.0403 H         1 <0>         0.0000
     34 H17        -1.4874   -2.5016   -6.7635 H         1 <0>         0.0000
     35 H18        -3.7089   -2.8021   -4.4429 H         1 <0>         0.0000
@<TRIPOS>BOND
     1    1    2 ar
     2    1    3 ar
     3    1   18 1
     4    2    4 ar
     5    2   19 1
     6    3    8 ar
     7    3   20 1
     8    4    9 ar
     9    4   21 1
    10    5    6 2
    11    5   15 1
    12    5   22 1
    13    6   16 1
    14    6   23 1
    15    7   15 2
    16    7   16 1
    17    7   24 1
    18    8    9 ar
    19    8   16 1
    20    9   17 1
    21   10   14 1
    22   10   25 1
    23   10   26 1
    24   10   27 1
    25   11   14 1
    26   11   28 1
    27   11   29 1
    28   11   30 1
    29   12   13 1
    30   12   14 1
    31   12   31 1
    32   12   32 1
    33   13   17 1
    34   13   33 1
    35   13   34 1
    36   14   35 1
