@<TRIPOS>MOLECULE
*****
   24    25     0     0     0
SMALL
NO_CHARGES

@<TRIPOS>ATOM
      1 C1          0.2965    3.6610   -2.2687 C.1       1 <0>         0.0000
      2 C2         -1.0818    2.6992   -0.4620 C.ar      1 <0>         0.0000
      3 C3         -1.4307    1.6309    0.3627 C.ar      1 <0>         0.0000
      4 C4          0.5936    1.3276   -1.5785 C.ar      1 <0>         0.0000
      5 C5         -0.0680    2.5560   -1.4279 C.ar      1 <0>         0.0000
      6 C6          0.2276    0.2691   -0.7548 C.ar      1 <0>         0.0000
      7 C7         -0.7677    0.4151    0.2206 C.ar      1 <0>         0.0000
      8 C8          0.6449   -1.9700    0.0076 C.cat     1 <0>         0.0000
      9 C9         -0.0660   -1.5729    1.2927 C.3       1 <0>         0.0000
     10 C10         0.9261   -0.9960    2.3076 C.3       1 <0>         0.0000
     11 N1          0.5998    4.5508   -2.9554 N.1       1 <0>         0.0000
     12 N2          0.8074   -1.0258   -0.9041 N.pl3     1 <0>         0.0000
     13 N3          1.1017   -3.2075   -0.1435 N.pl3     1 <0>         0.0000
     14 O1         -1.1287   -0.6683    0.9837 O.3       1 <0>         0.0000
     15 H1         -1.5880    3.6532   -0.3575 H         1 <0>         0.0000
     16 H2         -2.2097    1.7258    1.1124 H         1 <0>         0.0000
     17 H3          1.3702    1.2149   -2.3300 H         1 <0>         0.0000
     18 H4         -0.5649   -2.4537    1.7025 H         1 <0>         0.0000
     19 H5          1.4382   -0.1149    1.9129 H         1 <0>         0.0000
     20 H6          1.6760   -1.7425    2.5851 H         1 <0>         0.0000
     21 H7          0.3733   -0.7089    3.2049 H         1 <0>         0.0000
     22 H8          1.3023   -1.2225   -1.7718 H         1 <0>         0.0000
     23 H9          1.6096   -3.5164   -0.9680 H         1 <0>         0.0000
     24 H10         0.9422   -3.9022    0.5783 H         1 <0>         0.0000
@<TRIPOS>BOND
     1    1    5 1
     2    1   11 3
     3    2    3 ar
     4    2    5 ar
     5    2   15 1
     6    3    7 ar
     7    3   16 1
     8    4    5 ar
     9    4    6 ar
    10    4   17 1
    11    6    7 ar
    12    6   12 1
    13    7   14 1
    14    8    9 1
    15    8   12 1
    16    8   13 2
    17    9   10 1
    18    9   14 1
    19    9   18 1
    20   10   19 1
    21   10   20 1
    22   10   21 1
    23   12   22 1
    24   13   23 1
    25   13   24 1
