@<TRIPOS>MOLECULE
*****
   29    30     0     0     0
SMALL
NO_CHARGES

@<TRIPOS>ATOM
      1 C1          5.6220    1.2960    0.2550 C.ar      1 <0>         0.0000
      2 C2         -2.0720   -3.1730   -1.4420 C.ar      1 <0>         0.0000
      3 C3         -1.0940   -3.8840   -0.7600 C.ar      1 <0>         0.0000
      4 C4          4.7770    1.0650    1.3390 C.ar      1 <0>         0.0000
      5 C5          5.2800    0.8260   -1.0120 C.ar      1 <0>         0.0000
      6 C6         -2.0280   -1.7830   -1.4660 C.ar      1 <0>         0.0000
      7 C7         -0.0770   -3.2050   -0.0980 C.ar      1 <0>         0.0000
      8 C8          3.5860    0.3650    1.1610 C.ar      1 <0>         0.0000
      9 C9          4.0920    0.1260   -1.1980 C.ar      1 <0>         0.0000
     10 C10        -1.0100   -1.0930   -0.8080 C.ar      1 <0>         0.0000
     11 C11        -0.0300   -1.8100   -0.1090 C.ar      1 <0>         0.0000
     12 C12         3.2510   -0.1000   -0.1130 C.ar      1 <0>         0.0000
     13 C13        -0.9900    0.4240   -0.8710 C.3       1 <0>         0.0000
     14 C14         1.0940   -1.1140    0.6420 C.3       1 <0>         0.0000
     15 O1          2.0890   -0.7940   -0.3580 O.3       1 <0>         0.0000
     16 H1          6.5280    1.8290    0.3940 H         1 <0>         0.0000
     17 H2         -2.8480   -3.6880   -1.9460 H         1 <0>         0.0000
     18 H3         -1.1210   -4.9440   -0.7460 H         1 <0>         0.0000
     19 H4          5.0420    1.4240    2.3000 H         1 <0>         0.0000
     20 H5          5.9250    1.0020   -1.8350 H         1 <0>         0.0000
     21 H6         -2.7770   -1.2500   -1.9940 H         1 <0>         0.0000
     22 H7          0.6680   -3.7570    0.4150 H         1 <0>         0.0000
     23 H8          2.9500    0.1930    1.9880 H         1 <0>         0.0000
     24 H9          3.8210   -0.2360   -2.1560 H         1 <0>         0.0000
     25 H10        -0.0060    0.7430   -1.2140 H         1 <0>         0.0000
     26 H11        -1.2010    0.8130    0.1250 H         1 <0>         0.0000
     27 H12        -1.7490    0.7690   -1.5730 H         1 <0>         0.0000
     28 H13         1.5220   -1.7960    1.3640 H         1 <0>         0.0000
     29 H14         0.7220   -0.2050    1.0940 H         1 <0>         0.0000
@<TRIPOS>BOND
     1    1    4 ar
     2    1    5 ar
     3    1   16 1
     4    2    3 ar
     5    2    6 ar
     6    2   17 1
     7    3    7 ar
     8    3   18 1
     9    4    8 ar
    10    4   19 1
    11    5    9 ar
    12    5   20 1
    13    6   10 ar
    14    6   21 1
    15    7   11 ar
    16    7   22 1
    17    8   12 ar
    18    8   23 1
    19    9   12 ar
    20    9   24 1
    21   10   11 ar
    22   10   13 1
    23   11   14 1
    24   12   15 1
    25   13   25 1
    26   13   26 1
    27   13   27 1
    28   14   15 1
    29   14   28 1
    30   14   29 1
