@<TRIPOS>MOLECULE
*****
   51    53     0     0     0
SMALL
NO_CHARGES

@<TRIPOS>ATOM
      1 C1          1.3895   -2.6346   -0.2891 C.ar      1 <0>         0.0000
      2 C2         -0.3421   -1.2693    0.6608 C.ar      1 <0>         0.0000
      3 C3          0.7165   -3.7893    0.1130 C.ar      1 <0>         0.0000
      4 C4         -1.0286   -2.4125    1.0772 C.ar      1 <0>         0.0000
      5 C5          0.8707   -1.3544   -0.0409 C.ar      1 <0>         0.0000
      6 C6         -0.5009   -3.6728    0.7884 C.ar      1 <0>         0.0000
      7 C7         -5.0766    1.7526   -1.2529 C.3       1 <0>         0.0000
      8 C8         -2.8415    2.0397   -2.3672 C.3       1 <0>         0.0000
      9 C9         -3.4430   -0.1571   -1.3400 C.3       1 <0>         0.0000
     10 C10         1.1633    1.1906    0.0633 C.3       1 <0>         0.0000
     11 C11         1.6268   -0.1325   -0.5411 C.3       1 <0>         0.0000
     12 C12        -3.9475    2.7402   -1.5775 C.3       1 <0>         0.0000
     13 C13        -4.5634    0.4978   -0.5332 C.3       1 <0>         0.0000
     14 C14         1.4225    0.1953   -2.0546 C.3       1 <0>         0.0000
     15 C15         0.1130    1.0144   -2.0433 C.3       1 <0>         0.0000
     16 C16        -4.4462    3.9608   -2.3600 C.3       1 <0>         0.0000
     17 C17        -5.6765   -0.5243   -0.2730 C.3       1 <0>         0.0000
     18 C18         1.4832   -0.9551   -3.0591 C.3       1 <0>         0.0000
     19 C19        -1.1514    0.1720   -2.2986 C.3       1 <0>         0.0000
     20 N1         -2.3325    0.8226   -1.6312 N.4       1 <0>         0.0000
     21 O1          0.0021    1.5807   -0.7223 O.3       1 <0>         0.0000
     22 Cl1        -1.3592   -5.1078    1.2939 Cl        1 <0>         0.0000
     23 H1          2.3426   -2.7391   -0.8010 H         1 <0>         0.0000
     24 H2         -0.7627   -0.3005    0.9147 H         1 <0>         0.0000
     25 H3          1.1353   -4.7704   -0.0876 H         1 <0>         0.0000
     26 H4         -1.9546   -2.3289    1.6384 H         1 <0>         0.0000
     27 H5         -5.8299    2.2482   -0.6326 H         1 <0>         0.0000
     28 H6         -5.5815    1.4576   -2.1831 H         1 <0>         0.0000
     29 H7         -3.2046    1.6871   -3.3372 H         1 <0>         0.0000
     30 H8         -1.9880    2.6998   -2.5279 H         1 <0>         0.0000
     31 H9         -2.9931   -0.9947   -0.8026 H         1 <0>         0.0000
     32 H10        -3.8043   -0.5180   -2.3079 H         1 <0>         0.0000
     33 H11         0.8534    1.1398    1.1073 H         1 <0>         0.0000
     34 H12         1.9318    1.9638   -0.0389 H         1 <0>         0.0000
     35 H13         2.6946   -0.2799   -0.3542 H         1 <0>         0.0000
     36 H14        -3.5092    3.0937   -0.6333 H         1 <0>         0.0000
     37 H15        -4.1425    0.8015    0.4365 H         1 <0>         0.0000
     38 H16         2.2190    0.9005   -2.3152 H         1 <0>         0.0000
     39 H17         0.1629    1.8361   -2.7656 H         1 <0>         0.0000
     40 H18        -4.8837    3.6635   -3.3193 H         1 <0>         0.0000
     41 H19        -3.6372    4.6709   -2.5587 H         1 <0>         0.0000
     42 H20        -5.2180    4.4859   -1.7908 H         1 <0>         0.0000
     43 H21        -6.1270   -0.8640   -1.2117 H         1 <0>         0.0000
     44 H22        -6.4681   -0.0765    0.3338 H         1 <0>         0.0000
     45 H23        -5.3016   -1.4028    0.2619 H         1 <0>         0.0000
     46 H24         0.7577   -1.7447   -2.8508 H         1 <0>         0.0000
     47 H25         2.4751   -1.4149   -3.0472 H         1 <0>         0.0000
     48 H26         1.3121   -0.5882   -4.0768 H         1 <0>         0.0000
     49 H27        -1.0557   -0.8161   -1.8532 H         1 <0>         0.0000
     50 H28        -1.3679    0.0650   -3.3631 H         1 <0>         0.0000
     51 H29        -1.9439    1.1589   -0.7354 H         1 <0>         0.0000
@<TRIPOS>BOND
     1    1    3 ar
     2    1    5 ar
     3    1   23 1
     4    2    4 ar
     5    2    5 ar
     6    2   24 1
     7    3    6 ar
     8    3   25 1
     9    4    6 ar
    10    4   26 1
    11    5   11 1
    12    6   22 1
    13    7   12 1
    14    7   13 1
    15    7   27 1
    16    7   28 1
    17    8   12 1
    18    8   20 1
    19    8   29 1
    20    8   30 1
    21    9   13 1
    22    9   20 1
    23    9   31 1
    24    9   32 1
    25   10   11 1
    26   10   21 1
    27   10   33 1
    28   10   34 1
    29   11   14 1
    30   11   35 1
    31   12   16 1
    32   12   36 1
    33   13   17 1
    34   13   37 1
    35   14   15 1
    36   14   18 1
    37   14   38 1
    38   15   19 1
    39   15   21 1
    40   15   39 1
    41   16   40 1
    42   16   41 1
    43   16   42 1
    44   17   43 1
    45   17   44 1
    46   17   45 1
    47   18   46 1
    48   18   47 1
    49   18   48 1
    50   19   20 1
    51   19   49 1
    52   19   50 1
    53   20   51 1
