@<TRIPOS>MOLECULE
*****
   51    54     0     0     0
SMALL
NO_CHARGES

@<TRIPOS>ATOM
      1 C1          5.4011   -5.7924   -2.7829 C.ar      1 <0>         0.0000
      2 C2          5.8011   -4.5131   -3.1792 C.ar      1 <0>         0.0000
      3 C3          4.3853   -5.9340   -1.8296 C.ar      1 <0>         0.0000
      4 C4          5.1879   -3.3843   -2.6239 C.ar      1 <0>         0.0000
      5 C5          3.7780   -4.8051   -1.2749 C.ar      1 <0>         0.0000
      6 C6         -0.4119   -3.0397    0.3353 C.ar      1 <0>         0.0000
      7 C7         -2.7450   -2.3838    0.4448 C.ar      1 <0>         0.0000
      8 C8         -0.0474   -1.7211    0.0289 C.ar      1 <0>         0.0000
      9 C9          4.1758   -3.5171   -1.6646 C.ar      1 <0>         0.0000
     10 C10        -2.4071   -1.0641    0.1454 C.ar      1 <0>         0.0000
     11 C11        -1.0495   -0.7435   -0.0601 C.ar      1 <0>         0.0000
     12 C12        -1.7476   -3.3584    0.5402 C.ar      1 <0>         0.0000
     13 C13         0.0146    3.6762    1.0598 C.3       1 <0>         0.0000
     14 C14        -0.3121    3.4354   -0.4198 C.3       1 <0>         0.0000
     15 C15        -0.0467    2.3659    1.8548 C.3       1 <0>         0.0000
     16 C16         0.6040    2.3630   -1.0236 C.3       1 <0>         0.0000
     17 C17         0.8653    1.2910    1.2483 C.3       1 <0>         0.0000
     18 C18         1.5142    0.0143   -0.8693 C.3       1 <0>         0.0000
     19 C19         1.4132   -1.3645   -0.1935 C.3       1 <0>         0.0000
     20 C20         0.5709    1.0430   -0.2437 C.3       1 <0>         0.0000
     21 C21        -3.4541    0.0158    0.0363 C.3       1 <0>         0.0000
     22 C22         3.5390   -2.2910   -1.0415 C.3       1 <0>         0.0000
     23 N1          2.0905   -2.4518   -0.9064 N.3       1 <0>         0.0000
     24 O1         -0.7971    0.5662   -0.3762 O.3       1 <0>         0.0000
     25 Cl1        -2.1984   -5.0195    0.9231 Cl        1 <0>         0.0000
     26 H1          5.8722   -6.6715   -3.2155 H         1 <0>         0.0000
     27 H2          6.5840   -4.3927   -3.9238 H         1 <0>         0.0000
     28 H3          4.0664   -6.9262   -1.5197 H         1 <0>         0.0000
     29 H4          5.4986   -2.3911   -2.9428 H         1 <0>         0.0000
     30 H5          2.9820   -4.9100   -0.5435 H         1 <0>         0.0000
     31 H6          0.3601   -3.7989    0.3902 H         1 <0>         0.0000
     32 H7         -3.7844   -2.6537    0.6071 H         1 <0>         0.0000
     33 H8         -0.6775    4.4111    1.4870 H         1 <0>         0.0000
     34 H9          1.0227    4.1063    1.1450 H         1 <0>         0.0000
     35 H10        -1.3544    3.1116   -0.5169 H         1 <0>         0.0000
     36 H11        -0.2119    4.3655   -0.9909 H         1 <0>         0.0000
     37 H12         0.2372    2.5371    2.8993 H         1 <0>         0.0000
     38 H13        -1.0776    1.9932    1.8640 H         1 <0>         0.0000
     39 H14         0.3271    2.1613   -2.0642 H         1 <0>         0.0000
     40 H15         1.6405    2.7242   -1.0282 H         1 <0>         0.0000
     41 H16         1.9157    1.5987    1.3382 H         1 <0>         0.0000
     42 H17         0.7590    0.3580    1.8101 H         1 <0>         0.0000
     43 H18         2.5405    0.3901   -0.8189 H         1 <0>         0.0000
     44 H19         1.2543   -0.0899   -1.9308 H         1 <0>         0.0000
     45 H20         1.9046   -1.3042    0.7871 H         1 <0>         0.0000
     46 H21        -3.2515    0.8311    0.7390 H         1 <0>         0.0000
     47 H22        -3.4599    0.4600   -0.9648 H         1 <0>         0.0000
     48 H23        -4.4501   -0.3831    0.2444 H         1 <0>         0.0000
     49 H24         3.9422   -2.1436   -0.0299 H         1 <0>         0.0000
     50 H25         3.8353   -1.4038   -1.6246 H         1 <0>         0.0000
     51 H26         1.6685   -2.5751   -1.8263 H         1 <0>         0.0000
@<TRIPOS>BOND
     1    1    3 ar
     2    1    2 ar
     3    1   26 1
     4    2    4 ar
     5    2   27 1
     6    3    5 ar
     7    3   28 1
     8    4    9 ar
     9    4   29 1
    10    5    9 ar
    11    5   30 1
    12    6    8 ar
    13    6   12 ar
    14    6   31 1
    15    7   10 ar
    16    7   12 ar
    17    7   32 1
    18    8   11 ar
    19    8   19 1
    20    9   22 1
    21   10   11 ar
    22   10   21 1
    23   11   24 1
    24   12   25 1
    25   13   15 1
    26   13   14 1
    27   13   33 1
    28   13   34 1
    29   14   16 1
    30   14   35 1
    31   14   36 1
    32   15   17 1
    33   15   37 1
    34   15   38 1
    35   16   20 1
    36   16   39 1
    37   16   40 1
    38   17   20 1
    39   17   41 1
    40   17   42 1
    41   18   19 1
    42   18   20 1
    43   18   43 1
    44   18   44 1
    45   19   23 1
    46   19   45 1
    47   20   24 1
    48   21   46 1
    49   21   47 1
    50   21   48 1
    51   22   23 1
    52   22   49 1
    53   22   50 1
    54   23   51 1
