@<TRIPOS>MOLECULE
*****
   39    40     0     0     0
SMALL
NO_CHARGES

@<TRIPOS>ATOM
      1 C1          3.1198   -1.2248    1.7349 C.ar      1 <0>         0.0000
      2 C2          1.8681   -0.9103   -0.3062 C.ar      1 <0>         0.0000
      3 C3          0.9292    3.8440    4.1532 C.ar      1 <0>         0.0000
      4 C4         -0.1237    4.2804    2.0242 C.ar      1 <0>         0.0000
      5 C5          2.0433   -0.7458    2.4825 C.ar      1 <0>         0.0000
      6 C6          0.7831   -0.4271    0.4254 C.ar      1 <0>         0.0000
      7 C7          0.5974    2.4932    4.0484 C.ar      1 <0>         0.0000
      8 C8         -0.4655    2.9328    1.9041 C.ar      1 <0>         0.0000
      9 C9          3.0507   -1.3104    0.3355 C.ar      1 <0>         0.0000
     10 C10         0.5790    4.7539    3.1434 C.ar      1 <0>         0.0000
     11 C11         0.8855   -0.3439    1.8151 C.ar      1 <0>         0.0000
     12 C12        -0.0926    2.0502    2.9186 C.ar      1 <0>         0.0000
     13 C13         4.2431   -1.7872   -0.4590 C.3       1 <0>         0.0000
     14 C14         0.9805    6.2068    3.2328 C.3       1 <0>         0.0000
     15 C15         5.0623   -0.6359   -1.0700 C.3       1 <0>         0.0000
     16 C16         2.4462    6.4549    2.8329 C.3       1 <0>         0.0000
     17 O1         -1.6998    0.1974    1.9205 O.2       1 <0>         0.0000
     18 O2         -0.4363   -0.2850    4.1089 O.2       1 <0>         0.0000
     19 O3          4.3515    0.0944   -2.0715 O.3       1 <0>         0.0000
     20 O4          3.3857    5.8645    3.7332 O.3       1 <0>         0.0000
     21 S1         -0.4969    0.3060    2.7620 S.o2      1 <0>         0.0000
     22 H1          4.0234   -1.5456    2.2485 H         1 <0>         0.0000
     23 H2          1.7964   -0.9752   -1.3877 H         1 <0>         0.0000
     24 H3          1.4682    4.1951    5.0281 H         1 <0>         0.0000
     25 H4         -0.4162    4.9754    1.2403 H         1 <0>         0.0000
     26 H5          2.0882   -0.7020    3.5662 H         1 <0>         0.0000
     27 H6         -0.1399   -0.1340   -0.0651 H         1 <0>         0.0000
     28 H7          0.8500    1.7895    4.8355 H         1 <0>         0.0000
     29 H8         -1.0294    2.5711    1.0499 H         1 <0>         0.0000
     30 H9          4.9100   -2.3698    0.1869 H         1 <0>         0.0000
     31 H10         3.9214   -2.4588   -1.2655 H         1 <0>         0.0000
     32 H11         0.3446    6.8085    2.5731 H         1 <0>         0.0000
     33 H12         0.8232    6.5850    4.2512 H         1 <0>         0.0000
     34 H13         5.3124    0.0954   -0.2970 H         1 <0>         0.0000
     35 H14         6.0034   -1.0350   -1.4748 H         1 <0>         0.0000
     36 H15         2.6494    6.0013    1.8594 H         1 <0>         0.0000
     37 H16         2.6203    7.5369    2.7445 H         1 <0>         0.0000
     38 H17         4.2470   -0.4814   -2.8449 H         1 <0>         0.0000
     39 H18         3.3438    6.3507    4.5714 H         1 <0>         0.0000
@<TRIPOS>BOND
     1    1    5 ar
     2    1    9 ar
     3    1   22 1
     4    2    6 ar
     5    2    9 ar
     6    2   23 1
     7    3    7 ar
     8    3   10 ar
     9    3   24 1
    10    4    8 ar
    11    4   10 ar
    12    4   25 1
    13    5   11 ar
    14    5   26 1
    15    6   11 ar
    16    6   27 1
    17    7   12 ar
    18    7   28 1
    19    8   12 ar
    20    8   29 1
    21    9   13 1
    22   10   14 1
    23   11   21 1
    24   12   21 1
    25   13   15 1
    26   13   30 1
    27   13   31 1
    28   14   16 1
    29   14   32 1
    30   14   33 1
    31   15   19 1
    32   15   34 1
    33   15   35 1
    34   16   20 1
    35   16   36 1
    36   16   37 1
    37   17   21 2
    38   18   21 2
    39   19   38 1
    40   20   39 1
