@<TRIPOS>MOLECULE
*****
   57    60     0     0     0
SMALL
NO_CHARGES

@<TRIPOS>ATOM
      1 C1          1.9311   -0.0974   -2.2469 C.ar      1 <0>         0.0000
      2 C2         -0.3678   -0.8609   -2.4299 C.ar      1 <0>         0.0000
      3 C3          0.0504   -9.2787    7.7939 C.ar      1 <0>         0.0000
      4 C4          0.3698   -8.2354    6.9084 C.ar      1 <0>         0.0000
      5 C5          1.8702    0.4153   -3.5404 C.ar      1 <0>         0.0000
      6 C6         -0.4473   -0.3477   -3.7177 C.ar      1 <0>         0.0000
      7 C7          0.5560   -6.6987    8.7922 C.ar      1 <0>         0.0000
      8 C8          0.8176   -0.7432   -1.6733 C.ar      1 <0>         0.0000
      9 C9         -0.0104   -9.0354    9.1610 C.ar      1 <0>         0.0000
     10 C10         0.2443   -7.7430    9.6545 C.ar      1 <0>         0.0000
     11 C11         0.6189   -6.9555    7.4150 C.ar      1 <0>         0.0000
     12 C12         0.6786    0.2826   -4.2521 C.ar      1 <0>         0.0000
     13 C13         0.8245   -1.3288   -0.3138 C.2       1 <0>         0.0000
     14 C14        -0.3453   -9.9782   10.2986 C.3       1 <0>         0.0000
     15 C15         0.0998   -7.7190   11.1619 C.3       1 <0>         0.0000
     16 C16         0.1768   -9.2186   11.5442 C.3       1 <0>         0.0000
     17 C17         2.9341   -2.4955    0.3845 C.3       1 <0>         0.0000
     18 C18         1.7421   -1.0471    2.0581 C.3       1 <0>         0.0000
     19 C19         2.2721   -3.7228    1.0016 C.3       1 <0>         0.0000
     20 C20         1.1465   -2.2856    2.7226 C.3       1 <0>         0.0000
     21 C21         2.0773   -1.2227    0.5654 C.3       1 <0>         0.0000
     22 C22         1.3694   -4.6898    4.6330 C.3       1 <0>         0.0000
     23 C23         1.4273   -4.7636    3.1114 C.3       1 <0>         0.0000
     24 C24         1.0159   -6.0537    5.2283 C.3       1 <0>         0.0000
     25 N1          2.0067   -3.5140    2.4803 N.4       1 <0>         0.0000
     26 O1         -0.1466   -1.9575    0.1166 O.2       1 <0>         0.0000
     27 O2          0.9456   -5.8606    6.6245 O.3       1 <0>         0.0000
     28 F1          0.6115    0.7800   -5.4977 F         1 <0>         0.0000
     29 H1          2.8617    0.0123   -1.7005 H         1 <0>         0.0000
     30 H2         -1.2218   -1.3592   -1.9834 H         1 <0>         0.0000
     31 H3         -0.1407  -10.2729    7.3967 H         1 <0>         0.0000
     32 H4          0.4228   -8.4440    5.8454 H         1 <0>         0.0000
     33 H5          2.7179    0.9138   -3.9995 H         1 <0>         0.0000
     34 H6         -1.3530   -0.4236   -4.3111 H         1 <0>         0.0000
     35 H7          0.7586   -5.6936    9.1533 H         1 <0>         0.0000
     36 H8         -1.4320  -10.1249   10.3581 H         1 <0>         0.0000
     37 H9          0.1064  -10.9684   10.1850 H         1 <0>         0.0000
     38 H10         0.8626   -7.1111   11.6579 H         1 <0>         0.0000
     39 H11        -0.8765   -7.2956   11.4332 H         1 <0>         0.0000
     40 H12        -0.3847   -9.4539   12.4519 H         1 <0>         0.0000
     41 H13         1.2225   -9.4917   11.7208 H         1 <0>         0.0000
     42 H14         3.9203   -2.3373    0.8395 H         1 <0>         0.0000
     43 H15         3.1106   -2.7065   -0.6745 H         1 <0>         0.0000
     44 H16         1.0274   -0.2316    2.1996 H         1 <0>         0.0000
     45 H17         2.6580   -0.7533    2.5863 H         1 <0>         0.0000
     46 H18         1.3039   -3.9337    0.5456 H         1 <0>         0.0000
     47 H19         2.9095   -4.6053    0.9154 H         1 <0>         0.0000
     48 H20         1.0800   -2.1518    3.8021 H         1 <0>         0.0000
     49 H21         0.1647   -2.5181    2.3144 H         1 <0>         0.0000
     50 H22         2.6762   -0.3635    0.2620 H         1 <0>         0.0000
     51 H23         0.6193   -3.9706    4.9702 H         1 <0>         0.0000
     52 H24         2.3388   -4.3774    5.0410 H         1 <0>         0.0000
     53 H25         0.4388   -4.8996    2.6669 H         1 <0>         0.0000
     54 H26         2.0649   -5.5903    2.7863 H         1 <0>         0.0000
     55 H27         1.7847   -6.7976    4.9722 H         1 <0>         0.0000
     56 H28         0.0536   -6.4087    4.8311 H         1 <0>         0.0000
     57 H29         2.9138   -3.3429    2.9290 H         1 <0>         0.0000
@<TRIPOS>BOND
     1    1    5 ar
     2    1    8 ar
     3    1   29 1
     4    2    6 ar
     5    2    8 ar
     6    2   30 1
     7    3    4 ar
     8    3    9 ar
     9    3   31 1
    10    4   11 ar
    11    4   32 1
    12    5   12 ar
    13    5   33 1
    14    6   12 ar
    15    6   34 1
    16    7   10 ar
    17    7   11 ar
    18    7   35 1
    19    8   13 1
    20    9   10 ar
    21    9   14 1
    22   10   15 1
    23   11   27 1
    24   12   28 1
    25   13   21 1
    26   13   26 2
    27   14   16 1
    28   14   36 1
    29   14   37 1
    30   15   16 1
    31   15   38 1
    32   15   39 1
    33   16   40 1
    34   16   41 1
    35   17   19 1
    36   17   21 1
    37   17   42 1
    38   17   43 1
    39   18   20 1
    40   18   21 1
    41   18   44 1
    42   18   45 1
    43   19   25 1
    44   19   46 1
    45   19   47 1
    46   20   25 1
    47   20   48 1
    48   20   49 1
    49   21   50 1
    50   22   23 1
    51   22   24 1
    52   22   51 1
    53   22   52 1
    54   23   25 1
    55   23   53 1
    56   23   54 1
    57   24   27 1
    58   24   55 1
    59   24   56 1
    60   25   57 1
