@<TRIPOS>MOLECULE
*****
   30    31     0     0     0
SMALL
NO_CHARGES

@<TRIPOS>ATOM
      1 C1          4.9071    0.0182   -1.2826 C.ar      1 <0>         0.0000
      2 C2          1.5657   -2.2182    2.1343 C.ar      1 <0>         0.0000
      3 C3          1.2623   -0.6530    0.2937 C.ar      1 <0>         0.0000
      4 C4          5.3739    1.3221   -1.1702 C.ar      1 <0>         0.0000
      5 C5          0.5669   -1.5674    2.8566 C.ar      1 <0>         0.0000
      6 C6          0.2434   -0.0201    0.9996 C.ar      1 <0>         0.0000
      7 C7          4.2793    0.0199    1.0606 C.ar      1 <0>         0.0000
      8 C8          1.9379   -1.7416    0.8699 C.ar      1 <0>         0.0000
      9 C9          4.3178   -0.6279   -0.1843 C.ar      1 <0>         0.0000
     10 C10         5.3215    1.9890    0.0623 C.ar      1 <0>         0.0000
     11 C11        -0.0868   -0.4769    2.2787 C.ar      1 <0>         0.0000
     12 C12         4.7875    1.3073    1.1729 C.ar      1 <0>         0.0000
     13 N1          2.9042   -2.4975    0.1307 N.2       1 <0>         0.0000
     14 N2          3.9151   -1.9833   -0.4038 N.2       1 <0>         0.0000
     15 N3         -2.7860   -0.4869    2.7177 N.pl3     1 <0>         0.0000
     16 O1         -1.1788    0.0671    4.6160 O.2       1 <0>         0.0000
     17 O2         -1.5093    1.7113    2.6629 O.2       1 <0>         0.0000
     18 O3          5.8106    3.2537    0.1290 O.3       1 <0>         0.0000
     19 S1         -1.3859    0.3501    3.1926 S.o2      1 <0>         0.0000
     20 Cl1         4.7684    2.1248    2.7313 Cl        1 <0>         0.0000
     21 H1          4.9780   -0.5165   -2.2251 H         1 <0>         0.0000
     22 H2          2.0774   -3.0828    2.5472 H         1 <0>         0.0000
     23 H3          1.5418   -0.3037   -0.6951 H         1 <0>         0.0000
     24 H4          5.8076    1.8434   -2.0179 H         1 <0>         0.0000
     25 H5          0.2991   -1.8940    3.8563 H         1 <0>         0.0000
     26 H6         -0.2758    0.8349    0.5783 H         1 <0>         0.0000
     27 H7          3.8780   -0.4704    1.9389 H         1 <0>         0.0000
     28 H8         -3.2044   -0.9371    3.5308 H         1 <0>         0.0000
     29 H9         -3.4374    0.1659    2.2835 H         1 <0>         0.0000
     30 H10         5.7195    3.5855    1.0407 H         1 <0>         0.0000
@<TRIPOS>BOND
     1    1    4 ar
     2    1    9 ar
     3    1   21 1
     4    2    5 ar
     5    2    8 ar
     6    2   22 1
     7    3    6 ar
     8    3    8 ar
     9    3   23 1
    10    4   10 ar
    11    4   24 1
    12    5   11 ar
    13    5   25 1
    14    6   11 ar
    15    6   26 1
    16    7    9 ar
    17    7   12 ar
    18    7   27 1
    19    8   13 1
    20    9   14 1
    21   10   12 ar
    22   10   18 1
    23   11   19 1
    24   12   20 1
    25   13   14 2
    26   15   19 1
    27   15   28 1
    28   15   29 1
    29   16   19 2
    30   17   19 2
    31   18   30 1
