@<TRIPOS>MOLECULE
*****
   29    30     0     0     0
SMALL
NO_CHARGES

@<TRIPOS>ATOM
      1 C1         -1.6602    2.3417   -1.5286 C.ar      1 <0>         0.0000
      2 C2         -2.3582    1.1766   -1.2109 C.ar      1 <0>         0.0000
      3 C3         -0.3111    2.4596   -1.1944 C.ar      1 <0>         0.0000
      4 C4         -1.7072    0.1293   -0.5591 C.ar      1 <0>         0.0000
      5 C5          0.3400    1.4123   -0.5425 C.ar      1 <0>         0.0000
      6 C6         -0.3581    0.2471   -0.2249 C.ar      1 <0>         0.0000
      7 C7          0.9063   -0.5088    1.8118 C.2       1 <0>         0.0000
      8 C8         -0.1855   -2.2684    0.3088 C.3       1 <0>         0.0000
      9 C9          1.1003   -1.8747   -0.3427 C.3       1 <0>         0.0000
     10 C10         0.3300   -0.8609    0.4633 C.3       1 <0>         0.0000
     11 C11         0.5023   -0.3903    4.2753 C.3       1 <0>         0.0000
     12 C12        -1.2922   -1.1962    2.7890 C.3       1 <0>         0.0000
     13 N1          0.0724   -0.6909    2.9157 N.am      1 <0>         0.0000
     14 O1          2.0630   -0.0846    1.8799 O.2       1 <0>         0.0000
     15 H1         -2.1671    3.1573   -2.0359 H         1 <0>         0.0000
     16 H2         -3.4088    1.0850   -1.4715 H         1 <0>         0.0000
     17 H3          0.2327    3.3668   -1.4414 H         1 <0>         0.0000
     18 H4         -2.2601   -0.7746   -0.3167 H         1 <0>         0.0000
     19 H5          1.3913    1.5133   -0.2869 H         1 <0>         0.0000
     20 H6         -1.0459   -2.4259   -0.3315 H         1 <0>         0.0000
     21 H7         -0.1351   -2.9518    1.1489 H         1 <0>         0.0000
     22 H8          2.0163   -2.2932    0.0586 H         1 <0>         0.0000
     23 H9          1.1052   -1.7667   -1.4214 H         1 <0>         0.0000
     24 H10         0.2608    0.6560    4.5139 H         1 <0>         0.0000
     25 H11        -0.0176   -1.0562    4.9798 H         1 <0>         0.0000
     26 H12         1.5882   -0.5441    4.3589 H         1 <0>         0.0000
     27 H13        -1.2855   -2.2938    2.8611 H         1 <0>         0.0000
     28 H14        -1.9137   -0.7797    3.5953 H         1 <0>         0.0000
     29 H15        -1.7055   -0.8955    1.8149 H         1 <0>         0.0000
@<TRIPOS>BOND
     1    1    3 ar
     2    1    2 ar
     3    1   15 1
     4    2    4 ar
     5    2   16 1
     6    3    5 ar
     7    3   17 1
     8    4    6 ar
     9    4   18 1
    10    5    6 ar
    11    5   19 1
    12    6   10 1
    13    7   10 1
    14    7   13 am
    15    7   14 2
    16    8    9 1
    17    8   10 1
    18    8   20 1
    19    8   21 1
    20    9   10 1
    21    9   22 1
    22    9   23 1
    23   11   13 1
    24   11   24 1
    25   11   25 1
    26   11   26 1
    27   12   13 1
    28   12   27 1
    29   12   28 1
    30   12   29 1
