@<TRIPOS>MOLECULE
*****
   32    33     0     0     0
SMALL
NO_CHARGES

@<TRIPOS>ATOM
      1 C1         -0.1777    0.6119   -6.8561 C.ar      1 <0>         0.0000
      2 C2          2.2344    0.4735   -6.8596 C.ar      1 <0>         0.0000
      3 C3         -0.1380    1.2728   -5.6284 C.ar      1 <0>         0.0000
      4 C4          2.2741    1.1345   -5.6319 C.ar      1 <0>         0.0000
      5 C5          1.0085    0.2122   -7.4717 C.ar      1 <0>         0.0000
      6 C6          1.0879    1.5342   -5.0163 C.ar      1 <0>         0.0000
      7 C7          1.0916    1.4518   -1.1203 C.2       1 <0>         0.0000
      8 C8          1.0312    0.3587   -0.0776 C.3       1 <0>         0.0000
      9 C9          1.4636    1.1058    1.1850 C.3       1 <0>         0.0000
     10 C10         1.0372    2.5566    0.9530 C.3       1 <0>         0.0000
     11 C11         1.0130    3.9657   -1.1283 C.3       1 <0>         0.0000
     12 N1          1.0717    1.1525   -2.3746 N.2       1 <0>         0.0000
     13 N2          1.1345    2.6778   -0.4914 N.pl3     1 <0>         0.0000
     14 N3          0.9691   -0.4562   -8.7131 N.pl3     1 <0>         0.0000
     15 O1          2.4379    3.0207   -3.4139 O.2       1 <0>         0.0000
     16 O2         -0.0767    3.1606   -3.3617 O.2       1 <0>         0.0000
     17 S1          1.1394    2.3727   -3.4570 S.o2      1 <0>         0.0000
     18 H1         -1.1385    0.4130   -7.3239 H         1 <0>         0.0000
     19 H2          3.1648    0.1675   -7.3313 H         1 <0>         0.0000
     20 H3         -1.0683    1.5794   -5.1580 H         1 <0>         0.0000
     21 H4          3.2349    1.3326   -5.1641 H         1 <0>         0.0000
     22 H5         -0.0000   -0.0004   -0.0004 H         1 <0>         0.0000
     23 H6          1.6977   -0.4721   -0.3212 H         1 <0>         0.0000
     24 H7          1.0170    0.6800    2.0882 H         1 <0>         0.0000
     25 H8          2.5545    1.0524    1.2884 H         1 <0>         0.0000
     26 H9          0.0031    2.7184    1.2761 H         1 <0>         0.0000
     27 H10         1.6955    3.2558    1.4775 H         1 <0>         0.0000
     28 H11        -0.0363    4.2699   -1.1636 H         1 <0>         0.0000
     29 H12         1.4008    3.9205   -2.1496 H         1 <0>         0.0000
     30 H13         1.5788    4.7176   -0.5715 H         1 <0>         0.0000
     31 H14         0.0829   -0.6795   -9.1189 H         1 <0>         0.0000
     32 H15         1.8234   -0.7789   -9.1205 H         1 <0>         0.0000
@<TRIPOS>BOND
     1    1    3 ar
     2    1    5 ar
     3    1   18 1
     4    2    4 ar
     5    2    5 ar
     6    2   19 1
     7    3    6 ar
     8    3   20 1
     9    4    6 ar
    10    4   21 1
    11    5   14 1
    12    6   17 1
    13    7    8 1
    14    7   12 2
    15    7   13 1
    16    8    9 1
    17    8   22 1
    18    8   23 1
    19    9   10 1
    20    9   24 1
    21    9   25 1
    22   10   13 1
    23   10   26 1
    24   10   27 1
    25   11   13 1
    26   11   28 1
    27   11   29 1
    28   11   30 1
    29   12   17 1
    30   14   31 1
    31   14   32 1
    32   15   17 2
    33   16   17 2
