@<TRIPOS>MOLECULE
*****
   30    32     0     0     0
SMALL
NO_CHARGES

@<TRIPOS>ATOM
      1 C1         -0.0408    1.9189   -0.3047 C.2       1 <0>         0.0000
      2 C2         -1.3823    2.1592   -0.2698 C.2       1 <0>         0.0000
      3 C3          0.1054    0.5051   -0.0574 C.2       1 <0>         0.0000
      4 C4         -1.1563   -0.0000    0.1028 C.2       1 <0>         0.0000
      5 C5          3.1244   -0.8983   -1.6037 C.cat     1 <0>         0.0000
      6 C6         -1.5530   -1.4024    0.4074 C.3       1 <0>         0.0000
      7 C7         -0.3408   -2.3164    0.1409 C.3       1 <0>         0.0000
      8 C8          0.9633   -1.7171    0.6938 C.3       1 <0>         0.0000
      9 C9          5.2989   -1.6651   -1.4300 C.3       1 <0>         0.0000
     10 C10         4.9586   -1.2886   -2.8838 C.3       1 <0>         0.0000
     11 C11         1.3190   -0.3616    0.0445 C.3       1 <0>         0.0000
     12 N1          4.1139   -1.1320   -0.7332 N.pl3     1 <0>         0.0000
     13 N2          1.8873   -0.5467   -1.3310 N.pl3     1 <0>         0.0000
     14 O1         -2.0730    0.9958   -0.0204 O.3       1 <0>         0.0000
     15 O2          3.5067   -1.0397   -2.8636 O.3       1 <0>         0.0000
     16 H1          0.7351    2.6550   -0.4714 H         1 <0>         0.0000
     17 H2         -1.9862    3.0466   -0.3910 H         1 <0>         0.0000
     18 H3         -1.8688   -1.4800    1.4558 H         1 <0>         0.0000
     19 H4         -2.4100   -1.7060   -0.2017 H         1 <0>         0.0000
     20 H5         -0.5096   -3.2967    0.5943 H         1 <0>         0.0000
     21 H6         -0.2384   -2.4830   -0.9382 H         1 <0>         0.0000
     22 H7          0.8654   -1.5461    1.7718 H         1 <0>         0.0000
     23 H8          1.7866   -2.4284    0.5579 H         1 <0>         0.0000
     24 H9          5.3793   -2.7454   -1.2806 H         1 <0>         0.0000
     25 H10         6.2090   -1.1776   -1.0781 H         1 <0>         0.0000
     26 H11         5.4343   -0.3621   -3.2080 H         1 <0>         0.0000
     27 H12         5.1366   -2.0832   -3.6054 H         1 <0>         0.0000
     28 H13         2.0969    0.1457    0.6276 H         1 <0>         0.0000
     29 H14         3.9630   -1.2268    0.2633 H         1 <0>         0.0000
     30 H15         1.2821   -0.3545   -2.1246 H         1 <0>         0.0000
@<TRIPOS>BOND
     1    1    2 2
     2    1    3 1
     3    1   16 1
     4    2   14 1
     5    2   17 1
     6    3    4 2
     7    3   11 1
     8    4    6 1
     9    4   14 1
    10    5   12 2
    11    5   13 1
    12    5   15 1
    13    6    7 1
    14    6   18 1
    15    6   19 1
    16    7    8 1
    17    7   20 1
    18    7   21 1
    19    8   11 1
    20    8   22 1
    21    8   23 1
    22    9   10 1
    23    9   12 1
    24    9   24 1
    25    9   25 1
    26   10   15 1
    27   10   26 1
    28   10   27 1
    29   11   13 1
    30   11   28 1
    31   12   29 1
    32   13   30 1
