@<TRIPOS>MOLECULE
*****
   30    32     0     0     0
SMALL
NO_CHARGES

@<TRIPOS>ATOM
      1 C1         -0.8632   -1.5830    0.4745 C.2       1 <0>         0.0000
      2 C2         -2.1227   -1.0595    0.4434 C.2       1 <0>         0.0000
      3 C3          0.0195   -0.4956    0.1214 C.2       1 <0>         0.0000
      4 C4         -0.7753    0.5952   -0.1111 C.2       1 <0>         0.0000
      5 C5          2.0260   -1.0028    2.3083 C.cat     1 <0>         0.0000
      6 C6         -0.3630    1.9466   -0.5853 C.3       1 <0>         0.0000
      7 C7          1.0693    1.8355   -1.1475 C.3       1 <0>         0.0000
      8 C8          1.9878    1.0195   -0.2228 C.3       1 <0>         0.0000
      9 C9          1.0214   -0.6115    4.3417 C.3       1 <0>         0.0000
     10 C10         2.4122   -1.2423    4.5300 C.3       1 <0>         0.0000
     11 C11         1.5068   -0.4419   -0.0790 C.3       1 <0>         0.0000
     12 N1          1.0661   -0.2903    2.9032 N.pl3     1 <0>         0.0000
     13 N2          2.2469   -1.1387    1.0136 N.pl3     1 <0>         0.0000
     14 O1         -2.0829    0.2667    0.0861 O.3       1 <0>         0.0000
     15 O2          2.8196   -1.6266    3.1663 O.3       1 <0>         0.0000
     16 H1         -0.6030   -2.6084    0.7042 H         1 <0>         0.0000
     17 H2         -3.1061   -1.4686    0.6252 H         1 <0>         0.0000
     18 H3         -1.0559    2.3059   -1.3522 H         1 <0>         0.0000
     19 H4         -0.4003    2.6737    0.2364 H         1 <0>         0.0000
     20 H5          1.0336    1.3633   -2.1358 H         1 <0>         0.0000
     21 H6          1.4924    2.8336   -1.2876 H         1 <0>         0.0000
     22 H7          3.0139    1.0254   -0.6024 H         1 <0>         0.0000
     23 H8          2.0105    1.4852    0.7701 H         1 <0>         0.0000
     24 H9          0.2073   -1.3109    4.5526 H         1 <0>         0.0000
     25 H10         0.8914    0.2924    4.9379 H         1 <0>         0.0000
     26 H11         3.1578   -0.5345    4.8945 H         1 <0>         0.0000
     27 H12         2.4175   -2.1483    5.1325 H         1 <0>         0.0000
     28 H13         1.7736   -1.0080   -0.9771 H         1 <0>         0.0000
     29 H14         0.2599    0.0259    2.3686 H         1 <0>         0.0000
     30 H15         3.0826   -1.6630    0.7726 H         1 <0>         0.0000
@<TRIPOS>BOND
     1    1    2 2
     2    1    3 1
     3    1   16 1
     4    2   14 1
     5    2   17 1
     6    3    4 2
     7    3   11 1
     8    4    6 1
     9    4   14 1
    10    5   12 2
    11    5   13 1
    12    5   15 1
    13    6    7 1
    14    6   18 1
    15    6   19 1
    16    7    8 1
    17    7   20 1
    18    7   21 1
    19    8   11 1
    20    8   22 1
    21    8   23 1
    22    9   10 1
    23    9   12 1
    24    9   24 1
    25    9   25 1
    26   10   15 1
    27   10   26 1
    28   10   27 1
    29   11   13 1
    30   11   28 1
    31   12   29 1
    32   13   30 1
