@<TRIPOS>MOLECULE
*****
   29    31     0     0     0
SMALL
NO_CHARGES

@<TRIPOS>ATOM
      1 C1          0.1411    1.8381   -0.6313 C.2       1 <0>         0.0000
      2 C2         -1.1841    2.1511   -0.5443 C.2       1 <0>         0.0000
      3 C3          0.2439    0.4432   -0.2796 C.2       1 <0>         0.0000
      4 C4         -1.0261    0.0180   -0.0157 C.2       1 <0>         0.0000
      5 C5          3.1778   -1.1767   -1.7745 C.2       1 <0>         0.0000
      6 C6         -1.4661   -1.3408    0.4079 C.3       1 <0>         0.0000
      7 C7         -0.3021   -2.3232    0.1556 C.3       1 <0>         0.0000
      8 C8          1.0484   -1.7416    0.6007 C.3       1 <0>         0.0000
      9 C9          5.2615   -1.8798   -1.6332 C.3       1 <0>         0.0000
     10 C10         4.9285   -1.5932   -3.1217 C.3       1 <0>         0.0000
     11 C11         1.4302   -0.4730   -0.1916 C.3       1 <0>         0.0000
     12 N1          4.0656   -1.4603   -0.8911 N.2       1 <0>         0.0000
     13 N2          1.8843   -0.8109   -1.5532 N.pl3     1 <0>         0.0000
     14 O1         -1.9155    1.0487   -0.1661 O.3       1 <0>         0.0000
     15 O2          3.5121   -1.2687   -3.1062 O.3       1 <0>         0.0000
     16 H1          0.9431    2.5139   -0.9005 H         1 <0>         0.0000
     17 H2         -1.7509    3.0568   -0.7048 H         1 <0>         0.0000
     18 H3         -1.7340   -1.3321    1.4736 H         1 <0>         0.0000
     19 H4         -2.3644   -1.6472   -0.1397 H         1 <0>         0.0000
     20 H5         -0.4968   -3.2647    0.6792 H         1 <0>         0.0000
     21 H6         -0.2508   -2.5563   -0.9143 H         1 <0>         0.0000
     22 H7          1.0077   -1.4795    1.6657 H         1 <0>         0.0000
     23 H8          1.8484   -2.4762    0.4798 H         1 <0>         0.0000
     24 H9          5.4618   -2.9443   -1.4573 H         1 <0>         0.0000
     25 H10         6.1412   -1.3208   -1.2970 H         1 <0>         0.0000
     26 H11         5.4663   -0.7288   -3.5235 H         1 <0>         0.0000
     27 H12         5.0695   -2.4486   -3.7861 H         1 <0>         0.0000
     28 H13         2.2621    0.0208    0.3232 H         1 <0>         0.0000
     29 H14         1.4137   -0.3653   -2.3295 H         1 <0>         0.0000
@<TRIPOS>BOND
     1    1    2 2
     2    1    3 1
     3    1   16 1
     4    2   14 1
     5    2   17 1
     6    3    4 2
     7    3   11 1
     8    4    6 1
     9    4   14 1
    10    5   12 2
    11    5   13 1
    12    5   15 1
    13    6    7 1
    14    6   18 1
    15    6   19 1
    16    7    8 1
    17    7   20 1
    18    7   21 1
    19    8   11 1
    20    8   22 1
    21    8   23 1
    22    9   10 1
    23    9   12 1
    24    9   24 1
    25    9   25 1
    26   10   15 1
    27   10   26 1
    28   10   27 1
    29   11   13 1
    30   11   28 1
    31   13   29 1
