@<TRIPOS>MOLECULE
*****
   30    32     0     0     0
SMALL
NO_CHARGES

@<TRIPOS>ATOM
      1 C1         -0.0636    1.6399    0.1582 C.2       1 <0>         0.0000
      2 C2         -1.3915    1.7342    0.4538 C.2       1 <0>         0.0000
      3 C3          0.2698    0.2454    0.3098 C.2       1 <0>         0.0000
      4 C4         -0.8777   -0.3963    0.6810 C.2       1 <0>         0.0000
      5 C5          1.3056   -0.5412   -2.3975 C.cat     1 <0>         0.0000
      6 C6         -1.0718   -1.8445    0.9663 C.3       1 <0>         0.0000
      7 C7          0.1420   -2.6201    0.4148 C.3       1 <0>         0.0000
      8 C8          1.4690   -1.9108    0.7311 C.3       1 <0>         0.0000
      9 C9          0.7032   -0.6687   -4.6310 C.3       1 <0>         0.0000
     10 C10        -0.5336   -0.5812   -3.7226 C.3       1 <0>         0.0000
     11 C11         1.5587   -0.4866    0.1454 C.3       1 <0>         0.0000
     12 N1          1.7587   -0.3651   -3.6499 N.pl3     1 <0>         0.0000
     13 N2          2.0306   -0.5009   -1.2960 N.pl3     1 <0>         0.0000
     14 O1         -1.9004    0.4965    0.7759 O.3       1 <0>         0.0000
     15 O2          0.0061   -0.7672   -2.3649 O.3       1 <0>         0.0000
     16 H1          0.5900    2.4614   -0.1068 H         1 <0>         0.0000
     17 H2         -2.0908    2.5562    0.5014 H         1 <0>         0.0000
     18 H3         -1.1656   -2.0009    2.0487 H         1 <0>         0.0000
     19 H4         -2.0024   -2.2064    0.5173 H         1 <0>         0.0000
     20 H5          0.1616   -3.6261    0.8427 H         1 <0>         0.0000
     21 H6          0.0346   -2.7402   -0.6684 H         1 <0>         0.0000
     22 H7          1.5800   -1.8129    1.8169 H         1 <0>         0.0000
     23 H8          2.3177   -2.5066    0.3797 H         1 <0>         0.0000
     24 H9          0.8454   -1.6643   -5.0612 H         1 <0>         0.0000
     25 H10         0.6856    0.0768   -5.4270 H         1 <0>         0.0000
     26 H11        -1.0105    0.3998   -3.7397 H         1 <0>         0.0000
     27 H12        -1.2671   -1.3684   -3.8828 H         1 <0>         0.0000
     28 H13         2.3680    0.0535    0.6460 H         1 <0>         0.0000
     29 H14         2.7397   -0.2797   -3.8874 H         1 <0>         0.0000
     30 H15         3.0333   -0.4219   -1.4296 H         1 <0>         0.0000
@<TRIPOS>BOND
     1    1    2 2
     2    1    3 1
     3    1   16 1
     4    2   14 1
     5    2   17 1
     6    3    4 2
     7    3   11 1
     8    4    6 1
     9    4   14 1
    10    5   12 2
    11    5   13 1
    12    5   15 1
    13    6    7 1
    14    6   18 1
    15    6   19 1
    16    7    8 1
    17    7   20 1
    18    7   21 1
    19    8   11 1
    20    8   22 1
    21    8   23 1
    22    9   10 1
    23    9   12 1
    24    9   24 1
    25    9   25 1
    26   10   15 1
    27   10   26 1
    28   10   27 1
    29   11   13 1
    30   11   28 1
    31   12   29 1
    32   13   30 1
