@<TRIPOS>MOLECULE
*****
   24    26     0     0     0
SMALL
NO_CHARGES

@<TRIPOS>ATOM
      1 C1          0.6015   -0.7068    0.8744 C.ar      1 <0>         0.0000
      2 C2          1.8015   -0.3818    1.4942 C.ar      1 <0>         0.0000
      3 C3          6.7832    0.4695    6.4217 C.2       1 <0>         0.0000
      4 C4         -0.4129   -1.2609    1.6670 C.ar      1 <0>         0.0000
      5 C5          7.2164    0.3593    7.7137 C.2       1 <0>         0.0000
      6 C6          4.8921   -0.4689    7.4327 C.2       1 <0>         0.0000
      7 C7          1.9486   -0.6177    2.8696 C.ar      1 <0>         0.0000
      8 C8          5.4387   -0.0086    6.2546 C.2       1 <0>         0.0000
      9 C9          0.8481   -1.1866    3.5776 C.ar      1 <0>         0.0000
     10 C10         4.7206   -0.0127    4.9870 C.2       1 <0>         0.0000
     11 C11         3.1762   -0.2988    3.5669 C.2       1 <0>         0.0000
     12 N1         -0.3019   -1.4966    2.9768 N.ar      1 <0>         0.0000
     13 N2          3.4244   -0.4757    4.8460 N.2       1 <0>         0.0000
     14 N3          5.2514    0.4274    3.8643 N.2       1 <0>         0.0000
     15 O1          4.2208    0.2378    2.9107 O.3       1 <0>         0.0000
     16 O2          0.8983   -1.4465    4.8926 O.3       1 <0>         0.0000
     17 S1          5.9986   -0.3265    8.7470 S.3       1 <0>         0.0000
     18 H1          0.4463   -0.5406   -0.1865 H         1 <0>         0.0000
     19 H2          2.6264    0.0506    0.9357 H         1 <0>         0.0000
     20 H3          7.3812    0.8709    5.6115 H         1 <0>         0.0000
     21 H4         -1.3694   -1.5301    1.2208 H         1 <0>         0.0000
     22 H5          8.1785    0.6397    8.1228 H         1 <0>         0.0000
     23 H6          3.9023   -0.8790    7.5825 H         1 <0>         0.0000
     24 H7          1.7850   -1.1833    5.2420 H         1 <0>         0.0000
@<TRIPOS>BOND
     1    1    2 ar
     2    1    4 ar
     3    1   18 1
     4    2    7 ar
     5    2   19 1
     6    3    5 2
     7    3    8 1
     8    3   20 1
     9    4   12 ar
    10    4   21 1
    11    5   17 1
    12    5   22 1
    13    6    8 2
    14    6   17 1
    15    6   23 1
    16    7    9 ar
    17    7   11 1
    18    8   10 1
    19    9   12 ar
    20    9   16 1
    21   10   13 1
    22   10   14 2
    23   11   13 2
    24   11   15 1
    25   14   15 1
    26   16   24 1
