@<TRIPOS>MOLECULE
*****
    8     7     0     0     0
SMALL
NO_CHARGES

@<TRIPOS>ATOM
      1 C1         -6.3655    0.0359    5.3221 C.3       1 <0>         0.0000
      2 C2         -5.5413    0.7594    4.2001 C.3       1 <0>         0.0000
      3 F1         -5.4943   -0.5122    6.1924 F         1 <0>         0.0000
      4 F2         -7.0838    0.9598    5.9865 F         1 <0>         0.0000
      5 F3         -4.7682    1.6754    4.8349 F         1 <0>         0.0000
      6 Cl1        -4.4863   -0.3823    3.3461 Cl        1 <0>         0.0000
      7 Br1        -7.5610   -1.3555    4.6502 Br        1 <0>         0.0000
      8 Br2        -6.7276    1.7139    2.9664 Br        1 <0>         0.0000
@<TRIPOS>BOND
     1    1    2 1
     2    1    3 1
     3    1    4 1
     4    1    7 1
     5    2    5 1
     6    2    6 1
     7    2    8 1
