@<TRIPOS>MOLECULE
*****
   20    21     0     0     0
SMALL
NO_CHARGES

@<TRIPOS>ATOM
      1 C1          3.3773   -1.6697    0.9512 C.2       1 <0>         0.0000
      2 C2          3.8902   -2.1736   -0.2006 C.2       1 <0>         0.0000
      3 C3          1.6254   -1.2412   -0.4836 C.2       1 <0>         0.0000
      4 C4         -0.5944    1.0532    0.0007 C.2       1 <0>         0.0000
      5 C5          0.3527    0.8730   -1.2013 C.3       1 <0>         0.0000
      6 C6          0.2854   -0.6670   -0.8616 C.3       1 <0>         0.0000
      7 C7         -0.4603   -1.5252   -1.8814 C.3       1 <0>         0.0000
      8 N1          2.1060   -1.1559    0.7566 N.pl3     1 <0>         0.0000
      9 N2         -0.4651   -0.3103    0.3664 N.am      1 <0>         0.0000
     10 O1         -1.2375    1.9472    0.4724 O.2       1 <0>         0.0000
     11 S1          2.7605   -1.9976   -1.5112 S.3       1 <0>         0.0000
     12 H1          3.8339   -1.6422    1.9322 H         1 <0>         0.0000
     13 H2          4.8536   -2.6424   -0.3531 H         1 <0>         0.0000
     14 H3         -0.0901    1.1374   -2.1629 H         1 <0>         0.0000
     15 H4          1.3271    1.3542   -1.0957 H         1 <0>         0.0000
     16 H5         -1.4176   -1.0554   -2.1194 H         1 <0>         0.0000
     17 H6         -0.6510   -2.5295   -1.4921 H         1 <0>         0.0000
     18 H7          0.1080   -1.6157   -2.8126 H         1 <0>         0.0000
     19 H8          1.5200   -0.7355    1.4835 H         1 <0>         0.0000
     20 H9         -1.2203   -0.8686    0.7655 H         1 <0>         0.0000
@<TRIPOS>BOND
     1    1    2 2
     2    1    8 1
     3    1   12 1
     4    2   11 1
     5    2   13 1
     6    3    6 1
     7    3    8 2
     8    3   11 1
     9    4    5 1
    10    4    9 am
    11    4   10 2
    12    5    6 1
    13    5   14 1
    14    5   15 1
    15    6    7 1
    16    6    9 1
    17    7   16 1
    18    7   17 1
    19    7   18 1
    20    8   19 1
    21    9   20 1
