@<TRIPOS>MOLECULE
*****
   27    28     0     0     0
SMALL
NO_CHARGES

@<TRIPOS>ATOM
      1 C1         -0.4711   -1.1906   -3.0153 C.2       1 <0>         0.0000
      2 C2         -3.3943   -1.9193   -4.3294 C.3       1 <0>         0.0000
      3 C3         -3.7333   -2.9784   -3.3000 C.3       1 <0>         0.0000
      4 C4          0.6350   -0.1005    0.5055 C.3       1 <0>         0.0000
      5 C5         -0.2856   -2.1532    1.2787 C.3       1 <0>         0.0000
      6 C6         -2.2926   -2.6893   -3.6467 C.3       1 <0>         0.0000
      7 C7          0.0080   -0.7115    1.7607 C.3       1 <0>         0.0000
      8 C8          0.3889   -0.6347   -1.8765 C.3       1 <0>         0.0000
      9 N1         -0.1840   -0.7295   -0.5385 N.3       1 <0>         0.0000
     10 N2         -1.4927   -2.0192   -2.6588 N.am      1 <0>         0.0000
     11 O1         -0.2095   -0.8792   -4.1756 O.2       1 <0>         0.0000
     12 O2         -0.0846   -2.1535   -0.1477 O.3       1 <0>         0.0000
     13 O3         -1.1723   -0.0219    2.1586 O.3       1 <0>         0.0000
     14 H1         -3.5781   -2.1308   -5.3778 H         1 <0>         0.0000
     15 H2         -3.5108   -0.8799   -4.0418 H         1 <0>         0.0000
     16 H3         -4.0914   -2.6396   -2.3319 H         1 <0>         0.0000
     17 H4         -4.1555   -3.9204   -3.6369 H         1 <0>         0.0000
     18 H5          0.5152    0.9845    0.4786 H         1 <0>         0.0000
     19 H6          1.6987   -0.3699    0.4079 H         1 <0>         0.0000
     20 H7          0.4007   -2.8962    1.6927 H         1 <0>         0.0000
     21 H8         -1.3179   -2.4237    1.5276 H         1 <0>         0.0000
     22 H9         -1.7599   -3.4209   -4.2508 H         1 <0>         0.0000
     23 H10         0.6743   -0.6848    2.6238 H         1 <0>         0.0000
     24 H11         1.3746   -1.1224   -1.9258 H         1 <0>         0.0000
     25 H12         0.5308    0.4274   -2.0905 H         1 <0>         0.0000
     26 H13        -1.4947   -2.3678   -1.7061 H         1 <0>         0.0000
     27 H14        -1.7335    0.0556    1.3670 H         1 <0>         0.0000
@<TRIPOS>BOND
     1    1    8 1
     2    1   10 am
     3    1   11 2
     4    2    3 1
     5    2    6 1
     6    2   14 1
     7    2   15 1
     8    3    6 1
     9    3   16 1
    10    3   17 1
    11    4    7 1
    12    4    9 1
    13    4   18 1
    14    4   19 1
    15    5    7 1
    16    5   12 1
    17    5   20 1
    18    5   21 1
    19    6   10 1
    20    6   22 1
    21    7   13 1
    22    7   23 1
    23    8    9 1
    24    8   24 1
    25    8   25 1
    26    9   12 1
    27   10   26 1
    28   13   27 1
