@<TRIPOS>MOLECULE
*****
   27    28     0     0     0
SMALL
NO_CHARGES

@<TRIPOS>ATOM
      1 C1         -1.1993   -3.4817   -1.2438 C.2       1 <0>         0.0000
      2 C2         -4.6511   -4.6865   -0.5399 C.3       1 <0>         0.0000
      3 C3         -3.6767   -5.6142   -1.2361 C.3       1 <0>         0.0000
      4 C4         -0.9493   -0.3155   -0.6363 C.3       1 <0>         0.0000
      5 C5          1.0019   -0.2216    0.7568 C.3       1 <0>         0.0000
      6 C6         -3.5638   -4.1222   -1.4232 C.3       1 <0>         0.0000
      7 C7          0.3824    0.4538   -0.4826 C.3       1 <0>         0.0000
      8 C8         -0.2021   -2.6444   -0.4339 C.3       1 <0>         0.0000
      9 N1         -0.8524   -1.5010    0.2254 N.3       1 <0>         0.0000
     10 N2         -2.4820   -3.4236   -0.7888 N.am      1 <0>         0.0000
     11 O1         -0.8252   -4.1672   -2.1925 O.2       1 <0>         0.0000
     12 O2         -0.0389   -1.0453    1.3247 O.3       1 <0>         0.0000
     13 O3          0.0603    1.8344   -0.3034 O.3       1 <0>         0.0000
     14 H1         -5.6736   -4.6330   -0.9012 H         1 <0>         0.0000
     15 H2         -4.5405   -4.5561    0.5330 H         1 <0>         0.0000
     16 H3         -2.9098   -6.0873   -0.6322 H         1 <0>         0.0000
     17 H4         -4.0237   -6.2008   -2.0807 H         1 <0>         0.0000
     18 H5         -1.7489    0.3329   -0.2700 H         1 <0>         0.0000
     19 H6         -1.1676   -0.6133   -1.6637 H         1 <0>         0.0000
     20 H7          1.8710   -0.8376    0.4910 H         1 <0>         0.0000
     21 H8          1.2851    0.5036    1.5229 H         1 <0>         0.0000
     22 H9         -3.8580   -3.7267   -2.3931 H         1 <0>         0.0000
     23 H10         1.0306    0.3304   -1.3588 H         1 <0>         0.0000
     24 H11         0.2023   -3.2832    0.3559 H         1 <0>         0.0000
     25 H12         0.6187   -2.3777   -1.1125 H         1 <0>         0.0000
     26 H13        -2.6676   -2.7455   -0.0560 H         1 <0>         0.0000
     27 H14         0.8795    2.3511   -0.3491 H         1 <0>         0.0000
@<TRIPOS>BOND
     1    1    8 1
     2    1   10 am
     3    1   11 2
     4    2    3 1
     5    2    6 1
     6    2   14 1
     7    2   15 1
     8    3    6 1
     9    3   16 1
    10    3   17 1
    11    4    7 1
    12    4    9 1
    13    4   18 1
    14    4   19 1
    15    5    7 1
    16    5   12 1
    17    5   20 1
    18    5   21 1
    19    6   10 1
    20    6   22 1
    21    7   13 1
    22    7   23 1
    23    8    9 1
    24    8   24 1
    25    8   25 1
    26    9   12 1
    27   10   26 1
    28   13   27 1
