@<TRIPOS>MOLECULE
*****
   25    25     0     0     0
SMALL
NO_CHARGES

@<TRIPOS>ATOM
      1 C1          4.7497    0.7163   -4.3478 C.2       1 <0>         0.0000
      2 C2          3.8319   -0.0241   -3.6575 C.2       1 <0>         0.0000
      3 C3          5.3762   -1.5909   -3.9097 C.2       1 <0>         0.0000
      4 C4          2.3601    0.4711   -1.6453 C.2       1 <0>         0.0000
      5 C5          3.4546    0.8900    0.4034 C.3       1 <0>         0.0000
      6 C6          8.3234   -3.3570   -5.0901 C.3       1 <0>         0.0000
      7 C7          2.4990    0.4548   -3.1629 C.3       1 <0>         0.0000
      8 N1          4.1952   -1.3396   -3.4229 N.2       1 <0>         0.0000
      9 N2          6.0245   -2.8216   -3.7264 N.pl3     1 <0>         0.0000
     10 O1          1.3279    0.2284   -1.0529 O.2       1 <0>         0.0000
     11 O2          6.3962   -5.1399   -4.6584 O.2       1 <0>         0.0000
     12 O3          5.9794   -3.2325   -6.3168 O.2       1 <0>         0.0000
     13 O4          3.5108    0.8321   -1.0375 O.3       1 <0>         0.0000
     14 S1          6.1616   -0.2381   -4.6977 S.3       1 <0>         0.0000
     15 S2          6.5680   -3.7513   -5.0848 S.o2      1 <0>         0.0000
     16 H1          4.6803    1.7447   -4.6767 H         1 <0>         0.0000
     17 H2          4.4553    1.1822    0.7209 H         1 <0>         0.0000
     18 H3          3.1897   -0.0882    0.8109 H         1 <0>         0.0000
     19 H4          2.7154    1.6266    0.7266 H         1 <0>         0.0000
     20 H5          8.7664   -3.9295   -5.9071 H         1 <0>         0.0000
     21 H6          8.4420   -2.2875   -5.2666 H         1 <0>         0.0000
     22 H7          8.7436   -3.6529   -4.1293 H         1 <0>         0.0000
     23 H8          2.3134    1.4741   -3.5168 H         1 <0>         0.0000
     24 H9          1.6942   -0.1785   -3.5428 H         1 <0>         0.0000
     25 H10         5.4771   -3.4356   -3.1208 H         1 <0>         0.0000
@<TRIPOS>BOND
     1    1    2 2
     2    1   14 1
     3    1   16 1
     4    2    7 1
     5    2    8 1
     6    3    8 2
     7    3    9 1
     8    3   14 1
     9    4    7 1
    10    4   10 2
    11    4   13 1
    12    5   13 1
    13    5   17 1
    14    5   18 1
    15    5   19 1
    16    6   15 1
    17    6   20 1
    18    6   21 1
    19    6   22 1
    20    7   23 1
    21    7   24 1
    22    9   15 1
    23    9   25 1
    24   11   15 2
    25   12   15 2
