@<TRIPOS>MOLECULE
*****
   24    24     0     0     0
SMALL
NO_CHARGES

@<TRIPOS>ATOM
      1 C1          4.0990    1.2763   -5.6890 C.2       1 <0>         0.0000
      2 C2          3.6333    0.3390   -4.8119 C.2       1 <0>         0.0000
      3 C3          5.8115   -0.1151   -4.5055 C.2       1 <0>         0.0000
      4 C4          1.3368    1.3043   -4.6199 C.2       1 <0>         0.0000
      5 C5          0.6091    3.2384   -3.4799 C.3       1 <0>         0.0000
      6 C6          8.2954   -1.5936   -6.1597 C.3       1 <0>         0.0000
      7 C7          2.1723    0.0529   -4.5157 C.3       1 <0>         0.0000
      8 N1          4.5678   -0.4287   -4.1604 N.2       1 <0>         0.0000
      9 N2          6.8835   -0.7487   -3.9922 N.2       1 <0>         0.0000
     10 O1          0.7843    1.7121   -5.6281 O.2       1 <0>         0.0000
     11 O2          9.3393   -1.2038   -3.7644 O.2       1 <0>         0.0000
     12 O3          8.6361    0.8081   -5.1307 O.2       1 <0>         0.0000
     13 O4          1.2776    1.9689   -3.4348 O.3       1 <0>         0.0000
     14 S1          5.8470    1.2637   -5.7090 S.3       1 <0>         0.0000
     15 S2          8.3451   -0.5696   -4.6521 S.o2      1 <0>         0.0000
     16 H1          3.5250    1.9531   -6.3093 H         1 <0>         0.0000
     17 H2          0.6695    3.6377   -2.4664 H         1 <0>         0.0000
     18 H3         -0.4347    3.1179   -3.7842 H         1 <0>         0.0000
     19 H4          1.1092    3.9087   -4.1843 H         1 <0>         0.0000
     20 H5          9.2679   -1.5111   -6.6505 H         1 <0>         0.0000
     21 H6          8.0954   -2.6240   -5.8614 H         1 <0>         0.0000
     22 H7          7.5051   -1.2152   -6.8119 H         1 <0>         0.0000
     23 H8          1.7706   -0.6830   -5.2197 H         1 <0>         0.0000
     24 H9          2.1099   -0.3539   -3.5045 H         1 <0>         0.0000
@<TRIPOS>BOND
     1    1    2 2
     2    1   14 1
     3    1   16 1
     4    2    7 1
     5    2    8 1
     6    3    8 2
     7    3    9 1
     8    3   14 1
     9    4    7 1
    10    4   10 2
    11    4   13 1
    12    5   13 1
    13    5   17 1
    14    5   18 1
    15    5   19 1
    16    6   15 1
    17    6   20 1
    18    6   21 1
    19    6   22 1
    20    7   23 1
    21    7   24 1
    22    9   15 1
    23   11   15 2
    24   12   15 2
