@<TRIPOS>MOLECULE
*****
   25    25     0     0     0
SMALL
NO_CHARGES

@<TRIPOS>ATOM
      1 C1          4.2321    0.6258   -4.4136 C.2       1 <0>         0.0000
      2 C2          3.2342   -0.3105   -4.3681 C.2       1 <0>         0.0000
      3 C3          4.9514   -1.6869   -4.6268 C.2       1 <0>         0.0000
      4 C4          1.2495    1.1808   -4.8703 C.2       1 <0>         0.0000
      5 C5          1.2880    3.5473   -4.8939 C.3       1 <0>         0.0000
      6 C6          8.3472   -2.9755   -4.5727 C.3       1 <0>         0.0000
      7 C7          1.7573   -0.0610   -4.1636 C.3       1 <0>         0.0000
      8 N1          3.6574   -1.6231   -4.4835 N.2       1 <0>         0.0000
      9 N2          5.6349   -2.8918   -4.8544 N.pl3     1 <0>         0.0000
     10 O1          0.5273    1.1831   -5.8459 O.2       1 <0>         0.0000
     11 O2          6.7446   -2.6621   -2.4877 O.2       1 <0>         0.0000
     12 O3          6.7031   -4.8961   -3.7410 O.2       1 <0>         0.0000
     13 O4          1.7023    2.3113   -4.2711 O.3       1 <0>         0.0000
     14 S1          5.7718   -0.1431   -4.6531 S.3       1 <0>         0.0000
     15 S2          6.8312   -3.4388   -3.7220 S.o2      1 <0>         0.0000
     16 H1          4.1533    1.6966   -4.2919 H         1 <0>         0.0000
     17 H2          1.7315    4.3393   -4.2907 H         1 <0>         0.0000
     18 H3          0.1987    3.6255   -4.8929 H         1 <0>         0.0000
     19 H4          1.6512    3.5940   -5.9231 H         1 <0>         0.0000
     20 H5          9.1714   -3.3069   -3.9384 H         1 <0>         0.0000
     21 H6          8.3661   -3.4798   -5.5384 H         1 <0>         0.0000
     22 H7          8.3669   -1.8912   -4.6866 H         1 <0>         0.0000
     23 H8          1.2048   -0.9154   -4.5534 H         1 <0>         0.0000
     24 H9          1.5454    0.0278   -3.0921 H         1 <0>         0.0000
     25 H10         4.9785   -3.6594   -5.0078 H         1 <0>         0.0000
@<TRIPOS>BOND
     1    1    2 2
     2    1   14 1
     3    1   16 1
     4    2    7 1
     5    2    8 1
     6    3    8 2
     7    3    9 1
     8    3   14 1
     9    4    7 1
    10    4   10 2
    11    4   13 1
    12    5   13 1
    13    5   17 1
    14    5   18 1
    15    5   19 1
    16    6   15 1
    17    6   20 1
    18    6   21 1
    19    6   22 1
    20    7   23 1
    21    7   24 1
    22    9   15 1
    23    9   25 1
    24   11   15 2
    25   12   15 2
