@<TRIPOS>MOLECULE
*****
   25    25     0     0     0
SMALL
NO_CHARGES

@<TRIPOS>ATOM
      1 C1          0.7132    0.0573    3.3765 C.2       1 <0>         0.0000
      2 C2          0.7505   -0.1754    2.0466 C.2       1 <0>         0.0000
      3 C3          2.9585   -0.7509    2.5821 C.2       1 <0>         0.0000
      4 C4          0.0537    0.8416   -0.1432 C.2       1 <0>         0.0000
      5 C5          1.5651    0.9238   -1.9832 C.3       1 <0>         0.0000
      6 C6          5.9158   -2.7757    1.3096 C.3       1 <0>         0.0000
      7 C7         -0.3626   -0.0147    1.0490 C.3       1 <0>         0.0000
      8 N1          4.2084   -1.1222    2.4898 N.2       1 <0>         0.0000
      9 N2          1.9969   -0.6302    1.6202 N.pl3     1 <0>         0.0000
     10 O1         -0.3714    1.9481   -0.3942 O.2       1 <0>         0.0000
     11 O2          3.8588   -1.7293   -0.0212 O.2       1 <0>         0.0000
     12 O3          5.7573   -0.2069    0.6576 O.2       1 <0>         0.0000
     13 O4          0.9830    0.1896   -0.8779 O.3       1 <0>         0.0000
     14 S1          2.2611   -0.2903    4.1401 S.3       1 <0>         0.0000
     15 S2          4.8858   -1.3412    0.9827 S.o2      1 <0>         0.0000
     16 H1         -0.1252    0.4157    3.9568 H         1 <0>         0.0000
     17 H2          2.3499    0.2766   -2.3711 H         1 <0>         0.0000
     18 H3          1.9819    1.8669   -1.6254 H         1 <0>         0.0000
     19 H4          0.8033    1.1207   -2.7402 H         1 <0>         0.0000
     20 H5          6.4664   -2.9794    0.3898 H         1 <0>         0.0000
     21 H6          6.5964   -2.5228    2.1226 H         1 <0>         0.0000
     22 H7          5.2729   -3.6145    1.5760 H         1 <0>         0.0000
     23 H8         -1.2182    0.4588    1.5284 H         1 <0>         0.0000
     24 H9         -0.6658   -0.9994    0.6740 H         1 <0>         0.0000
     25 H10         2.2158   -0.8777    0.6522 H         1 <0>         0.0000
@<TRIPOS>BOND
     1    1    2 2
     2    1   14 1
     3    1   16 1
     4    2    7 1
     5    2    9 1
     6    3    8 2
     7    3    9 1
     8    3   14 1
     9    4    7 1
    10    4   10 2
    11    4   13 1
    12    5   13 1
    13    5   17 1
    14    5   18 1
    15    5   19 1
    16    6   15 1
    17    6   20 1
    18    6   21 1
    19    6   22 1
    20    7   23 1
    21    7   24 1
    22    8   15 1
    23    9   25 1
    24   11   15 2
    25   12   15 2
