@<TRIPOS>MOLECULE
*****
   15    14     0     0     0
SMALL
NO_CHARGES

@<TRIPOS>ATOM
      1 C1          6.2536   -0.6433    3.1023 C.1       1 <0>         0.0000
      2 C2          0.9403   -1.0661    0.3387 C.3       1 <0>         0.0000
      3 C3          4.3477   -2.2873    3.2117 C.3       1 <0>         0.0000
      4 C4          3.2081   -1.2693    3.3129 C.3       1 <0>         0.0000
      5 N1          5.6353   -1.6485    3.3160 N.2       1 <0>         0.0000
      6 S1          7.1700    0.6358    2.8682 S.2       1 <0>         0.0000
      7 S2          1.5229   -2.6071    1.1420 S.3       1 <0>         0.0000
      8 S3          1.5585   -2.0549    3.1587 S.3       1 <0>         0.0000
      9 H1          0.8613   -1.2881   -0.7299 H         1 <0>         0.0000
     10 H2          1.6544   -0.2524    0.4824 H         1 <0>         0.0000
     11 H3         -0.0395   -0.7798    0.7245 H         1 <0>         0.0000
     12 H4          4.2963   -2.8133    2.2525 H         1 <0>         0.0000
     13 H5          4.2604   -3.0350    4.0041 H         1 <0>         0.0000
     14 H6          3.2090   -0.7875    4.2959 H         1 <0>         0.0000
     15 H7          3.3195   -0.4906    2.5539 H         1 <0>         0.0000
@<TRIPOS>BOND
     1    1    5 2
     2    1    6 2
     3    2    7 1
     4    2    9 1
     5    2   10 1
     6    2   11 1
     7    3    4 1
     8    3    5 1
     9    3   12 1
    10    3   13 1
    11    4    8 1
    12    4   14 1
    13    4   15 1
    14    7    8 1
