@<TRIPOS>MOLECULE
*****
   27    28     0     0     0
SMALL
NO_CHARGES

@<TRIPOS>ATOM
      1 C1         -0.1629   -2.4143   -2.3059 C.2       1 <0>         0.0000
      2 C2         -1.4719   -4.1370   -4.7926 C.3       1 <0>         0.0000
      3 C3         -1.4833   -2.9745   -5.7629 C.3       1 <0>         0.0000
      4 C4         -0.2945   -0.7910    0.3108 C.3       1 <0>         0.0000
      5 C5         -1.6525    0.1784   -1.4154 C.3       1 <0>         0.0000
      6 C6         -1.5921   -2.7254   -4.2774 C.3       1 <0>         0.0000
      7 C7         -1.7704   -0.6585   -0.1355 C.3       1 <0>         0.0000
      8 C8          0.9613   -1.5635   -1.7064 C.3       1 <0>         0.0000
      9 N1          0.5455   -0.4506   -0.8416 N.3       1 <0>         0.0000
     10 N2         -0.4612   -2.1363   -3.6133 N.am      1 <0>         0.0000
     11 O1         -0.7587   -3.2673   -1.6460 O.2       1 <0>         0.0000
     12 O2         -0.2497    0.4848   -1.6070 O.3       1 <0>         0.0000
     13 O3         -2.5774    0.0515    0.8108 O.3       1 <0>         0.0000
     14 H1         -2.3508   -4.7699   -4.7244 H         1 <0>         0.0000
     15 H2         -0.5274   -4.6401   -4.6160 H         1 <0>         0.0000
     16 H3         -0.5456   -2.7142   -6.2456 H         1 <0>         0.0000
     17 H4         -2.3686   -2.8061   -6.3683 H         1 <0>         0.0000
     18 H5         -0.1163   -0.0501    1.0968 H         1 <0>         0.0000
     19 H6         -0.0440   -1.7884    0.6753 H         1 <0>         0.0000
     20 H7         -2.0414   -0.3565   -2.2881 H         1 <0>         0.0000
     21 H8         -2.1792    1.1282   -1.2993 H         1 <0>         0.0000
     22 H9         -2.5620   -2.4276   -3.8826 H         1 <0>         0.0000
     23 H10        -2.2077   -1.6373   -0.3478 H         1 <0>         0.0000
     24 H11         1.5816   -2.2210   -1.0919 H         1 <0>         0.0000
     25 H12         1.5945   -1.1327   -2.4873 H         1 <0>         0.0000
     26 H13        -0.0683   -1.2891   -4.0062 H         1 <0>         0.0000
     27 H14        -2.7731   -0.5471    1.5482 H         1 <0>         0.0000
@<TRIPOS>BOND
     1    1    8 1
     2    1   10 am
     3    1   11 2
     4    2    3 1
     5    2    6 1
     6    2   14 1
     7    2   15 1
     8    3    6 1
     9    3   16 1
    10    3   17 1
    11    4    7 1
    12    4    9 1
    13    4   18 1
    14    4   19 1
    15    5    7 1
    16    5   12 1
    17    5   20 1
    18    5   21 1
    19    6   10 1
    20    6   22 1
    21    7   13 1
    22    7   23 1
    23    8    9 1
    24    8   24 1
    25    8   25 1
    26    9   12 1
    27   10   26 1
    28   13   27 1
