@<TRIPOS>MOLECULE
*****
   25    25     0     0     0
SMALL
NO_CHARGES

@<TRIPOS>ATOM
      1 C1          4.4337    1.4157   -4.9622 C.2       1 <0>         0.0000
      2 C2          3.6262    0.7134   -4.1092 C.2       1 <0>         0.0000
      3 C3          5.2495   -0.7748   -4.3252 C.2       1 <0>         0.0000
      4 C4          1.1557    0.3364   -4.2822 C.2       1 <0>         0.0000
      5 C5         -1.1619   -0.1249   -4.2017 C.3       1 <0>         0.0000
      6 C6          4.4214   -3.3284   -5.9928 C.3       1 <0>         0.0000
      7 C7          2.2747    1.1329   -3.6200 C.3       1 <0>         0.0000
      8 N1          4.1016   -0.5336   -3.7519 N.2       1 <0>         0.0000
      9 N2          5.9737   -1.9606   -4.1205 N.pl3     1 <0>         0.0000
     10 O1          1.2728   -0.3806   -5.2551 O.2       1 <0>         0.0000
     11 O2          6.8178   -2.3104   -6.5052 O.2       1 <0>         0.0000
     12 O3          6.6511   -4.2764   -4.8705 O.2       1 <0>         0.0000
     13 O4         -0.0165    0.5558   -3.6439 O.3       1 <0>         0.0000
     14 S1          5.8641    0.5080   -5.3417 S.3       1 <0>         0.0000
     15 S2          6.1226   -3.0456   -5.4530 S.o2      1 <0>         0.0000
     16 H1          4.2495    2.3804   -5.4175 H         1 <0>         0.0000
     17 H2         -2.0048    0.1646   -3.5748 H         1 <0>         0.0000
     18 H3         -1.0115   -1.2064   -4.1714 H         1 <0>         0.0000
     19 H4         -1.3237    0.1878   -5.2359 H         1 <0>         0.0000
     20 H5          4.4814   -3.9547   -6.8845 H         1 <0>         0.0000
     21 H6          3.8852   -3.8409   -5.1936 H         1 <0>         0.0000
     22 H7          3.9560   -2.3699   -6.2252 H         1 <0>         0.0000
     23 H8          2.1935    1.0035   -2.5367 H         1 <0>         0.0000
     24 H9          2.0948    2.1924   -3.8269 H         1 <0>         0.0000
     25 H10         5.6360   -2.4646   -3.2999 H         1 <0>         0.0000
@<TRIPOS>BOND
     1    1    2 2
     2    1   14 1
     3    1   16 1
     4    2    7 1
     5    2    8 1
     6    3    8 2
     7    3    9 1
     8    3   14 1
     9    4    7 1
    10    4   10 2
    11    4   13 1
    12    5   13 1
    13    5   17 1
    14    5   18 1
    15    5   19 1
    16    6   15 1
    17    6   20 1
    18    6   21 1
    19    6   22 1
    20    7   23 1
    21    7   24 1
    22    9   15 1
    23    9   25 1
    24   11   15 2
    25   12   15 2
