@<TRIPOS>MOLECULE
*****
   25    25     0     0     0
SMALL
NO_CHARGES

@<TRIPOS>ATOM
      1 C1          4.7318    1.3613   -4.9594 C.2       1 <0>         0.0000
      2 C2          4.0304    0.4477   -4.2217 C.2       1 <0>         0.0000
      3 C3          5.9625   -0.6329   -4.2963 C.2       1 <0>         0.0000
      4 C4          2.6145    0.9813   -2.2653 C.2       1 <0>         0.0000
      5 C5          2.8707    0.1539   -0.0689 C.3       1 <0>         0.0000
      6 C6          5.7354   -3.2209   -2.1243 C.3       1 <0>         0.0000
      7 C7          2.6116    0.6049   -3.7422 C.3       1 <0>         0.0000
      8 N1          4.7345   -0.6870   -3.8675 N.2       1 <0>         0.0000
      9 N2          6.8902   -1.6412   -4.0227 N.pl3     1 <0>         0.0000
     10 O1          2.5715    2.1212   -1.8473 O.2       1 <0>         0.0000
     11 O2          8.3809   -2.8629   -2.4069 O.2       1 <0>         0.0000
     12 O3          6.9611   -0.9585   -1.4797 O.2       1 <0>         0.0000
     13 O4          2.7123   -0.1119   -1.4804 O.3       1 <0>         0.0000
     14 S1          6.3719    0.8232   -5.1884 S.3       1 <0>         0.0000
     15 S2          7.1257   -2.1104   -2.3643 S.o2      1 <0>         0.0000
     16 H1          4.3902    2.3009   -5.3726 H         1 <0>         0.0000
     17 H2          2.9153   -0.8255    0.4066 H         1 <0>         0.0000
     18 H3          2.0231    0.7301    0.3084 H         1 <0>         0.0000
     19 H4          3.7963    0.7068    0.1044 H         1 <0>         0.0000
     20 H5          5.8030   -3.5714   -1.0925 H         1 <0>         0.0000
     21 H6          4.8247   -2.6471   -2.2971 H         1 <0>         0.0000
     22 H7          5.8368   -4.0458   -2.8291 H         1 <0>         0.0000
     23 H8          2.1122    1.4059   -4.2880 H         1 <0>         0.0000
     24 H9          2.0717   -0.3346   -3.8839 H         1 <0>         0.0000
     25 H10         7.8006   -1.5635   -4.4722 H         1 <0>         0.0000
@<TRIPOS>BOND
     1    1    2 2
     2    1   14 1
     3    1   16 1
     4    2    7 1
     5    2    8 1
     6    3    8 2
     7    3    9 1
     8    3   14 1
     9    4    7 1
    10    4   10 2
    11    4   13 1
    12    5   13 1
    13    5   17 1
    14    5   18 1
    15    5   19 1
    16    6   15 1
    17    6   20 1
    18    6   21 1
    19    6   22 1
    20    7   23 1
    21    7   24 1
    22    9   15 1
    23    9   25 1
    24   11   15 2
    25   12   15 2
