@<TRIPOS>MOLECULE
*****
   20    19     0     0     0
SMALL
NO_CHARGES

@<TRIPOS>ATOM
      1 C1         -1.2815   -1.9125    1.0172 C.2       1 <0>         0.0000
      2 C2         -1.7159   -1.5343    2.4137 C.3       1 <0>         0.0000
      3 C3          0.1996    2.5921   -1.1078 C.3       1 <0>         0.0000
      4 C4          2.3984   -0.1688    0.9634 C.3       1 <0>         0.0000
      5 N1         -0.7057   -0.8942    0.2386 N.am      1 <0>         0.0000
      6 O1         -1.3985   -3.0313    0.5426 O.2       1 <0>         0.0000
      7 O2         -1.6026    1.4780    1.2170 O.2       1 <0>         0.0000
      8 O3          0.0368    1.1747   -0.8499 O.3       1 <0>         0.0000
      9 P1         -0.4661    0.7368    0.6240 P.3       1 <0>         0.0000
     10 S1          1.2084    0.8775    1.8940 S.3       1 <0>         0.0000
     11 H1         -2.4431   -0.7186    2.3837 H         1 <0>         0.0000
     12 H2         -0.8605   -1.1819    2.9993 H         1 <0>         0.0000
     13 H3         -2.1486   -2.4138    2.8895 H         1 <0>         0.0000
     14 H4          0.5003    2.6728   -2.1519 H         1 <0>         0.0000
     15 H5          0.9777    3.0063   -0.4599 H         1 <0>         0.0000
     16 H6         -0.7454    3.1130   -0.9406 H         1 <0>         0.0000
     17 H7          3.3307   -0.1536    1.5317 H         1 <0>         0.0000
     18 H8          2.5757    0.2370   -0.0339 H         1 <0>         0.0000
     19 H9          2.0357   -1.1957    0.8927 H         1 <0>         0.0000
     20 H10        -0.4651   -1.1887   -0.7054 H         1 <0>         0.0000
@<TRIPOS>BOND
     1    1    2 1
     2    1    5 am
     3    1    6 2
     4    2   11 1
     5    2   12 1
     6    2   13 1
     7    3    8 1
     8    3   14 1
     9    3   15 1
    10    3   16 1
    11    4   10 1
    12    4   17 1
    13    4   18 1
    14    4   19 1
    15    5    9 1
    16    5   20 1
    17    7    9 2
    18    8    9 1
    19    9   10 1
