@<TRIPOS>MOLECULE
*****
   25    25     0     0     0
SMALL
NO_CHARGES

@<TRIPOS>ATOM
      1 C1          4.4002    0.8880   -4.9363 C.2       1 <0>         0.0000
      2 C2          4.1064   -0.1064   -4.0466 C.2       1 <0>         0.0000
      3 C3          5.8879   -1.0405   -4.9758 C.2       1 <0>         0.0000
      4 C4          2.0345   -1.3135   -3.2817 C.2       1 <0>         0.0000
      5 C5          0.7133   -2.4786   -4.8552 C.3       1 <0>         0.0000
      6 C6          6.6821   -3.8284   -3.1983 C.3       1 <0>         0.0000
      7 C7          2.9600   -0.1219   -3.0759 C.3       1 <0>         0.0000
      8 N1          4.9512   -1.2008   -4.0856 N.2       1 <0>         0.0000
      9 N2          6.8823   -1.9935   -5.2036 N.pl3     1 <0>         0.0000
     10 O1          1.7191   -2.1052   -2.4164 O.2       1 <0>         0.0000
     11 O2          8.9510   -3.2325   -4.5013 O.2       1 <0>         0.0000
     12 O3          7.9840   -1.5392   -2.8579 O.2       1 <0>         0.0000
     13 O4          1.5866   -1.3698   -4.5555 O.3       1 <0>         0.0000
     14 S1          5.8288    0.4838   -5.8470 S.3       1 <0>         0.0000
     15 S2          7.8042   -2.5906   -3.8557 S.o2      1 <0>         0.0000
     16 H1          3.8578    1.8039   -5.1292 H         1 <0>         0.0000
     17 H2          0.4651   -2.3755   -5.9113 H         1 <0>         0.0000
     18 H3         -0.1881   -2.4313   -4.2396 H         1 <0>         0.0000
     19 H4          1.2268   -3.4247   -4.6697 H         1 <0>         0.0000
     20 H5          7.1732   -4.2482   -2.3184 H         1 <0>         0.0000
     21 H6          5.7520   -3.3240   -2.9357 H         1 <0>         0.0000
     22 H7          6.5299   -4.5864   -3.9661 H         1 <0>         0.0000
     23 H8          3.3297   -0.1796   -2.0498 H         1 <0>         0.0000
     24 H9          2.3729    0.7950   -3.1821 H         1 <0>         0.0000
     25 H10         7.5163   -1.8191   -5.9810 H         1 <0>         0.0000
@<TRIPOS>BOND
     1    1    2 2
     2    1   14 1
     3    1   16 1
     4    2    7 1
     5    2    8 1
     6    3    8 2
     7    3    9 1
     8    3   14 1
     9    4    7 1
    10    4   10 2
    11    4   13 1
    12    5   13 1
    13    5   17 1
    14    5   18 1
    15    5   19 1
    16    6   15 1
    17    6   20 1
    18    6   21 1
    19    6   22 1
    20    7   23 1
    21    7   24 1
    22    9   15 1
    23    9   25 1
    24   11   15 2
    25   12   15 2
