@<TRIPOS>MOLECULE
*****
   20    19     0     0     0
SMALL
NO_CHARGES

@<TRIPOS>ATOM
      1 C1         -1.3993   -1.6309   -0.1107 C.2       1 <0>         0.0000
      2 C2         -2.3581   -0.8270   -0.9582 C.3       1 <0>         0.0000
      3 C3          1.1481    0.5770   -1.8416 C.3       1 <0>         0.0000
      4 C4          1.5481    2.3826    2.4254 C.3       1 <0>         0.0000
      5 N1         -0.3031   -0.9344    0.4408 N.am      1 <0>         0.0000
      6 O1         -1.5212   -2.8239    0.1126 O.2       1 <0>         0.0000
      7 O2         -1.1465    1.5673    1.1475 O.2       1 <0>         0.0000
      8 O3          0.1398    1.1944   -1.0154 O.3       1 <0>         0.0000
      9 P1         -0.0787    0.7535    0.5223 P.3       1 <0>         0.0000
     10 S1          1.7890    0.8036    1.5101 S.3       1 <0>         0.0000
     11 H1         -1.8355   -0.3220   -1.7750 H         1 <0>         0.0000
     12 H2         -2.8344   -0.0502   -0.3520 H         1 <0>         0.0000
     13 H3         -3.1135   -1.5020   -1.3591 H         1 <0>         0.0000
     14 H4          1.0133    0.9916   -2.8407 H         1 <0>         0.0000
     15 H5          1.0172   -0.5089   -1.8653 H         1 <0>         0.0000
     16 H6          2.1458    0.8232   -1.4673 H         1 <0>         0.0000
     17 H7          2.3581    2.4288    3.1554 H         1 <0>         0.0000
     18 H8          0.5822    2.3766    2.9292 H         1 <0>         0.0000
     19 H9          1.6122    3.2326    1.7459 H         1 <0>         0.0000
     20 H10         0.2074   -1.5010    1.1153 H         1 <0>         0.0000
@<TRIPOS>BOND
     1    1    2 1
     2    1    5 am
     3    1    6 2
     4    2   11 1
     5    2   12 1
     6    2   13 1
     7    3    8 1
     8    3   14 1
     9    3   15 1
    10    3   16 1
    11    4   10 1
    12    4   17 1
    13    4   18 1
    14    4   19 1
    15    5    9 1
    16    5   20 1
    17    7    9 2
    18    8    9 1
    19    9   10 1
