@<TRIPOS>MOLECULE
*****
   29    30     0     0     0
SMALL
NO_CHARGES

@<TRIPOS>ATOM
      1 C1         -2.2500    1.0743   -0.4998 C.ar      1 <0>         0.0000
      2 C2         -3.6110    0.8660   -0.5011 C.ar      1 <0>         0.0000
      3 C3         -1.3971   -0.0500   -0.5591 C.ar      1 <0>         0.0000
      4 C4         -4.0428   -0.4748   -0.5629 C.ar      1 <0>         0.0000
      5 C5          0.8214    1.2631   -0.0622 C.3       1 <0>         0.0000
      6 C6          0.8475   -0.0161    0.7486 C.3       1 <0>         0.0000
      7 C7          0.1061    0.0314   -0.5756 C.3       1 <0>         0.0000
      8 C8          0.9844    0.4048    3.2391 C.3       1 <0>         0.0000
      9 C9         -5.8058   -2.0708   -0.6190 C.3       1 <0>         0.0000
     10 C10         0.1225   -0.1022    2.0759 C.3       1 <0>         0.0000
     11 N1         -1.8860   -1.2909   -0.6315 N.ar      1 <0>         0.0000
     12 N2         -3.2080   -1.5071   -0.6342 N.ar      1 <0>         0.0000
     13 N3          0.7741   -0.6650   -1.6620 N.3       1 <0>         0.0000
     14 O1         -5.3763   -0.6982   -0.5544 O.3       1 <0>         0.0000
     15 H1         -1.8389    2.0781   -0.4645 H         1 <0>         0.0000
     16 H2         -4.3368    1.6725   -0.4628 H         1 <0>         0.0000
     17 H3          0.2359    2.0877    0.3355 H         1 <0>         0.0000
     18 H4          1.7179    1.5551   -0.5991 H         1 <0>         0.0000
     19 H5          1.7761   -0.5799    0.6927 H         1 <0>         0.0000
     20 H6          1.9049   -0.1824    3.3329 H         1 <0>         0.0000
     21 H7          0.4467    0.3378    4.1911 H         1 <0>         0.0000
     22 H8          1.2737    1.4505    3.0854 H         1 <0>         0.0000
     23 H9         -6.8951   -2.0269   -0.5976 H         1 <0>         0.0000
     24 H10        -5.4254   -2.6364    0.2355 H         1 <0>         0.0000
     25 H11        -5.4563   -2.5433   -1.5405 H         1 <0>         0.0000
     26 H12        -0.8075    0.4768    2.0323 H         1 <0>         0.0000
     27 H13        -0.1762   -1.1424    2.2564 H         1 <0>         0.0000
     28 H14         0.4786   -0.2624   -2.5520 H         1 <0>         0.0000
     29 H15         0.4480   -1.6321   -1.6635 H         1 <0>         0.0000
@<TRIPOS>BOND
     1    1    2 ar
     2    1    3 ar
     3    1   15 1
     4    2    4 ar
     5    2   16 1
     6    3    7 1
     7    3   11 ar
     8    4   12 ar
     9    4   14 1
    10    5    6 1
    11    5    7 1
    12    5   17 1
    13    5   18 1
    14    6    7 1
    15    6   10 1
    16    6   19 1
    17    7   13 1
    18    8   10 1
    19    8   20 1
    20    8   21 1
    21    8   22 1
    22    9   14 1
    23    9   23 1
    24    9   24 1
    25    9   25 1
    26   10   26 1
    27   10   27 1
    28   11   12 ar
    29   13   28 1
    30   13   29 1
