@<TRIPOS>MOLECULE
*****
   30    31     0     0     0
SMALL
NO_CHARGES

@<TRIPOS>ATOM
      1 C1         -0.7217    2.6297    0.6497 C.ar      1 <0>         0.0000
      2 C2         -0.5098    3.9867    0.7893 C.ar      1 <0>         0.0000
      3 C3          0.1397    1.9286   -0.2077 C.ar      1 <0>         0.0000
      4 C4          0.5565    4.5707    0.0594 C.ar      1 <0>         0.0000
      5 C5         -1.2197   -0.3187   -0.5193 C.3       1 <0>         0.0000
      6 C6         -0.2403   -0.5629    0.6002 C.3       1 <0>         0.0000
      7 C7          0.0800    0.4551   -0.4804 C.3       1 <0>         0.0000
      8 C8         -0.2908   -2.9101    1.5301 C.3       1 <0>         0.0000
      9 C9          0.1202    6.7594    0.9228 C.3       1 <0>         0.0000
     10 C10         0.5007   -1.8842    0.7065 C.3       1 <0>         0.0000
     11 N1          1.1201    2.5552   -0.8615 N.ar      1 <0>         0.0000
     12 N2          1.3491    3.8517   -0.7500 N.ar      1 <0>         0.0000
     13 N3          1.1462    0.1281   -1.4790 N.4       1 <0>         0.0000
     14 O1          0.8824    5.8648    0.0932 O.3       1 <0>         0.0000
     15 H1         -1.5264    2.1370    1.1874 H         1 <0>         0.0000
     16 H2         -1.1438    4.5798    1.4373 H         1 <0>         0.0000
     17 H3         -1.3181   -1.0996   -1.2703 H         1 <0>         0.0000
     18 H4         -2.1300    0.2448   -0.3404 H         1 <0>         0.0000
     19 H5         -0.4778   -0.1075    1.5593 H         1 <0>         0.0000
     20 H6         -0.4538   -2.5515    2.5509 H         1 <0>         0.0000
     21 H7          0.2524   -3.8567    1.5899 H         1 <0>         0.0000
     22 H8         -1.2681   -3.1055    1.0783 H         1 <0>         0.0000
     23 H9          0.5760    7.7376    0.7812 H         1 <0>         0.0000
     24 H10         0.1917    6.4704    1.9763 H         1 <0>         0.0000
     25 H11        -0.9261    6.7923    0.6023 H         1 <0>         0.0000
     26 H12         0.6797   -2.3017   -0.2941 H         1 <0>         0.0000
     27 H13         1.4813   -1.7177    1.1703 H         1 <0>         0.0000
     28 H14         1.8297   -0.5504   -1.1288 H         1 <0>         0.0000
     29 H15         1.6185    1.0813   -1.6241 H         1 <0>         0.0000
     30 H16         0.7749   -0.2065   -2.3729 H         1 <0>         0.0000
@<TRIPOS>BOND
     1    1    2 ar
     2    1    3 ar
     3    1   15 1
     4    2    4 ar
     5    2   16 1
     6    3    7 1
     7    3   11 ar
     8    4   12 ar
     9    4   14 1
    10    5    6 1
    11    5    7 1
    12    5   17 1
    13    5   18 1
    14    6    7 1
    15    6   10 1
    16    6   19 1
    17    7   13 1
    18    8   10 1
    19    8   20 1
    20    8   21 1
    21    8   22 1
    22    9   14 1
    23    9   23 1
    24    9   24 1
    25    9   25 1
    26   10   26 1
    27   10   27 1
    28   11   12 ar
    29   13   28 1
    30   13   29 1
    31   13   30 1
