@<TRIPOS>MOLECULE
*****
   25    25     0     0     0
SMALL
NO_CHARGES

@<TRIPOS>ATOM
      1 C1          0.7100    1.0170    3.1149 C.2       1 <0>         0.0000
      2 C2          0.8989    0.2910    1.9918 C.2       1 <0>         0.0000
      3 C3          3.0427    0.0967    2.9134 C.2       1 <0>         0.0000
      4 C4         -0.1818   -1.4205    0.5037 C.2       1 <0>         0.0000
      5 C5         -1.6094   -3.2633    0.1357 C.3       1 <0>         0.0000
      6 C6          6.6720   -0.4283    1.9667 C.3       1 <0>         0.0000
      7 C7         -0.0980    0.0482    0.8954 C.3       1 <0>         0.0000
      8 N1          4.2918   -0.2163    3.1219 N.2       1 <0>         0.0000
      9 N2          2.1930   -0.2154    1.8872 N.pl3     1 <0>         0.0000
     10 O1          0.7855   -2.0908    0.1973 O.2       1 <0>         0.0000
     11 O2          5.2717   -2.5513    2.7178 O.2       1 <0>         0.0000
     12 O3          4.4535   -1.2172    0.7262 O.2       1 <0>         0.0000
     13 O4         -1.4476   -1.8748    0.5182 O.3       1 <0>         0.0000
     14 S1          2.1718    1.0935    4.0895 S.3       1 <0>         0.0000
     15 S2          5.0765   -1.2496    2.0720 S.o2      1 <0>         0.0000
     16 H1         -0.1955    1.5186    3.4260 H         1 <0>         0.0000
     17 H2         -2.6793   -3.4566    0.2015 H         1 <0>         0.0000
     18 H3         -1.0537   -3.9073    0.8201 H         1 <0>         0.0000
     19 H4         -1.2470   -3.4173   -0.8826 H         1 <0>         0.0000
     20 H5          7.3040   -1.0585    1.3387 H         1 <0>         0.0000
     21 H6          6.5310    0.5548    1.5175 H         1 <0>         0.0000
     22 H7          7.0798   -0.3504    2.9745 H         1 <0>         0.0000
     23 H8          0.2100    0.5913   -0.0074 H         1 <0>         0.0000
     24 H9         -1.0755    0.4222    1.1985 H         1 <0>         0.0000
     25 H10         2.5133   -0.8059    1.1147 H         1 <0>         0.0000
@<TRIPOS>BOND
     1    1    2 2
     2    1   14 1
     3    1   16 1
     4    2    7 1
     5    2    9 1
     6    3    8 2
     7    3    9 1
     8    3   14 1
     9    4    7 1
    10    4   10 2
    11    4   13 1
    12    5   13 1
    13    5   17 1
    14    5   18 1
    15    5   19 1
    16    6   15 1
    17    6   20 1
    18    6   21 1
    19    6   22 1
    20    7   23 1
    21    7   24 1
    22    8   15 1
    23    9   25 1
    24   11   15 2
    25   12   15 2
