@<TRIPOS>MOLECULE
*****
   18    18     0     0     0
SMALL
NO_CHARGES

@<TRIPOS>ATOM
      1 C1          2.6775   -0.9096   -0.0351 C.1       1 <0>         0.0000
      2 C2          1.4353    0.3541    2.3393 C.2       1 <0>         0.0000
      3 C3          1.5355   -0.7904    4.2909 C.2       1 <0>         0.0000
      4 C4         -0.3761    1.0471    0.7413 C.3       1 <0>         0.0000
      5 C5          1.1027    0.6829    0.9150 C.3       1 <0>         0.0000
      6 N1          3.7777   -1.2990   -0.0751 N.1       1 <0>         0.0000
      7 N2          1.9905    1.1888    3.1701 N.2       1 <0>         0.0000
      8 N3          1.1124   -0.8388    2.9507 N.am      1 <0>         0.0000
      9 N4          2.0220    0.5045    4.3691 N.am      1 <0>         0.0000
     10 N5          1.3938   -0.5014    0.0654 N.3       1 <0>         0.0000
     11 O1          1.4737   -1.6587    5.1470 O.2       1 <0>         0.0000
     12 H1         -1.0219    0.2124    1.0288 H         1 <0>         0.0000
     13 H2         -0.6167    1.9075    1.3690 H         1 <0>         0.0000
     14 H3         -0.5874    1.3146   -0.3000 H         1 <0>         0.0000
     15 H4          1.7279    1.5372    0.6332 H         1 <0>         0.0000
     16 H5          0.8023   -1.6873    2.4958 H         1 <0>         0.0000
     17 H6          2.5008    0.8982    5.1669 H         1 <0>         0.0000
     18 H7          0.9084   -0.4903   -0.8273 H         1 <0>         0.0000
@<TRIPOS>BOND
     1    1    6 3
     2    1   10 1
     3    2    5 1
     4    2    7 2
     5    2    8 1
     6    3    8 am
     7    3    9 am
     8    3   11 2
     9    4    5 1
    10    4   12 1
    11    4   13 1
    12    4   14 1
    13    5   10 1
    14    5   15 1
    15    7    9 1
    16    8   16 1
    17    9   17 1
    18   10   18 1
