@<TRIPOS>MOLECULE
*****
   18    18     0     0     0
SMALL
NO_CHARGES

@<TRIPOS>ATOM
      1 C1          1.4033    0.5416    4.4006 C.2       1 <0>         0.0000
      2 C2          1.0576    1.1419    3.1485 C.2       1 <0>         0.0000
      3 C3          2.1278   -0.6132    4.2471 C.2       1 <0>         0.0000
      4 C4          1.5196    0.4389    2.0599 C.2       1 <0>         0.0000
      5 C5          0.0139    0.2561    0.0145 C.2       1 <0>         0.0000
      6 C6          1.3200    0.7608    0.6065 C.3       1 <0>         0.0000
      7 N1         -0.4580    0.6529   -1.1179 N.2       1 <0>         0.0000
      8 N2         -0.6666   -0.7484    0.6941 N.pl3     1 <0>         0.0000
      9 O1          0.4460    1.5686   -1.7442 O.3       1 <0>         0.0000
     10 S1          2.3897   -0.9801    2.5738 S.3       1 <0>         0.0000
     11 H1          1.1337    0.9520    5.3684 H         1 <0>         0.0000
     12 H2          0.4929    2.0648    3.0519 H         1 <0>         0.0000
     13 H3          2.5254   -1.2637    5.0158 H         1 <0>         0.0000
     14 H4          1.3516    1.8434    0.4595 H         1 <0>         0.0000
     15 H5          2.1366    0.3602   -0.0039 H         1 <0>         0.0000
     16 H6         -0.6576   -0.6476    1.7037 H         1 <0>         0.0000
     17 H7         -1.5947   -0.9193    0.3195 H         1 <0>         0.0000
     18 H8         -0.0356    1.7946   -2.5549 H         1 <0>         0.0000
@<TRIPOS>BOND
     1    1    2 1
     2    1    3 2
     3    1   11 1
     4    2    4 2
     5    2   12 1
     6    3   10 1
     7    3   13 1
     8    4    6 1
     9    4   10 1
    10    5    6 1
    11    5    7 2
    12    5    8 1
    13    6   14 1
    14    6   15 1
    15    7    9 1
    16    8   16 1
    17    8   17 1
    18    9   18 1
