@<TRIPOS>MOLECULE
*****
   21    22     0     0     0
SMALL
NO_CHARGES

@<TRIPOS>ATOM
      1 C1          0.6618   -1.0069   -1.8291 C.ar      1 <0>         0.0000
      2 C2          0.3737   -0.9631   -0.4661 C.ar      1 <0>         0.0000
      3 C3          0.7851   -2.2321   -2.5134 C.ar      1 <0>         0.0000
      4 C4          0.1914   -2.1407    0.2961 C.ar      1 <0>         0.0000
      5 C5          0.6048   -3.3721   -1.7578 C.ar      1 <0>         0.0000
      6 C6          0.3170   -3.3406   -0.3973 C.ar      1 <0>         0.0000
      7 C7         -0.1165   -2.1220    1.7510 C.2       1 <0>         0.0000
      8 C8          0.4119   -5.4679   -1.0396 C.3       1 <0>         0.0000
      9 C9         -0.4938   -0.7606    3.6416 C.3       1 <0>         0.0000
     10 O1         -0.2777   -3.1150    2.4344 O.2       1 <0>         0.0000
     11 O2          0.6691   -4.6933   -2.1699 O.3       1 <0>         0.0000
     12 O3          0.1977   -4.6360    0.0594 O.3       1 <0>         0.0000
     13 O4         -0.1973   -0.8576    2.2325 O.3       1 <0>         0.0000
     14 F1          1.4480   -6.2963   -0.7989 F         1 <0>         0.0000
     15 F2         -0.6683   -6.2482   -1.2477 F         1 <0>         0.0000
     16 H1          0.7944   -0.0797   -2.3779 H         1 <0>         0.0000
     17 H2          0.2833   -0.0092    0.0399 H         1 <0>         0.0000
     18 H3          1.0090   -2.2829   -3.5739 H         1 <0>         0.0000
     19 H4         -0.5211    0.3070    3.8585 H         1 <0>         0.0000
     20 H5          0.2838   -1.2549    4.2281 H         1 <0>         0.0000
     21 H6         -1.4585   -1.2244    3.8592 H         1 <0>         0.0000
@<TRIPOS>BOND
     1    1    2 ar
     2    1    3 ar
     3    1   16 1
     4    2    4 ar
     5    2   17 1
     6    3    5 ar
     7    3   18 1
     8    4    6 ar
     9    4    7 1
    10    5    6 ar
    11    5   11 1
    12    6   12 1
    13    7   10 2
    14    7   13 1
    15    8   11 1
    16    8   12 1
    17    8   14 1
    18    8   15 1
    19    9   13 1
    20    9   19 1
    21    9   20 1
    22    9   21 1
