@<TRIPOS>MOLECULE
*****
   25    26     0     0     0
SMALL
NO_CHARGES

@<TRIPOS>ATOM
      1 C1          4.8933   -2.2658   -0.1565 C.ar      1 <0>         0.0000
      2 C2          4.6487   -1.0742   -0.8464 C.ar      1 <0>         0.0000
      3 C3          4.3368   -2.4666    1.1075 C.ar      1 <0>         0.0000
      4 C4          3.8489   -0.0828   -0.2723 C.ar      1 <0>         0.0000
      5 C5          7.0062   -2.3984    3.9930 C.2       1 <0>         0.0000
      6 C6          5.0685   -3.2671    4.6424 C.2       1 <0>         0.0000
      7 C7          6.4094   -3.5866    4.5043 C.2       1 <0>         0.0000
      8 C8          3.5337   -1.4826    1.6900 C.ar      1 <0>         0.0000
      9 C9          3.2962   -0.2890    0.9933 C.ar      1 <0>         0.0000
     10 C10         3.7098   -1.2321    4.0427 C.3       1 <0>         0.0000
     11 N1          6.1076   -1.4285    3.8212 N.2       1 <0>         0.0000
     12 N2          4.9355   -1.9576    4.2402 N.pl3     1 <0>         0.0000
     13 N3          7.0749   -4.7724    4.8789 N.pl3     1 <0>         0.0000
     14 O1          2.9538   -1.7109    2.9233 O.3       1 <0>         0.0000
     15 Cl1         2.2973    0.9572    1.7168 Cl        1 <0>         0.0000
     16 H1          5.5185   -3.0358   -0.5999 H         1 <0>         0.0000
     17 H2          5.0776   -0.9109   -1.8311 H         1 <0>         0.0000
     18 H3          4.5190   -3.3784    1.6687 H         1 <0>         0.0000
     19 H4          3.6501    0.8462   -0.7973 H         1 <0>         0.0000
     20 H5          8.0487   -2.2192    3.7565 H         1 <0>         0.0000
     21 H6          4.2225   -3.8439    4.9908 H         1 <0>         0.0000
     22 H7          3.0494   -1.3700    4.9000 H         1 <0>         0.0000
     23 H8          3.9761   -0.1804    3.9217 H         1 <0>         0.0000
     24 H9          7.8688   -4.9712    4.2785 H         1 <0>         0.0000
     25 H10         6.4582   -5.5782    4.8911 H         1 <0>         0.0000
@<TRIPOS>BOND
     1    1    2 ar
     2    1    3 ar
     3    1   16 1
     4    2    4 ar
     5    2   17 1
     6    3    8 ar
     7    3   18 1
     8    4    9 ar
     9    4   19 1
    10    5    7 1
    11    5   11 2
    12    5   20 1
    13    6    7 2
    14    6   12 1
    15    6   21 1
    16    7   13 1
    17    8    9 ar
    18    8   14 1
    19    9   15 1
    20   10   12 1
    21   10   14 1
    22   10   22 1
    23   10   23 1
    24   11   12 1
    25   13   24 1
    26   13   25 1
