@<TRIPOS>MOLECULE
*****
   31    32     0     0     0
SMALL
NO_CHARGES

@<TRIPOS>ATOM
      1 C1          7.6002   -3.2799   -3.2105 C.ar      1 <0>         0.0000
      2 C2          6.5630   -2.6900   -3.9394 C.ar      1 <0>         0.0000
      3 C3          7.4814   -3.4332   -1.8199 C.ar      1 <0>         0.0000
      4 C4          5.4108   -2.2543   -3.2810 C.ar      1 <0>         0.0000
      5 C5          6.3357   -3.0026   -1.1565 C.ar      1 <0>         0.0000
      6 C6          1.7869   -0.9420   -0.2210 C.ar      1 <0>         0.0000
      7 C7          0.4558   -0.7316    1.7675 C.ar      1 <0>         0.0000
      8 C8          0.6220   -0.4880    0.3938 C.ar      1 <0>         0.0000
      9 C9          5.2913   -2.4087   -1.8914 C.ar      1 <0>         0.0000
     10 C10         2.7858   -1.6248    0.4926 C.ar      1 <0>         0.0000
     11 C11         2.6214   -1.8663    1.8776 C.ar      1 <0>         0.0000
     12 C12         1.4385   -1.4069    2.4819 C.ar      1 <0>         0.0000
     13 C13        -0.1507    1.8133   -0.3386 C.3       1 <0>         0.0000
     14 C14        -0.4174    0.2981   -0.3754 C.3       1 <0>         0.0000
     15 N1          4.0809   -1.9343   -1.3256 N.2       1 <0>         0.0000
     16 N2          3.9869   -2.1036   -0.0767 N.2       1 <0>         0.0000
     17 O1          3.5919   -2.5286    2.5533 O.3       1 <0>         0.0000
     18 Br1         1.1839   -1.7431    4.3614 Br        1 <0>         0.0000
     19 H1          8.4987   -3.6197   -3.7192 H         1 <0>         0.0000
     20 H2          6.6516   -2.5701   -5.0159 H         1 <0>         0.0000
     21 H3          8.2905   -3.8918   -1.2570 H         1 <0>         0.0000
     22 H4          4.5903   -1.7929   -3.8236 H         1 <0>         0.0000
     23 H5          6.2262   -3.1139   -0.0829 H         1 <0>         0.0000
     24 H6          1.9542   -0.7768   -1.2807 H         1 <0>         0.0000
     25 H7         -0.4418   -0.3946    2.2781 H         1 <0>         0.0000
     26 H8         -0.1548    2.1866    0.6910 H         1 <0>         0.0000
     27 H9         -0.9145    2.3593   -0.9026 H         1 <0>         0.0000
     28 H10         0.8274    2.0465   -0.7720 H         1 <0>         0.0000
     29 H11        -0.4329   -0.0430   -1.4163 H         1 <0>         0.0000
     30 H12        -1.4125    0.0937    0.0356 H         1 <0>         0.0000
     31 H13         3.3156   -2.6082    3.4854 H         1 <0>         0.0000
@<TRIPOS>BOND
     1    1    3 ar
     2    1    2 ar
     3    1   19 1
     4    2    4 ar
     5    2   20 1
     6    3    5 ar
     7    3   21 1
     8    4    9 ar
     9    4   22 1
    10    5    9 ar
    11    5   23 1
    12    6    8 ar
    13    6   10 ar
    14    6   24 1
    15    7    8 ar
    16    7   12 ar
    17    7   25 1
    18    8   14 1
    19    9   15 1
    20   10   11 ar
    21   10   16 1
    22   11   12 ar
    23   11   17 1
    24   12   18 1
    25   13   14 1
    26   13   26 1
    27   13   27 1
    28   13   28 1
    29   14   29 1
    30   14   30 1
    31   15   16 2
    32   17   31 1
