@<TRIPOS>MOLECULE
*****
   23    24     0     0     0
SMALL
NO_CHARGES

@<TRIPOS>ATOM
      1 C1         -3.1214   -4.4861    0.2115 C.ar      1 <0>         0.0000
      2 C2         -3.4239   -4.3484    1.5611 C.ar      1 <0>         0.0000
      3 C3         -1.9425   -2.4081    1.6538 C.ar      1 <0>         0.0000
      4 C4         -1.6188   -2.5387    0.2992 C.ar      1 <0>         0.0000
      5 C5         -2.2221   -3.6059   -0.3997 C.ar      1 <0>         0.0000
      6 C6         -2.8177   -3.3061    2.2567 C.ar      1 <0>         0.0000
      7 C7          0.6594   -0.3332    1.1944 C.2       1 <0>         0.0000
      8 C8          0.8110   -2.0241   -0.3551 C.3       1 <0>         0.0000
      9 C9         -0.6622   -1.5333   -0.3430 C.3       1 <0>         0.0000
     10 N1         -0.4880   -0.3152    0.4225 N.am      1 <0>         0.0000
     11 N2         -1.9282   -3.8611   -1.8161 N.pl3     1 <0>         0.0000
     12 O1         -0.8631   -3.4229   -2.2772 O.3       1 <0>         0.0000
     13 O2          0.9681    0.4287    2.0815 O.2       1 <0>         0.0000
     14 O3         -2.7476   -4.5131   -2.4685 O.2       1 <0>         0.0000
     15 O4          1.4257   -1.3935    0.7870 O.3       1 <0>         0.0000
     16 F1         -3.0933   -3.1521    3.5664 F         1 <0>         0.0000
     17 H1         -3.5670   -5.2756   -0.3819 H         1 <0>         0.0000
     18 H2         -4.1063   -5.0227    2.0676 H         1 <0>         0.0000
     19 H3         -1.5184   -1.6114    2.2548 H         1 <0>         0.0000
     20 H4          0.9064   -3.1025   -0.2459 H         1 <0>         0.0000
     21 H5          1.3221   -1.6953   -1.2631 H         1 <0>         0.0000
     22 H6         -0.9880   -1.3107   -1.3580 H         1 <0>         0.0000
     23 H7         -1.2508    0.2866    0.7026 H         1 <0>         0.0000
@<TRIPOS>BOND
     1    1    2 ar
     2    1    5 ar
     3    1   17 1
     4    2    6 ar
     5    2   18 1
     6    3    4 ar
     7    3    6 ar
     8    3   19 1
     9    4    5 ar
    10    4    9 1
    11    5   11 1
    12    6   16 1
    13    7   10 am
    14    7   13 2
    15    7   15 1
    16    8    9 1
    17    8   15 1
    18    8   20 1
    19    8   21 1
    20    9   10 1
    21    9   22 1
    22   10   23 1
    23   11   12 1
    24   11   14 2
