@<TRIPOS>MOLECULE
*****
   42    45     0     0     0
SMALL
NO_CHARGES

@<TRIPOS>ATOM
      1 C1          1.8608   -1.3011    1.8042 C.ar      1 <0>         0.0000
      2 C2          0.8934   -1.2414    0.7954 C.ar      1 <0>         0.0000
      3 C3          1.8697   -2.3775    2.7043 C.ar      1 <0>         0.0000
      4 C4         -0.0771   -2.2429    0.6507 C.ar      1 <0>         0.0000
      5 C5         -3.6546   -7.0049    3.1878 C.ar      1 <0>         0.0000
      6 C6         -4.3983   -4.8026    2.5523 C.ar      1 <0>         0.0000
      7 C7          0.9141   -3.3776    2.5719 C.ar      1 <0>         0.0000
      8 C8         -3.6157   -5.9349    2.2919 C.ar      1 <0>         0.0000
      9 C9         -0.0460   -3.3124    1.5503 C.ar      1 <0>         0.0000
     10 C10        -4.4645   -6.9703    4.3269 C.ar      1 <0>         0.0000
     11 C11        -5.2859   -5.8504    4.5783 C.ar      1 <0>         0.0000
     12 C12        -5.2180   -4.7732    3.6776 C.ar      1 <0>         0.0000
     13 C13        -1.9830   -4.6808    0.8190 C.2       1 <0>         0.0000
     14 C14         0.6679   -4.5973    3.4309 C.3       1 <0>         0.0000
     15 C15        -6.0040   -7.7896    7.0025 C.3       1 <0>         0.0000
     16 C16        -0.3464   -5.4150    2.6014 C.3       1 <0>         0.0000
     17 C17        -4.5425   -7.8398    6.5590 C.3       1 <0>         0.0000
     18 C18        -6.8283   -6.9443    6.0310 C.3       1 <0>         0.0000
     19 C19        -2.7356   -5.9891    1.0550 C.3       1 <0>         0.0000
     20 N1         -0.8890   -4.4513    1.6138 N.am      1 <0>         0.0000
     21 O1         -2.3776   -3.8723   -0.0232 O.2       1 <0>         0.0000
     22 O2         -4.4255   -8.0793    5.1427 O.3       1 <0>         0.0000
     23 O3         -6.1242   -5.7439    5.6576 O.3       1 <0>         0.0000
     24 Cl1        -6.2138   -3.3641    3.9748 Cl        1 <0>         0.0000
     25 H1          2.6036   -0.5130    1.8926 H         1 <0>         0.0000
     26 H2          0.8892   -0.4029    0.1037 H         1 <0>         0.0000
     27 H3          2.6128   -2.4272    3.4970 H         1 <0>         0.0000
     28 H4         -0.8285   -2.1982   -0.1254 H         1 <0>         0.0000
     29 H5         -3.0441   -7.8906    3.0331 H         1 <0>         0.0000
     30 H6         -4.3794   -3.9513    1.8793 H         1 <0>         0.0000
     31 H7          1.5763   -5.1699    3.6366 H         1 <0>         0.0000
     32 H8          0.2364   -4.3039    4.3950 H         1 <0>         0.0000
     33 H9         -6.4315   -8.7977    7.0426 H         1 <0>         0.0000
     34 H10        -6.0468   -7.3699    8.0140 H         1 <0>         0.0000
     35 H11         0.1519   -6.2366    2.0728 H         1 <0>         0.0000
     36 H12        -1.1471   -5.8287    3.2139 H         1 <0>         0.0000
     37 H13        -4.0279   -6.9067    6.8098 H         1 <0>         0.0000
     38 H14        -4.0115   -8.6652    7.0390 H         1 <0>         0.0000
     39 H15        -7.0733   -7.5126    5.1283 H         1 <0>         0.0000
     40 H16        -7.7607   -6.6056    6.4880 H         1 <0>         0.0000
     41 H17        -2.0475   -6.8366    1.1275 H         1 <0>         0.0000
     42 H18        -3.3500   -6.1360    0.1629 H         1 <0>         0.0000
@<TRIPOS>BOND
     1    1    2 ar
     2    1    3 ar
     3    1   25 1
     4    2    4 ar
     5    2   26 1
     6    3    7 ar
     7    3   27 1
     8    4    9 ar
     9    4   28 1
    10    5    8 ar
    11    5   10 ar
    12    5   29 1
    13    6    8 ar
    14    6   12 ar
    15    6   30 1
    16    7    9 ar
    17    7   14 1
    18    8   19 1
    19    9   20 1
    20   10   11 ar
    21   10   22 1
    22   11   12 ar
    23   11   23 1
    24   12   24 1
    25   13   19 1
    26   13   20 am
    27   13   21 2
    28   14   16 1
    29   14   31 1
    30   14   32 1
    31   15   17 1
    32   15   18 1
    33   15   33 1
    34   15   34 1
    35   16   20 1
    36   16   35 1
    37   16   36 1
    38   17   22 1
    39   17   37 1
    40   17   38 1
    41   18   23 1
    42   18   39 1
    43   18   40 1
    44   19   41 1
    45   19   42 1
