@<TRIPOS>MOLECULE
*****
   19    20     0     0     0
SMALL
NO_CHARGES

@<TRIPOS>ATOM
      1 C1          0.2032   -0.6280   -0.7396 C.ar      1 <0>         0.0000
      2 C2         -0.6323   -1.6127   -1.2663 C.ar      1 <0>         0.0000
      3 C3          1.5468   -0.5963   -2.7878 C.ar      1 <0>         0.0000
      4 C4          0.7105   -1.5856   -3.3242 C.ar      1 <0>         0.0000
      5 C5          1.2684   -0.1385   -1.5077 C.ar      1 <0>         0.0000
      6 C6         -0.3735   -2.0827   -2.5562 C.ar      1 <0>         0.0000
      7 C7         -0.0653   -3.0350   -4.8020 C.2       1 <0>         0.0000
      8 C8          1.8369    2.1175   -1.1211 C.3       1 <0>         0.0000
      9 N1          0.8518   -2.1480   -4.5846 N.2       1 <0>         0.0000
     10 O1          2.1340    0.8094   -0.9208 O.3       1 <0>         0.0000
     11 F1          1.8504    2.4634   -2.4293 F         1 <0>         0.0000
     12 F2          2.7573    2.8479   -0.4814 F         1 <0>         0.0000
     13 F3          0.6158    2.4547   -0.6412 F         1 <0>         0.0000
     14 S1         -1.2309   -3.3014   -3.4811 S.3       1 <0>         0.0000
     15 S2         -0.1330   -3.9126   -6.3277 S.3       1 <0>         0.0000
     16 H1          0.0422   -0.2361    0.2590 H         1 <0>         0.0000
     17 H2         -1.4592   -1.9990   -0.6786 H         1 <0>         0.0000
     18 H3          2.3831   -0.2071   -3.3578 H         1 <0>         0.0000
     19 H4         -1.2156   -4.6569   -6.0203 H         1 <0>         0.0000
@<TRIPOS>BOND
     1    1    2 ar
     2    1    5 ar
     3    1   16 1
     4    2    6 ar
     5    2   17 1
     6    3    4 ar
     7    3    5 ar
     8    3   18 1
     9    4    6 ar
    10    4    9 1
    11    5   10 1
    12    6   14 1
    13    7    9 2
    14    7   14 1
    15    7   15 1
    16    8   10 1
    17    8   11 1
    18    8   12 1
    19    8   13 1
    20   15   19 1
