@<TRIPOS>MOLECULE
*****
   28    30     0     0     0
SMALL
NO_CHARGES

@<TRIPOS>ATOM
      1 C1          2.4335   -1.4514   -1.2914 C.ar      1 <0>         0.0000
      2 C2          0.5231    1.6276    3.8354 C.ar      1 <0>         0.0000
      3 C3          1.1439    0.8667    2.8237 C.ar      1 <0>         0.0000
      4 C4          3.1666   -1.9670   -2.3555 C.ar      1 <0>         0.0000
      5 C5         -0.9993    0.5193    1.6787 C.ar      1 <0>         0.0000
      6 C6          2.3866   -4.1999   -1.7844 C.ar      1 <0>         0.0000
      7 C7          1.6630   -2.2764   -0.4510 C.ar      1 <0>         0.0000
      8 C8         -0.8437    1.8031    3.7390 C.ar      1 <0>         0.0000
      9 C9         -1.5843    1.2611    2.6861 C.ar      1 <0>         0.0000
     10 C10         0.3905    0.3362    1.7827 C.ar      1 <0>         0.0000
     11 C11         1.6627   -3.6536   -0.7281 C.ar      1 <0>         0.0000
     12 C12         3.1347   -3.3449   -2.5919 C.ar      1 <0>         0.0000
     13 C13         0.8773   -1.7139    0.6816 C.2       1 <0>         0.0000
     14 C14        -3.0096    2.2036    4.1280 C.3       1 <0>         0.0000
     15 O1          0.1615   -2.3349    1.4334 O.2       1 <0>         0.0000
     16 O2         -1.6800    2.5235    4.5675 O.3       1 <0>         0.0000
     17 O3         -2.9077    1.6191    2.8178 O.3       1 <0>         0.0000
     18 O4          1.0704   -0.3535    0.7672 O.3       1 <0>         0.0000
     19 F1          0.9556   -4.5079    0.0274 F         1 <0>         0.0000
     20 Cl1         4.0483   -4.0139   -3.9237 Cl        1 <0>         0.0000
     21 H1          2.4485   -0.3857   -1.0968 H         1 <0>         0.0000
     22 H2          1.0936    2.0561    4.6527 H         1 <0>         0.0000
     23 H3          2.2137    0.6863    2.8475 H         1 <0>         0.0000
     24 H4          3.7539   -1.3159   -2.9939 H         1 <0>         0.0000
     25 H5         -1.5713    0.0936    0.8622 H         1 <0>         0.0000
     26 H6          2.3553   -5.2699   -1.9581 H         1 <0>         0.0000
     27 H7         -3.4548    1.4722    4.8162 H         1 <0>         0.0000
     28 H8         -3.6020    3.1186    4.0698 H         1 <0>         0.0000
@<TRIPOS>BOND
     1    1    4 ar
     2    1    7 ar
     3    1   21 1
     4    2    3 ar
     5    2    8 ar
     6    2   22 1
     7    3   10 ar
     8    3   23 1
     9    4   12 ar
    10    4   24 1
    11    5    9 ar
    12    5   10 ar
    13    5   25 1
    14    6   11 ar
    15    6   12 ar
    16    6   26 1
    17    7   11 ar
    18    7   13 1
    19    8    9 ar
    20    8   16 1
    21    9   17 1
    22   10   18 1
    23   11   19 1
    24   12   20 1
    25   13   15 2
    26   13   18 1
    27   14   16 1
    28   14   17 1
    29   14   27 1
    30   14   28 1
