@<TRIPOS>MOLECULE
*****
   23    24     0     0     0
SMALL
NO_CHARGES

@<TRIPOS>ATOM
      1 C1          2.1020   -1.1664    0.1853 C.ar      1 <0>         0.0000
      2 C2          0.8710   -0.7775    0.7008 C.ar      1 <0>         0.0000
      3 C3          1.6011   -1.5128    2.9048 C.ar      1 <0>         0.0000
      4 C4          2.8506   -1.9000    2.4084 C.ar      1 <0>         0.0000
      5 C5          3.0776   -1.7009    1.0317 C.ar      1 <0>         0.0000
      6 C6          0.6352   -0.9522    2.0667 C.ar      1 <0>         0.0000
      7 C7          3.4641   -2.1146    5.6416 C.2       1 <0>         0.0000
      8 C8          4.8703   -1.4766    3.9392 C.3       1 <0>         0.0000
      9 C9          3.8775   -2.5195    3.3577 C.3       1 <0>         0.0000
     10 N1          3.3124   -3.0101    4.5987 N.am      1 <0>         0.0000
     11 N2          4.3655   -2.0363    0.4083 N.pl3     1 <0>         0.0000
     12 O1          5.3708   -2.0678    1.1342 O.3       1 <0>         0.0000
     13 O2          2.9298   -2.1431    6.7263 O.2       1 <0>         0.0000
     14 O3          4.3808   -2.2508   -0.8064 O.2       1 <0>         0.0000
     15 O4          4.3466   -1.1457    5.2415 O.3       1 <0>         0.0000
     16 Cl1        -0.8997   -0.4690    2.7406 Cl        1 <0>         0.0000
     17 H1          2.3240   -1.0536   -0.8694 H         1 <0>         0.0000
     18 H2          0.1098   -0.3472    0.0589 H         1 <0>         0.0000
     19 H3          1.3733   -1.6455    3.9562 H         1 <0>         0.0000
     20 H4          5.8661   -1.9114    4.0542 H         1 <0>         0.0000
     21 H5          4.9301   -0.5641    3.3498 H         1 <0>         0.0000
     22 H6          4.4256   -3.3077    2.8434 H         1 <0>         0.0000
     23 H7          2.5641   -3.6884    4.6469 H         1 <0>         0.0000
@<TRIPOS>BOND
     1    1    2 ar
     2    1    5 ar
     3    1   17 1
     4    2    6 ar
     5    2   18 1
     6    3    4 ar
     7    3    6 ar
     8    3   19 1
     9    4    5 ar
    10    4    9 1
    11    5   11 1
    12    6   16 1
    13    7   10 am
    14    7   13 2
    15    7   15 1
    16    8    9 1
    17    8   15 1
    18    8   20 1
    19    8   21 1
    20    9   10 1
    21    9   22 1
    22   10   23 1
    23   11   12 1
    24   11   14 2
