@<TRIPOS>MOLECULE
*****
   25    26     0     0     0
SMALL
NO_CHARGES

@<TRIPOS>ATOM
      1 C1         -0.7703   -7.4330   -4.1883 C.ar      1 <0>         0.0000
      2 C2         -0.1698   -7.6718   -2.9454 C.ar      1 <0>         0.0000
      3 C3         -1.4959   -5.2381   -3.3842 C.ar      1 <0>         0.0000
      4 C4         -0.9061   -5.4868   -2.1389 C.ar      1 <0>         0.0000
      5 C5         -1.4171   -6.2187   -4.3708 C.ar      1 <0>         0.0000
      6 C6         -0.2436   -6.7132   -1.9477 C.ar      1 <0>         0.0000
      7 C7          1.0962   -2.3500   -1.6115 C.3       1 <0>         0.0000
      8 C8          0.5638   -2.1669   -3.0352 C.3       1 <0>         0.0000
      9 C9         -1.1831   -2.2217   -1.5026 C.3       1 <0>         0.0000
     10 C10        -1.8069   -3.5330   -1.0196 C.3       1 <0>         0.0000
     11 O1          0.0006   -1.8941   -0.8034 O.3       1 <0>         0.0000
     12 O2         -0.8603   -2.2937   -2.8882 O.3       1 <0>         0.0000
     13 O3         -0.8961   -4.6343   -1.0753 O.3       1 <0>         0.0000
     14 F1         -1.9935   -5.9553   -5.5739 F         1 <0>         0.0000
     15 F2          0.3365   -6.9542   -0.7469 F         1 <0>         0.0000
     16 H1         -0.7336   -8.1623   -4.9902 H         1 <0>         0.0000
     17 H2          0.3506   -8.6022   -2.7408 H         1 <0>         0.0000
     18 H3         -1.9619   -4.2882   -3.6111 H         1 <0>         0.0000
     19 H4          1.3246   -3.3969   -1.3889 H         1 <0>         0.0000
     20 H5          1.9608   -1.7224   -1.3868 H         1 <0>         0.0000
     21 H6          0.7966   -1.1745   -3.4379 H         1 <0>         0.0000
     22 H7          0.9134   -2.9374   -3.7275 H         1 <0>         0.0000
     23 H8         -1.9050   -1.4108   -1.3338 H         1 <0>         0.0000
     24 H9         -2.7228   -3.7438   -1.5822 H         1 <0>         0.0000
     25 H10        -2.0625   -3.4206    0.0376 H         1 <0>         0.0000
@<TRIPOS>BOND
     1    1    2 ar
     2    1    5 ar
     3    1   16 1
     4    2    6 ar
     5    2   17 1
     6    3    4 ar
     7    3    5 ar
     8    3   18 1
     9    4    6 ar
    10    4   13 1
    11    5   14 1
    12    6   15 1
    13    7    8 1
    14    7   11 1
    15    7   19 1
    16    7   20 1
    17    8   12 1
    18    8   21 1
    19    8   22 1
    20    9   10 1
    21    9   12 1
    22    9   11 1
    23    9   23 1
    24   10   13 1
    25   10   24 1
    26   10   25 1
