@<TRIPOS>MOLECULE
*****
   30    31     0     0     0
SMALL
NO_CHARGES

@<TRIPOS>ATOM
      1 C1          3.3762   -0.0526    0.4045 C.ar      1 <0>         0.0000
      2 C2          2.1289   -0.3912   -0.0922 C.ar      1 <0>         0.0000
      3 C3          4.7949    1.4576    1.8168 C.2       1 <0>         0.0000
      4 C4          1.1277    1.4580    1.1067 C.ar      1 <0>         0.0000
      5 C5          3.5367    1.0527    1.2679 C.ar      1 <0>         0.0000
      6 C6          4.9471    2.5312    2.6552 C.2       1 <0>         0.0000
      7 C7          0.9844    0.3653    0.2558 C.ar      1 <0>         0.0000
      8 C8          2.3921    1.8081    1.6151 C.ar      1 <0>         0.0000
      9 C9          3.7624    3.3383    3.0305 C.2       1 <0>         0.0000
     10 C10         6.2976    2.8372    3.1487 C.2       1 <0>         0.0000
     11 C11        -0.3673   -0.0170   -0.2971 C.3       1 <0>         0.0000
     12 C12         8.5189    5.3098    3.8589 C.3       1 <0>         0.0000
     13 C13         8.0007    3.9374    4.3040 C.3       1 <0>         0.0000
     14 N1          6.6014    3.7883    3.9414 N.2       1 <0>         0.0000
     15 N2          2.5614    2.8845    2.4580 N.am      1 <0>         0.0000
     16 O1          3.7383    4.3215    3.7611 O.2       1 <0>         0.0000
     17 H1          4.2512   -0.6386    0.1330 H         1 <0>         0.0000
     18 H2          2.0211   -1.2453   -0.7560 H         1 <0>         0.0000
     19 H3          5.6759    0.8747    1.5492 H         1 <0>         0.0000
     20 H4          0.2579    2.0500    1.3845 H         1 <0>         0.0000
     21 H5          7.0694    2.1446    2.7630 H         1 <0>         0.0000
     22 H6         -0.6256   -1.0456   -0.0222 H         1 <0>         0.0000
     23 H7         -1.1571    0.6407    0.0746 H         1 <0>         0.0000
     24 H8         -0.3704    0.0361   -1.3916 H         1 <0>         0.0000
     25 H9          8.4987    5.3963    2.7676 H         1 <0>         0.0000
     26 H10         7.8924    6.1046    4.2735 H         1 <0>         0.0000
     27 H11         9.5492    5.4596    4.1993 H         1 <0>         0.0000
     28 H12         8.0649    3.8710    5.3976 H         1 <0>         0.0000
     29 H13         8.6379    3.1381    3.8846 H         1 <0>         0.0000
     30 H14         1.7553    3.4435    2.7211 H         1 <0>         0.0000
@<TRIPOS>BOND
     1    1    2 ar
     2    1    5 ar
     3    1   17 1
     4    2    7 ar
     5    2   18 1
     6    3    5 1
     7    3    6 2
     8    3   19 1
     9    4    7 ar
    10    4    8 ar
    11    4   20 1
    12    5    8 ar
    13    6    9 1
    14    6   10 1
    15    7   11 1
    16    8   15 1
    17    9   15 am
    18    9   16 2
    19   10   14 2
    20   10   21 1
    21   11   22 1
    22   11   23 1
    23   11   24 1
    24   12   13 1
    25   12   25 1
    26   12   26 1
    27   12   27 1
    28   13   14 1
    29   13   28 1
    30   13   29 1
    31   15   30 1
