@<TRIPOS>MOLECULE
*****
   38    40     0     0     0
SMALL
NO_CHARGES

@<TRIPOS>ATOM
      1 C1         -6.6927    0.4136   -1.1095 C.2       1 <0>         0.0000
      2 C2         -0.2246   -0.2628   -1.2922 C.2       1 <0>         0.0000
      3 C3         -0.9685   -0.2961   -0.1176 C.2       1 <0>         0.0000
      4 C4         -5.5625   -1.4941   -1.1979 C.2       1 <0>         0.0000
      5 C5         -4.7478   -0.7497   -2.0209 C.2       1 <0>         0.0000
      6 C6         -2.2387   -0.7600   -1.8989 C.2       1 <0>         0.0000
      7 C7          1.2255   -0.0283   -1.5198 C.2       1 <0>         0.0000
      8 C8         -0.7027   -0.0251    1.3330 C.3       1 <0>         0.0000
      9 C9          1.5289    1.0293    0.7909 C.3       1 <0>         0.0000
     10 C10         0.7796    0.0671    1.7450 C.3       1 <0>         0.0000
     11 C11        -5.3740   -2.9349   -0.8137 C.3       1 <0>         0.0000
     12 C12         1.4329   -1.3236    1.7516 C.3       1 <0>         0.0000
     13 C13         0.8366    0.6713    3.1594 C.3       1 <0>         0.0000
     14 C14        -3.4594   -1.1464   -2.6888 C.3       1 <0>         0.0000
     15 N1         -6.6630   -0.8187   -0.6910 N.2       1 <0>         0.0000
     16 N2         -1.0378   -0.5547   -2.3815 N.2       1 <0>         0.0000
     17 N3         -2.2471   -0.6214   -0.5290 N.pl3     1 <0>         0.0000
     18 N4          1.9759    0.4471   -0.4657 N.am      1 <0>         0.0000
     19 O1          1.7631   -0.2799   -2.5973 O.2       1 <0>         0.0000
     20 S1         -5.3806    0.8715   -2.1595 S.3       1 <0>         0.0000
     21 H1         -7.4679    1.1248   -0.8433 H         1 <0>         0.0000
     22 H2         -1.1980    0.9187    1.6024 H         1 <0>         0.0000
     23 H3         -1.1864   -0.8031    1.9384 H         1 <0>         0.0000
     24 H4          0.9019    1.9152    0.6137 H         1 <0>         0.0000
     25 H5          2.4325    1.3802    1.2974 H         1 <0>         0.0000
     26 H6         -5.3672   -3.0394    0.2761 H         1 <0>         0.0000
     27 H7         -6.2054   -3.5401   -1.1899 H         1 <0>         0.0000
     28 H8         -4.4422   -3.3471   -1.2057 H         1 <0>         0.0000
     29 H9          2.5026   -1.2493    1.9756 H         1 <0>         0.0000
     30 H10         1.3309   -1.8277    0.7883 H         1 <0>         0.0000
     31 H11         0.9718   -1.9547    2.5196 H         1 <0>         0.0000
     32 H12         1.8607    0.6607    3.5478 H         1 <0>         0.0000
     33 H13         0.2102    0.1025    3.8553 H         1 <0>         0.0000
     34 H14         0.4841    1.7097    3.1654 H         1 <0>         0.0000
     35 H15        -3.4605   -2.2302   -2.8481 H         1 <0>         0.0000
     36 H16        -3.3651   -0.6960   -3.6801 H         1 <0>         0.0000
     37 H17        -3.0647   -0.6955    0.0654 H         1 <0>         0.0000
     38 H18         2.9448    0.5825   -0.7268 H         1 <0>         0.0000
@<TRIPOS>BOND
     1    1   15 2
     2    1   20 1
     3    1   21 1
     4    2    3 2
     5    2    7 1
     6    2   16 1
     7    3    8 1
     8    3   17 1
     9    4    5 2
    10    4   11 1
    11    4   15 1
    12    5   14 1
    13    5   20 1
    14    6   14 1
    15    6   16 2
    16    6   17 1
    17    7   18 am
    18    7   19 2
    19    8   10 1
    20    8   22 1
    21    8   23 1
    22    9   10 1
    23    9   18 1
    24    9   24 1
    25    9   25 1
    26   10   12 1
    27   10   13 1
    28   11   26 1
    29   11   27 1
    30   11   28 1
    31   12   29 1
    32   12   30 1
    33   12   31 1
    34   13   32 1
    35   13   33 1
    36   13   34 1
    37   14   35 1
    38   14   36 1
    39   17   37 1
    40   18   38 1
