@<TRIPOS>MOLECULE
*****
   25    26     0     0     0
SMALL
NO_CHARGES

@<TRIPOS>ATOM
      1 C1          2.6325   -5.1251    3.4652 C.ar      1 <0>         0.0000
      2 C2          1.4627   -4.7634    4.1420 C.ar      1 <0>         0.0000
      3 C3          3.4375   -4.1416    2.8893 C.ar      1 <0>         0.0000
      4 C4          1.0977   -3.4183    4.2405 C.ar      1 <0>         0.0000
      5 C5          7.2113   -3.5754    4.1182 C.2       1 <0>         0.0000
      6 C6          5.4871   -2.6516    5.1639 C.2       1 <0>         0.0000
      7 C7          6.4664   -3.6149    5.3313 C.2       1 <0>         0.0000
      8 C8          3.0813   -2.7920    2.9785 C.ar      1 <0>         0.0000
      9 C9          1.9070   -2.4385    3.6601 C.ar      1 <0>         0.0000
     10 C10         4.8183   -1.1885    3.2316 C.3       1 <0>         0.0000
     11 N1          6.7284   -2.6684    3.2674 N.2       1 <0>         0.0000
     12 N2          5.6926   -2.0947    3.9204 N.pl3     1 <0>         0.0000
     13 N3          6.7427   -4.4002    6.4710 N.pl3     1 <0>         0.0000
     14 O1          3.8783   -1.8480    2.3685 O.3       1 <0>         0.0000
     15 Cl1         1.4422   -0.7510    3.7848 Cl        1 <0>         0.0000
     16 H1          2.9189   -6.1703    3.3884 H         1 <0>         0.0000
     17 H2          0.8291   -5.5232    4.5910 H         1 <0>         0.0000
     18 H3          4.3584   -4.3885    2.3696 H         1 <0>         0.0000
     19 H4          0.1894   -3.1237    4.7569 H         1 <0>         0.0000
     20 H5          8.0816   -4.1622    3.8469 H         1 <0>         0.0000
     21 H6          4.6818   -2.3239    5.8072 H         1 <0>         0.0000
     22 H7          4.2908   -0.5885    3.9781 H         1 <0>         0.0000
     23 H8          5.4079   -0.5554    2.5708 H         1 <0>         0.0000
     24 H9          7.1277   -5.3059    6.2223 H         1 <0>         0.0000
     25 H10         5.9207   -4.5410    7.0496 H         1 <0>         0.0000
@<TRIPOS>BOND
     1    1    2 ar
     2    1    3 ar
     3    1   16 1
     4    2    4 ar
     5    2   17 1
     6    3    8 ar
     7    3   18 1
     8    4    9 ar
     9    4   19 1
    10    5    7 1
    11    5   11 2
    12    5   20 1
    13    6    7 2
    14    6   12 1
    15    6   21 1
    16    7   13 1
    17    8    9 ar
    18    8   14 1
    19    9   15 1
    20   10   12 1
    21   10   14 1
    22   10   22 1
    23   10   23 1
    24   11   12 1
    25   13   24 1
    26   13   25 1
