@<TRIPOS>MOLECULE
*****
   28    30     0     0     0
SMALL
NO_CHARGES

@<TRIPOS>ATOM
      1 C1          0.6541   -3.3482    1.4419 C.ar      1 <0>         0.0000
      2 C2          0.4520    2.3847    1.8729 C.ar      1 <0>         0.0000
      3 C3          0.5380    1.5472    0.7436 C.ar      1 <0>         0.0000
      4 C4          1.3472   -3.8265    2.5518 C.ar      1 <0>         0.0000
      5 C5         -1.0059   -0.0711    1.7529 C.ar      1 <0>         0.0000
      6 C6          2.9592   -2.0179    2.3043 C.ar      1 <0>         0.0000
      7 C7          1.0670   -2.1912    0.7672 C.ar      1 <0>         0.0000
      8 C8         -0.3497    1.9595    2.9156 C.ar      1 <0>         0.0000
      9 C9         -1.0607    0.7613    2.8542 C.ar      1 <0>         0.0000
     10 C10        -0.1691    0.3504    0.7013 C.ar      1 <0>         0.0000
     11 C11         2.2335   -1.5648    1.2092 C.ar      1 <0>         0.0000
     12 C12         2.4936   -3.1483    2.9769 C.ar      1 <0>         0.0000
     13 C13         0.2804   -1.7288   -0.4231 C.2       1 <0>         0.0000
     14 C14        -1.4939    1.7258    4.8396 C.3       1 <0>         0.0000
     15 O1         -0.0349   -2.4712   -1.3235 O.2       1 <0>         0.0000
     16 O2         -0.5999    2.5885    4.1160 O.3       1 <0>         0.0000
     17 O3         -1.7877    0.5866    4.0082 O.3       1 <0>         0.0000
     18 O4         -0.0955   -0.4134   -0.4698 O.3       1 <0>         0.0000
     19 F1          2.7086   -0.4939    0.5355 F         1 <0>         0.0000
     20 Cl1         3.3774   -3.7328    4.3691 Cl        1 <0>         0.0000
     21 H1         -0.2303   -3.8692    1.0878 H         1 <0>         0.0000
     22 H2          0.9968    3.3215    1.9240 H         1 <0>         0.0000
     23 H3          1.1633    1.8179   -0.0997 H         1 <0>         0.0000
     24 H4          1.0098   -4.7127    3.0783 H         1 <0>         0.0000
     25 H5         -1.5778   -0.9906    1.6976 H         1 <0>         0.0000
     26 H6          3.8638   -1.5020    2.6071 H         1 <0>         0.0000
     27 H7         -1.0051    1.3844    5.7587 H         1 <0>         0.0000
     28 H8         -2.4230    2.2635    5.0545 H         1 <0>         0.0000
@<TRIPOS>BOND
     1    1    4 ar
     2    1    7 ar
     3    1   21 1
     4    2    3 ar
     5    2    8 ar
     6    2   22 1
     7    3   10 ar
     8    3   23 1
     9    4   12 ar
    10    4   24 1
    11    5    9 ar
    12    5   10 ar
    13    5   25 1
    14    6   11 ar
    15    6   12 ar
    16    6   26 1
    17    7   11 ar
    18    7   13 1
    19    8    9 ar
    20    8   16 1
    21    9   17 1
    22   10   18 1
    23   11   19 1
    24   12   20 1
    25   13   15 2
    26   13   18 1
    27   14   16 1
    28   14   17 1
    29   14   27 1
    30   14   28 1
