@<TRIPOS>MOLECULE
*****
   25    26     0     0     0
SMALL
NO_CHARGES

@<TRIPOS>ATOM
      1 C1          2.0750    0.2950    1.0564 C.ar      1 <0>         0.0000
      2 C2          2.0416   -0.1866   -0.2520 C.ar      1 <0>         0.0000
      3 C3          2.9313   -0.2776    2.0035 C.ar      1 <0>         0.0000
      4 C4          2.8739   -1.2511   -0.6157 C.ar      1 <0>         0.0000
      5 C5          6.5446   -3.6645    5.8059 C.2       1 <0>         0.0000
      6 C6          7.1392   -2.1692    4.2762 C.2       1 <0>         0.0000
      7 C7          7.6713   -3.1348    5.1128 C.2       1 <0>         0.0000
      8 C8          3.7697   -1.3447    1.6479 C.ar      1 <0>         0.0000
      9 C9          3.7295   -1.8223    0.3223 C.ar      1 <0>         0.0000
     10 C10         4.7922   -1.4102    3.8092 C.3       1 <0>         0.0000
     11 N1          5.4085   -3.0836    5.4222 N.2       1 <0>         0.0000
     12 N2          5.7820   -2.1640    4.5030 N.pl3     1 <0>         0.0000
     13 N3          9.0258   -3.4687    5.3236 N.pl3     1 <0>         0.0000
     14 O1          4.6307   -1.9698    2.5003 O.3       1 <0>         0.0000
     15 Cl1         4.7713   -3.1484   -0.1459 Cl        1 <0>         0.0000
     16 H1          1.4324    1.1194    1.3527 H         1 <0>         0.0000
     17 H2          1.3768    0.2552   -0.9883 H         1 <0>         0.0000
     18 H3          2.9319    0.1079    3.0167 H         1 <0>         0.0000
     19 H4          2.8651   -1.6423   -1.6284 H         1 <0>         0.0000
     20 H5          6.5280   -4.4348    6.5681 H         1 <0>         0.0000
     21 H6          7.5971   -1.5132    3.5486 H         1 <0>         0.0000
     22 H7          3.8661   -1.4845    4.3847 H         1 <0>         0.0000
     23 H8          5.1075   -0.3640    3.7173 H         1 <0>         0.0000
     24 H9          9.6053   -3.2459    4.5206 H         1 <0>         0.0000
     25 H10         9.1416   -4.4523    5.5473 H         1 <0>         0.0000
@<TRIPOS>BOND
     1    1    2 ar
     2    1    3 ar
     3    1   16 1
     4    2    4 ar
     5    2   17 1
     6    3    8 ar
     7    3   18 1
     8    4    9 ar
     9    4   19 1
    10    5    7 1
    11    5   11 2
    12    5   20 1
    13    6    7 2
    14    6   12 1
    15    6   21 1
    16    7   13 1
    17    8    9 ar
    18    8   14 1
    19    9   15 1
    20   10   12 1
    21   10   14 1
    22   10   22 1
    23   10   23 1
    24   11   12 1
    25   13   24 1
    26   13   25 1
