@<TRIPOS>MOLECULE
*****
   25    26     0     0     0
SMALL
NO_CHARGES

@<TRIPOS>ATOM
      1 C1          2.6943   -5.2232    3.2201 C.ar      1 <0>         0.0000
      2 C2          1.3525   -5.0599    3.5789 C.ar      1 <0>         0.0000
      3 C3          3.4940   -4.1042    2.9832 C.ar      1 <0>         0.0000
      4 C4          0.8105   -3.7781    3.7022 C.ar      1 <0>         0.0000
      5 C5          6.2139   -3.5448    5.7614 C.2       1 <0>         0.0000
      6 C6          6.6188   -2.3687    3.9219 C.2       1 <0>         0.0000
      7 C7          7.1675   -3.3596    4.7194 C.2       1 <0>         0.0000
      8 C8          2.9614   -2.8178    3.1016 C.ar      1 <0>         0.0000
      9 C9          1.6160   -2.6624    3.4653 C.ar      1 <0>         0.0000
     10 C10         4.4146   -1.1490    3.9580 C.3       1 <0>         0.0000
     11 N1          5.1599   -2.7415    5.6150 N.2       1 <0>         0.0000
     12 N2          5.4249   -2.0126    4.5069 N.pl3     1 <0>         0.0000
     13 N3          8.4283   -3.9819    4.6084 N.pl3     1 <0>         0.0000
     14 O1          3.7515   -1.7189    2.8226 O.3       1 <0>         0.0000
     15 Cl1         0.9378   -1.0535    3.6258 Cl        1 <0>         0.0000
     16 H1          3.1184   -6.2192    3.1281 H         1 <0>         0.0000
     17 H2          0.7235   -5.9261    3.7641 H         1 <0>         0.0000
     18 H3          4.5411   -4.2029    2.7129 H         1 <0>         0.0000
     19 H4         -0.2296   -3.6371    3.9789 H         1 <0>         0.0000
     20 H5          6.2657   -4.2220    6.6060 H         1 <0>         0.0000
     21 H6          6.9724   -1.8943    3.0164 H         1 <0>         0.0000
     22 H7          3.7091   -0.9303    4.7618 H         1 <0>         0.0000
     23 H8          4.8694   -0.2325    3.5795 H         1 <0>         0.0000
     24 H9          8.7902   -3.9632    3.6606 H         1 <0>         0.0000
     25 H10         8.4116   -4.9414    4.9390 H         1 <0>         0.0000
@<TRIPOS>BOND
     1    1    2 ar
     2    1    3 ar
     3    1   16 1
     4    2    4 ar
     5    2   17 1
     6    3    8 ar
     7    3   18 1
     8    4    9 ar
     9    4   19 1
    10    5    7 1
    11    5   11 2
    12    5   20 1
    13    6    7 2
    14    6   12 1
    15    6   21 1
    16    7   13 1
    17    8    9 ar
    18    8   14 1
    19    9   15 1
    20   10   12 1
    21   10   14 1
    22   10   22 1
    23   10   23 1
    24   11   12 1
    25   13   24 1
    26   13   25 1
