@<TRIPOS>MOLECULE
*****
   28    29     0     0     0
SMALL
NO_CHARGES

@<TRIPOS>ATOM
      1 C1          2.9520   -4.1542   -0.6789 C.ar      1 <0>         0.0000
      2 C2          2.3481   -5.0917   -1.5239 C.ar      1 <0>         0.0000
      3 C3          0.7782   -3.4681    0.1083 C.ar      1 <0>         0.0000
      4 C4          2.1740   -3.3333    0.1467 C.ar      1 <0>         0.0000
      5 C5          0.1551   -4.4112   -0.7152 C.ar      1 <0>         0.0000
      6 C6          0.9671   -5.2101   -1.5303 C.ar      1 <0>         0.0000
      7 C7         -2.2887   -7.5288   -1.0776 C.3       1 <0>         0.0000
      8 C8         -1.1989   -7.9584   -0.0974 C.3       1 <0>         0.0000
      9 C9         -2.3044   -6.0925    0.7125 C.3       1 <0>         0.0000
     10 C10         2.8145   -2.3241    1.0729 C.3       1 <0>         0.0000
     11 C11        -1.9728   -4.6374    0.3790 C.3       1 <0>         0.0000
     12 O1         -3.1343   -6.7054   -0.2584 O.3       1 <0>         0.0000
     13 O2         -1.1004   -6.8434    0.8018 O.3       1 <0>         0.0000
     14 O3         -1.2057   -4.5416   -0.8263 O.3       1 <0>         0.0000
     15 F1          0.3844   -6.1275   -2.3479 F         1 <0>         0.0000
     16 H1          4.0348   -4.0623   -0.6706 H         1 <0>         0.0000
     17 H2          2.9355   -5.7336   -2.1740 H         1 <0>         0.0000
     18 H3          0.1626   -2.8148    0.7212 H         1 <0>         0.0000
     19 H4         -1.8802   -6.9492   -1.9091 H         1 <0>         0.0000
     20 H5         -2.8913   -8.3600   -1.4509 H         1 <0>         0.0000
     21 H6         -1.4833   -8.8595    0.4610 H         1 <0>         0.0000
     22 H7         -0.2256   -8.1047   -0.5702 H         1 <0>         0.0000
     23 H8         -2.8469   -6.1206    1.6699 H         1 <0>         0.0000
     24 H9          2.2765   -1.3707    1.0594 H         1 <0>         0.0000
     25 H10         2.8151   -2.6851    2.1083 H         1 <0>         0.0000
     26 H11         3.8526   -2.1285    0.7905 H         1 <0>         0.0000
     27 H12        -1.4442   -4.1924    1.2273 H         1 <0>         0.0000
     28 H13        -2.9038   -4.0892    0.2112 H         1 <0>         0.0000
@<TRIPOS>BOND
     1    1    2 ar
     2    1    4 ar
     3    1   16 1
     4    2    6 ar
     5    2   17 1
     6    3    4 ar
     7    3    5 ar
     8    3   18 1
     9    4   10 1
    10    5    6 ar
    11    5   14 1
    12    6   15 1
    13    7    8 1
    14    7   12 1
    15    7   19 1
    16    7   20 1
    17    8   13 1
    18    8   21 1
    19    8   22 1
    20    9   11 1
    21    9   13 1
    22    9   12 1
    23    9   23 1
    24   10   24 1
    25   10   25 1
    26   10   26 1
    27   11   14 1
    28   11   27 1
    29   11   28 1
