@<TRIPOS>MOLECULE
*****
   35    37     0     0     0
SMALL
NO_CHARGES

@<TRIPOS>ATOM
      1 C1          2.7257    2.2691   -2.5876 C.ar      1 <0>         0.0000
      2 C2          3.9080    1.1613   -0.7870 C.ar      1 <0>         0.0000
      3 C3          5.1481    2.4746   -2.4109 C.ar      1 <0>         0.0000
      4 C4          2.7055    1.4546   -1.4368 C.ar      1 <0>         0.0000
      5 C5          3.9369    2.7632   -3.0549 C.ar      1 <0>         0.0000
      6 C6          5.1233    1.6665   -1.2679 C.ar      1 <0>         0.0000
      7 C7          0.0242   -0.1389    0.3253 C.2       1 <0>         0.0000
      8 C8         -0.7090    0.4382   -0.6864 C.2       1 <0>         0.0000
      9 C9          1.4609    0.9055   -0.9000 C.2       1 <0>         0.0000
     10 C10        -0.6094   -0.9611    1.4050 C.3       1 <0>         0.0000
     11 C11        -2.1881    0.3237   -0.8570 C.3       1 <0>         0.0000
     12 C12        -2.6508   -0.8406    0.0421 C.3       1 <0>         0.0000
     13 C13         7.4967    1.8033   -0.9977 C.3       1 <0>         0.0000
     14 C14         3.9847    3.6347   -4.2814 C.3       1 <0>         0.0000
     15 N1          1.3603    0.1475    0.1881 N.2       1 <0>         0.0000
     16 N2          0.2158    1.1086   -1.4639 N.pl3     1 <0>         0.0000
     17 N3         -2.0628   -0.7064    1.3825 N.3       1 <0>         0.0000
     18 O1          6.2326    1.3154   -0.5541 O.3       1 <0>         0.0000
     19 F1          2.7596    3.8479   -4.8205 F         1 <0>         0.0000
     20 F2          4.5173    4.8572   -4.0135 F         1 <0>         0.0000
     21 F3          4.7576    3.0899   -5.2594 F         1 <0>         0.0000
     22 H1          1.8154    2.5234   -3.1185 H         1 <0>         0.0000
     23 H2          3.9010    0.5363    0.0995 H         1 <0>         0.0000
     24 H3          6.0733    2.8780   -2.8042 H         1 <0>         0.0000
     25 H4         -0.3595   -2.0269    1.2519 H         1 <0>         0.0000
     26 H5         -0.2143   -0.6705    2.3840 H         1 <0>         0.0000
     27 H6         -2.6916    1.2495   -0.5509 H         1 <0>         0.0000
     28 H7         -2.4679    0.1209   -1.8983 H         1 <0>         0.0000
     29 H8         -3.7401   -0.8186    0.1418 H         1 <0>         0.0000
     30 H9         -2.3776   -1.7933   -0.4469 H         1 <0>         0.0000
     31 H10         8.2304    1.4088   -0.2941 H         1 <0>         0.0000
     32 H11         7.5294    2.8994   -0.9807 H         1 <0>         0.0000
     33 H12         7.7311    1.4439   -2.0071 H         1 <0>         0.0000
     34 H13         0.0107    1.6414   -2.2981 H         1 <0>         0.0000
     35 H14        -2.5241   -1.3514    2.0186 H         1 <0>         0.0000
@<TRIPOS>BOND
     1    1    4 ar
     2    1    5 ar
     3    1   22 1
     4    2    4 ar
     5    2    6 ar
     6    2   23 1
     7    3    5 ar
     8    3    6 ar
     9    3   24 1
    10    4    9 1
    11    5   14 1
    12    6   18 1
    13    7    8 2
    14    7   10 1
    15    7   15 1
    16    8   11 1
    17    8   16 1
    18    9   15 2
    19    9   16 1
    20   10   17 1
    21   10   25 1
    22   10   26 1
    23   11   12 1
    24   11   27 1
    25   11   28 1
    26   12   17 1
    27   12   29 1
    28   12   30 1
    29   13   18 1
    30   13   31 1
    31   13   32 1
    32   13   33 1
    33   14   19 1
    34   14   20 1
    35   14   21 1
    36   16   34 1
    37   17   35 1
