@<TRIPOS>MOLECULE
*****
   25    26     0     0     0
SMALL
NO_CHARGES

@<TRIPOS>ATOM
      1 C1          1.6238   -4.1815    4.6296 C.ar      1 <0>         0.0000
      2 C2          0.9975   -5.0261    3.7122 C.ar      1 <0>         0.0000
      3 C3          2.6163   -3.2865    4.2169 C.ar      1 <0>         0.0000
      4 C4          1.3701   -4.9772    2.3653 C.ar      1 <0>         0.0000
      5 C5          6.3823   -2.6568    5.9709 C.2       1 <0>         0.0000
      6 C6          6.6065   -2.8610    3.7709 C.2       1 <0>         0.0000
      7 C7          7.1902   -3.2562    4.9645 C.2       1 <0>         0.0000
      8 C8          2.9872   -3.2262    2.8674 C.ar      1 <0>         0.0000
      9 C9          2.3569   -4.0864    1.9488 C.ar      1 <0>         0.0000
     10 C10         4.5898   -1.4549    3.2060 C.3       1 <0>         0.0000
     11 N1          5.3740   -1.9584    5.4435 N.2       1 <0>         0.0000
     12 N2          5.5255   -2.0831    4.1066 N.pl3     1 <0>         0.0000
     13 N3          8.3700   -4.0039    5.1599 N.pl3     1 <0>         0.0000
     14 O1          3.9327   -2.3765    2.3495 O.3       1 <0>         0.0000
     15 Cl1         2.8156   -4.0349    0.2580 Cl        1 <0>         0.0000
     16 H1          1.3502   -4.2164    5.6805 H         1 <0>         0.0000
     17 H2          0.2285   -5.7221    4.0345 H         1 <0>         0.0000
     18 H3          3.1114   -2.6645    4.9533 H         1 <0>         0.0000
     19 H4          0.8992   -5.6251    1.6324 H         1 <0>         0.0000
     20 H5          6.4996   -2.7096    7.0470 H         1 <0>         0.0000
     21 H6          6.8533   -3.0751    2.7400 H         1 <0>         0.0000
     22 H7          3.8904   -0.8847    3.8224 H         1 <0>         0.0000
     23 H8          5.1148   -0.7889    2.5186 H         1 <0>         0.0000
     24 H9          8.5761   -4.6133    4.3749 H         1 <0>         0.0000
     25 H10         8.3305   -4.5612    6.0074 H         1 <0>         0.0000
@<TRIPOS>BOND
     1    1    2 ar
     2    1    3 ar
     3    1   16 1
     4    2    4 ar
     5    2   17 1
     6    3    8 ar
     7    3   18 1
     8    4    9 ar
     9    4   19 1
    10    5    7 1
    11    5   11 2
    12    5   20 1
    13    6    7 2
    14    6   12 1
    15    6   21 1
    16    7   13 1
    17    8    9 ar
    18    8   14 1
    19    9   15 1
    20   10   12 1
    21   10   14 1
    22   10   22 1
    23   10   23 1
    24   11   12 1
    25   13   24 1
    26   13   25 1
