@<TRIPOS>MOLECULE
*****
   38    40     0     0     0
SMALL
NO_CHARGES

@<TRIPOS>ATOM
      1 C1         -3.3743    3.8125   -9.3808 C.ar      1 <0>         0.0000
      2 C2         -2.5669    3.4862   -8.2918 C.ar      1 <0>         0.0000
      3 C3         -4.2299    2.8649   -9.9522 C.ar      1 <0>         0.0000
      4 C4         -3.4370    1.2142   -8.3444 C.ar      1 <0>         0.0000
      5 C5         -0.8845    1.1472   -4.7503 C.2       1 <0>         0.0000
      6 C6         -2.6093    2.1866   -7.7722 C.ar      1 <0>         0.0000
      7 C7         -4.2464    1.5746   -9.4215 C.ar      1 <0>         0.0000
      8 C8          0.0392    1.9524   -5.4951 C.2       1 <0>         0.0000
      9 C9         -2.0223    1.1295   -5.5471 C.2       1 <0>         0.0000
     10 C10        -0.7305    0.4918   -3.4637 C.2       1 <0>         0.0000
     11 C11         1.9374   -0.2361   -1.2644 C.3       1 <0>         0.0000
     12 C12        -0.3283   -1.0629   -1.1032 C.3       1 <0>         0.0000
     13 C13         2.3536   -1.5810   -1.8643 C.3       1 <0>         0.0000
     14 C14         0.1332   -2.3859   -1.7227 C.3       1 <0>         0.0000
     15 C15         1.4432    2.3189   -5.1361 C.3       1 <0>         0.0000
     16 N1         -0.4995    2.3792   -6.6334 N.2       1 <0>         0.0000
     17 N2          0.3817    0.5768   -2.8120 N.2       1 <0>         0.0000
     18 N3         -1.7702    1.8648   -6.6745 N.pl3     1 <0>         0.0000
     19 N4          0.5255    0.0481   -1.5565 N.pl3     1 <0>         0.0000
     20 O1          1.5034   -2.6350   -1.4016 O.3       1 <0>         0.0000
     21 Cl1        -5.2927    0.3592  -10.1372 Cl        1 <0>         0.0000
     22 Cl2        -3.5574    0.4208   -5.1896 Cl        1 <0>         0.0000
     23 H1         -3.3464    4.8194   -9.7875 H         1 <0>         0.0000
     24 H2         -1.9005    4.2141   -7.8436 H         1 <0>         0.0000
     25 H3         -4.8660    3.1187  -10.7937 H         1 <0>         0.0000
     26 H4         -3.4417    0.1956   -7.9770 H         1 <0>         0.0000
     27 H5         -1.6052   -0.0502   -3.0978 H         1 <0>         0.0000
     28 H6          2.0606   -0.2619   -0.1763 H         1 <0>         0.0000
     29 H7          2.5396    0.5784   -1.6720 H         1 <0>         0.0000
     30 H8         -1.3796   -0.8565   -1.3134 H         1 <0>         0.0000
     31 H9         -0.2231   -1.1186   -0.0152 H         1 <0>         0.0000
     32 H10         2.3141   -1.5225   -2.9629 H         1 <0>         0.0000
     33 H11         3.3689   -1.8524   -1.5624 H         1 <0>         0.0000
     34 H12        -0.4355   -3.2279   -1.3187 H         1 <0>         0.0000
     35 H13         0.0012   -2.3649   -2.8145 H         1 <0>         0.0000
     36 H14         2.0620    1.4232   -5.0259 H         1 <0>         0.0000
     37 H15         1.8651    2.9588   -5.9147 H         1 <0>         0.0000
     38 H16         1.4741    2.8391   -4.1744 H         1 <0>         0.0000
@<TRIPOS>BOND
     1    1    2 ar
     2    1    3 ar
     3    1   23 1
     4    2    6 ar
     5    2   24 1
     6    3    7 ar
     7    3   25 1
     8    4    6 ar
     9    4    7 ar
    10    4   26 1
    11    5    8 1
    12    5    9 2
    13    5   10 1
    14    6   18 1
    15    7   21 1
    16    8   15 1
    17    8   16 2
    18    9   18 1
    19    9   22 1
    20   10   17 2
    21   10   27 1
    22   11   13 1
    23   11   19 1
    24   11   28 1
    25   11   29 1
    26   12   14 1
    27   12   19 1
    28   12   30 1
    29   12   31 1
    30   13   20 1
    31   13   32 1
    32   13   33 1
    33   14   20 1
    34   14   34 1
    35   14   35 1
    36   15   36 1
    37   15   37 1
    38   15   38 1
    39   16   18 1
    40   17   19 1
