@<TRIPOS>MOLECULE
*****
   23    24     0     0     0
SMALL
NO_CHARGES

@<TRIPOS>ATOM
      1 C1         -1.4085   -4.0113   -2.2266 C.ar      1 <0>         0.0000
      2 C2         -1.8735   -4.3718   -0.9635 C.ar      1 <0>         0.0000
      3 C3         -0.3610   -2.7291    0.0134 C.ar      1 <0>         0.0000
      4 C4          0.0951   -2.3372   -1.2509 C.ar      1 <0>         0.0000
      5 C5         -0.4624   -2.9950   -2.3602 C.ar      1 <0>         0.0000
      6 C6         -1.3383   -3.7116    0.1370 C.ar      1 <0>         0.0000
      7 C7          2.6078   -0.3204   -2.9154 C.2       1 <0>         0.0000
      8 C8          0.7059    0.1403   -1.6983 C.3       1 <0>         0.0000
      9 C9          1.1899   -1.2876   -1.3130 C.3       1 <0>         0.0000
     10 N1          2.1865   -1.5163   -2.3434 N.am      1 <0>         0.0000
     11 N2         -0.0993   -2.6441   -3.7469 N.pl3     1 <0>         0.0000
     12 O1         -0.1730   -1.4573   -4.0747 O.3       1 <0>         0.0000
     13 O2          3.5691   -0.1461   -3.6237 O.2       1 <0>         0.0000
     14 O3          0.2009   -3.5732   -4.4986 O.2       1 <0>         0.0000
     15 O4          1.7409    0.6718   -2.5413 O.3       1 <0>         0.0000
     16 F1         -1.7617   -4.0489    1.3742 F         1 <0>         0.0000
     17 H1         -1.7816   -4.5070   -3.1165 H         1 <0>         0.0000
     18 H2         -2.6206   -5.1470   -0.8290 H         1 <0>         0.0000
     19 H3          0.0530   -2.2824    0.9129 H         1 <0>         0.0000
     20 H4         -0.2269    0.1133   -2.2604 H         1 <0>         0.0000
     21 H5          0.6054    0.7865   -0.8245 H         1 <0>         0.0000
     22 H6          1.6569   -1.2541   -0.3201 H         1 <0>         0.0000
     23 H7          2.8966   -2.2286   -2.2287 H         1 <0>         0.0000
@<TRIPOS>BOND
     1    1    2 ar
     2    1    5 ar
     3    1   17 1
     4    2    6 ar
     5    2   18 1
     6    3    4 ar
     7    3    6 ar
     8    3   19 1
     9    4    5 ar
    10    4    9 1
    11    5   11 1
    12    6   16 1
    13    7   10 am
    14    7   13 2
    15    7   15 1
    16    8    9 1
    17    8   15 1
    18    8   20 1
    19    8   21 1
    20    9   10 1
    21    9   22 1
    22   10   23 1
    23   11   12 1
    24   11   14 2
