@<TRIPOS>MOLECULE
*****
   22    22     0     0     0
SMALL
NO_CHARGES

@<TRIPOS>ATOM
      1 C1          2.1844   -0.8954   -0.0462 C.ar      1 <0>         0.0000
      2 C2          0.9180   -0.5159    0.4088 C.ar      1 <0>         0.0000
      3 C3          1.5558   -1.1102    2.6719 C.ar      1 <0>         0.0000
      4 C4          3.1481   -1.3846    0.8444 C.ar      1 <0>         0.0000
      5 C5          0.6117   -0.6265    1.7625 C.ar      1 <0>         0.0000
      6 C6          2.8144   -1.4829    2.2094 C.ar      1 <0>         0.0000
      7 C7          6.2849   -1.9344   -0.9285 C.2       1 <0>         0.0000
      8 C8          4.8378   -1.5323   -0.8543 C.3       1 <0>         0.0000
      9 N1          6.6453   -2.5637   -1.9963 N.2       1 <0>         0.0000
     10 N2          7.1086   -1.5075    0.0889 N.pl3     1 <0>         0.0000
     11 O1          8.0523   -2.8007   -1.9535 O.3       1 <0>         0.0000
     12 O2          4.3984   -1.7872    0.4868 O.3       1 <0>         0.0000
     13 Cl1        -0.9755   -0.1547    2.3435 Cl        1 <0>         0.0000
     14 Cl2         4.0059   -2.0776    3.3436 Cl        1 <0>         0.0000
     15 H1          2.4079   -0.8119   -1.1034 H         1 <0>         0.0000
     16 H2          0.1784   -0.1399   -0.2903 H         1 <0>         0.0000
     17 H3          1.3190   -1.1933    3.7270 H         1 <0>         0.0000
     18 H4          4.2664   -2.1150   -1.5817 H         1 <0>         0.0000
     19 H5          4.7322   -0.4616   -1.0721 H         1 <0>         0.0000
     20 H6          8.0188   -1.9542    0.1017 H         1 <0>         0.0000
     21 H7          6.6556   -1.4412    0.9938 H         1 <0>         0.0000
     22 H8          8.1994   -3.3153   -2.7622 H         1 <0>         0.0000
@<TRIPOS>BOND
     1    1    2 ar
     2    1    4 ar
     3    1   15 1
     4    2    5 ar
     5    2   16 1
     6    3    5 ar
     7    3    6 ar
     8    3   17 1
     9    4    6 ar
    10    4   12 1
    11    5   13 1
    12    6   14 1
    13    7    8 1
    14    7    9 2
    15    7   10 1
    16    8   12 1
    17    8   18 1
    18    8   19 1
    19    9   11 1
    20   10   20 1
    21   10   21 1
    22   11   22 1
