@<TRIPOS>MOLECULE
*****
   32    34     0     0     0
SMALL
NO_CHARGES

@<TRIPOS>ATOM
      1 C1          7.6720   -3.2738    2.3095 C.1       1 <0>         0.0000
      2 C2          0.6343   -0.2216    1.6256 C.ar      1 <0>         0.0000
      3 C3          0.6673   -0.3834    0.2373 C.ar      1 <0>         0.0000
      4 C4          1.6538   -0.7694    2.3991 C.ar      1 <0>         0.0000
      5 C5          1.7137   -1.0932   -0.3546 C.ar      1 <0>         0.0000
      6 C6          6.3261   -3.0969    6.8934 C.2       1 <0>         0.0000
      7 C7          6.5210   -3.2531    8.2347 C.2       1 <0>         0.0000
      8 C8          8.4915   -3.9741    6.9348 C.2       1 <0>         0.0000
      9 C9          2.7128   -1.4809    1.8043 C.ar      1 <0>         0.0000
     10 C10         7.4673   -3.5133    6.1109 C.2       1 <0>         0.0000
     11 C11         2.7539   -1.6564    0.4006 C.ar      1 <0>         0.0000
     12 C12         3.7478   -2.0284    2.6980 C.2       1 <0>         0.0000
     13 C13         5.6005   -2.7246    3.4324 C.2       1 <0>         0.0000
     14 C14         7.7107   -3.5021    4.6840 C.2       1 <0>         0.0000
     15 C15         6.9827   -3.1698    3.5713 C.2       1 <0>         0.0000
     16 C16         3.8407   -2.4267   -0.3140 C.3       1 <0>         0.0000
     17 N1          8.2623   -3.3747    1.3101 N.1       1 <0>         0.0000
     18 N2          5.0483   -2.3071    2.3230 N.2       1 <0>         0.0000
     19 N3          3.5024   -2.2716    3.9750 N.2       1 <0>         0.0000
     20 O1          4.7399   -2.7341    4.4699 O.3       1 <0>         0.0000
     21 S1          8.0888   -3.9129    8.5988 S.3       1 <0>         0.0000
     22 H1         -0.1733    0.3297    2.0993 H         1 <0>         0.0000
     23 H2         -0.1182    0.0403   -0.3832 H         1 <0>         0.0000
     24 H3          1.6475   -0.6456    3.4775 H         1 <0>         0.0000
     25 H4          1.7267   -1.2204   -1.4343 H         1 <0>         0.0000
     26 H5          5.4114   -2.7058    6.4770 H         1 <0>         0.0000
     27 H6          5.8328   -3.0214    9.0376 H         1 <0>         0.0000
     28 H7          9.4609   -4.3422    6.6218 H         1 <0>         0.0000
     29 H8          8.7197   -3.8252    4.4387 H         1 <0>         0.0000
     30 H9          4.8028   -1.9120   -0.2569 H         1 <0>         0.0000
     31 H10         3.9966   -3.4150    0.1270 H         1 <0>         0.0000
     32 H11         3.5764   -2.5579   -1.3665 H         1 <0>         0.0000
@<TRIPOS>BOND
     1    1   15 1
     2    1   17 3
     3    2    3 ar
     4    2    4 ar
     5    2   22 1
     6    3    5 ar
     7    3   23 1
     8    4    9 ar
     9    4   24 1
    10    5   11 ar
    11    5   25 1
    12    6    7 2
    13    6   10 1
    14    6   26 1
    15    7   21 1
    16    7   27 1
    17    8   10 2
    18    8   21 1
    19    8   28 1
    20    9   11 ar
    21    9   12 1
    22   10   14 1
    23   11   16 1
    24   12   18 1
    25   12   19 2
    26   13   15 1
    27   13   18 2
    28   13   20 1
    29   14   15 2
    30   14   29 1
    31   16   30 1
    32   16   31 1
    33   16   32 1
    34   19   20 1
