@<TRIPOS>MOLECULE
*****
   23    23     0     0     0
SMALL
NO_CHARGES

@<TRIPOS>ATOM
      1 C1          4.7940   -3.6507    2.8252 C.1       1 <0>         0.0000
      2 C2          3.9587   -2.8370    2.4916 C.1       1 <0>         0.0000
      3 C3          1.8290   -1.2180   -0.0895 C.ar      1 <0>         0.0000
      4 C4          1.1213   -0.2638    0.6500 C.ar      1 <0>         0.0000
      5 C5          2.7518   -2.0455    0.5449 C.ar      1 <0>         0.0000
      6 C6          1.3465   -0.1490    2.0205 C.ar      1 <0>         0.0000
      7 C7          2.9923   -1.9427    1.9306 C.ar      1 <0>         0.0000
      8 C8          2.2735   -0.9750    2.6762 C.ar      1 <0>         0.0000
      9 C9          2.4931   -0.8268    4.1462 C.2       1 <0>         0.0000
     10 C10         0.8987    1.4648    6.5014 C.3       1 <0>         0.0000
     11 C11         1.8572    0.3567    6.1055 C.3       1 <0>         0.0000
     12 O1          3.2735   -1.4828    4.8101 O.2       1 <0>         0.0000
     13 O2          1.7079    0.1450    4.6793 O.3       1 <0>         0.0000
     14 H1          5.5239   -4.3427    3.1881 H         1 <0>         0.0000
     15 H2          1.6615   -1.3165   -1.1589 H         1 <0>         0.0000
     16 H3          0.3998    0.3852    0.1616 H         1 <0>         0.0000
     17 H4          3.3048   -2.7883   -0.0214 H         1 <0>         0.0000
     18 H5          0.8031    0.5868    2.6011 H         1 <0>         0.0000
     19 H6          1.1298    2.3919    5.9681 H         1 <0>         0.0000
     20 H7         -0.1358    1.1855    6.2803 H         1 <0>         0.0000
     21 H8          0.9813    1.6564    7.5762 H         1 <0>         0.0000
     22 H9          1.6388   -0.5812    6.6238 H         1 <0>         0.0000
     23 H10         2.8983    0.6191    6.3137 H         1 <0>         0.0000
@<TRIPOS>BOND
     1    1    2 3
     2    1   14 1
     3    2    7 1
     4    3    4 ar
     5    3    5 ar
     6    3   15 1
     7    4    6 ar
     8    4   16 1
     9    5    7 ar
    10    5   17 1
    11    6    8 ar
    12    6   18 1
    13    7    8 ar
    14    8    9 1
    15    9   12 2
    16    9   13 1
    17   10   11 1
    18   10   19 1
    19   10   20 1
    20   10   21 1
    21   11   13 1
    22   11   22 1
    23   11   23 1
