@<TRIPOS>MOLECULE
*****
   39    41     0     0     0
SMALL
NO_CHARGES

@<TRIPOS>ATOM
      1 C1          2.9577   -0.1108   -3.0035 C.ar      1 <0>         0.0000
      2 C2          3.4076    0.8414   -3.9218 C.ar      1 <0>         0.0000
      3 C3          1.1471    1.3455   -2.3759 C.ar      1 <0>         0.0000
      4 C4          1.5835    2.3005   -3.3056 C.ar      1 <0>         0.0000
      5 C5          1.8284    0.1402   -2.2317 C.ar      1 <0>         0.0000
      6 C6          2.7249    2.0570   -4.0902 C.ar      1 <0>         0.0000
      7 C7          2.3910    4.1783   -5.3301 C.2       1 <0>         0.0000
      8 C8          1.9413   -2.0707   -1.0158 C.2       1 <0>         0.0000
      9 C9          0.8848    3.6248   -3.3994 C.3       1 <0>         0.0000
     10 C10         0.9665    4.1464   -4.8181 C.3       1 <0>         0.0000
     11 C11         0.1557   -0.6785   -0.5439 C.3       1 <0>         0.0000
     12 C12         0.2543   -1.7680    0.5022 C.3       1 <0>         0.0000
     13 C13         4.3952    2.1608   -6.9166 C.3       1 <0>         0.0000
     14 C14         0.7774   -1.2679    1.8417 C.3       1 <0>         0.0000
     15 C15         4.4862    2.9144   -5.6334 C.3       1 <0>         0.0000
     16 N1          3.1722    3.0594   -5.0133 N.am      1 <0>         0.0000
     17 N2          1.3762   -0.8280   -1.2904 N.am      1 <0>         0.0000
     18 O1          2.7584    5.1090   -6.0503 O.2       1 <0>         0.0000
     19 O2          2.9160   -2.6097   -1.5205 O.2       1 <0>         0.0000
     20 O3          1.1969   -2.7011   -0.0441 O.3       1 <0>         0.0000
     21 O4          0.8207   -2.3565    2.7481 O.3       1 <0>         0.0000
     22 H1          3.5031   -1.0459   -2.8987 H         1 <0>         0.0000
     23 H2          4.2946    0.5998   -4.5006 H         1 <0>         0.0000
     24 H3          0.2740    1.5522   -1.7600 H         1 <0>         0.0000
     25 H4         -0.1683    3.5316   -3.1103 H         1 <0>         0.0000
     26 H5          1.3657    4.3238   -2.7043 H         1 <0>         0.0000
     27 H6          0.5518    5.1595   -4.8620 H         1 <0>         0.0000
     28 H7          0.3838    3.5160   -5.5012 H         1 <0>         0.0000
     29 H8         -0.6790   -0.8700   -1.2288 H         1 <0>         0.0000
     30 H9          0.0583    0.3301   -0.1295 H         1 <0>         0.0000
     31 H10        -0.7047   -2.2746    0.6369 H         1 <0>         0.0000
     32 H11         3.7323    2.6974   -7.6113 H         1 <0>         0.0000
     33 H12         5.3974    2.0718   -7.3612 H         1 <0>         0.0000
     34 H13         3.9890    1.1568   -6.7240 H         1 <0>         0.0000
     35 H14         0.1153   -0.4971    2.2400 H         1 <0>         0.0000
     36 H15         1.7829   -0.8599    1.7245 H         1 <0>         0.0000
     37 H16         5.1503    2.3717   -4.9446 H         1 <0>         0.0000
     38 H17         4.9015    3.9133   -5.8324 H         1 <0>         0.0000
     39 H18         1.1570   -2.0105    3.5919 H         1 <0>         0.0000
@<TRIPOS>BOND
     1    1    2 ar
     2    1    5 ar
     3    1   22 1
     4    2    6 ar
     5    2   23 1
     6    3    4 ar
     7    3    5 ar
     8    3   24 1
     9    4    6 ar
    10    4    9 1
    11    5   17 1
    12    6   16 1
    13    7   10 1
    14    7   16 am
    15    7   18 2
    16    8   17 am
    17    8   19 2
    18    8   20 1
    19    9   10 1
    20    9   25 1
    21    9   26 1
    22   10   27 1
    23   10   28 1
    24   11   12 1
    25   11   17 1
    26   11   29 1
    27   11   30 1
    28   12   14 1
    29   12   20 1
    30   12   31 1
    31   13   15 1
    32   13   32 1
    33   13   33 1
    34   13   34 1
    35   14   21 1
    36   14   35 1
    37   14   36 1
    38   15   16 1
    39   15   37 1
    40   15   38 1
    41   21   39 1
