@<TRIPOS>MOLECULE
*****
   31    32     0     0     0
SMALL
NO_CHARGES

@<TRIPOS>ATOM
      1 C1          0.8767   -1.9331    0.8305 C.ar      1 <0>         0.0000
      2 C2          0.9256   -0.5671    0.5610 C.ar      1 <0>         0.0000
      3 C3          7.3340   -6.4695    5.4741 C.ar      1 <0>         0.0000
      4 C4          6.3876   -7.0324    6.3363 C.ar      1 <0>         0.0000
      5 C5          1.8409   -2.5344    1.6491 C.ar      1 <0>         0.0000
      6 C6          1.9485    0.2186    1.1117 C.ar      1 <0>         0.0000
      7 C7          6.9749   -5.3632    4.7082 C.ar      1 <0>         0.0000
      8 C8          5.1241   -6.4388    6.3951 C.ar      1 <0>         0.0000
      9 C9          2.8692   -1.7624    2.1993 C.ar      1 <0>         0.0000
     10 C10         2.9134   -0.3741    1.9235 C.ar      1 <0>         0.0000
     11 C11         5.6764   -4.8425    4.8535 C.ar      1 <0>         0.0000
     12 C12         4.0683   -3.5575    3.4674 C.2       1 <0>         0.0000
     13 C13         4.0457    1.7076    2.3227 C.3       1 <0>         0.0000
     14 N1          4.7714   -5.3581    5.6892 N.ar      1 <0>         0.0000
     15 N2          3.8984   -2.2608    3.0187 N.am      1 <0>         0.0000
     16 N3          5.3080   -3.6869    4.1379 N.am      1 <0>         0.0000
     17 O1          3.2820   -4.4735    3.2986 O.2       1 <0>         0.0000
     18 O2          3.9633    0.2986    2.5151 O.3       1 <0>         0.0000
     19 H1          0.0833   -2.5449    0.4105 H         1 <0>         0.0000
     20 H2          0.1750   -0.1011   -0.0712 H         1 <0>         0.0000
     21 H3          8.3307   -6.8943    5.3865 H         1 <0>         0.0000
     22 H4          6.6181   -7.9009    6.9457 H         1 <0>         0.0000
     23 H5          1.8005   -3.5912    1.8754 H         1 <0>         0.0000
     24 H6          1.9816    1.2816    0.9009 H         1 <0>         0.0000
     25 H7          7.6735   -4.9196    4.0030 H         1 <0>         0.0000
     26 H8          4.3568   -6.8416    7.0549 H         1 <0>         0.0000
     27 H9          4.9211    2.0370    2.8842 H         1 <0>         0.0000
     28 H10         3.1527    2.2125    2.7095 H         1 <0>         0.0000
     29 H11         4.1783    1.9556    1.2628 H         1 <0>         0.0000
     30 H12         4.5104   -1.5482    3.3968 H         1 <0>         0.0000
     31 H13         6.0772   -3.1697    3.7303 H         1 <0>         0.0000
@<TRIPOS>BOND
     1    1    2 ar
     2    1    5 ar
     3    1   19 1
     4    2    6 ar
     5    2   20 1
     6    3    4 ar
     7    3    7 ar
     8    3   21 1
     9    4    8 ar
    10    4   22 1
    11    5    9 ar
    12    5   23 1
    13    6   10 ar
    14    6   24 1
    15    7   11 ar
    16    7   25 1
    17    8   14 ar
    18    8   26 1
    19    9   10 ar
    20    9   15 1
    21   10   18 1
    22   11   14 ar
    23   11   16 1
    24   12   15 am
    25   12   16 am
    26   12   17 2
    27   13   18 1
    28   13   27 1
    29   13   28 1
    30   13   29 1
    31   15   30 1
    32   16   31 1
