@<TRIPOS>MOLECULE
*****
   66    70     0     0     0
SMALL
NO_CHARGES

@<TRIPOS>ATOM
      1 C1         -3.0872    1.7249    5.6498 C.ar      1 <0>         0.0000
      2 C2         -5.3309    2.0351    4.8262 C.ar      1 <0>         0.0000
      3 C3         -0.8073    0.3284    0.7020 C.ar      1 <0>         0.0000
      4 C4         -3.0921   -4.0785    3.2161 C.ar      1 <0>         0.0000
      5 C5         -2.3339   -4.2933    0.9363 C.ar      1 <0>         0.0000
      6 C6         -1.7999   -0.6417    0.7890 C.ar      1 <0>         0.0000
      7 C7         -3.3156    2.6649    6.6567 C.ar      1 <0>         0.0000
      8 C8         -5.5744    2.9666    5.8293 C.ar      1 <0>         0.0000
      9 C9         -2.2129   -5.0867    3.6132 C.ar      1 <0>         0.0000
     10 C10        -1.4493   -5.3104    1.3113 C.ar      1 <0>         0.0000
     11 C11        -1.6967    1.5659    2.5890 C.ar      1 <0>         0.0000
     12 C12        -2.7003    0.5887    2.7166 C.ar      1 <0>         0.0000
     13 C13        -4.0856    1.3797    4.7247 C.ar      1 <0>         0.0000
     14 C14        -3.7869    0.4257    3.6377 C.2       1 <0>         0.0000
     15 C15        -3.1591   -3.6667    1.8765 C.ar      1 <0>         0.0000
     16 C16        -0.7399    1.4348    1.5891 C.ar      1 <0>         0.0000
     17 C17        -2.7541   -0.5020    1.8094 C.ar      1 <0>         0.0000
     18 C18        -4.5684    3.2897    6.7550 C.ar      1 <0>         0.0000
     19 C19        -1.4044   -5.6834    2.6489 C.ar      1 <0>         0.0000
     20 C20        -4.4549   -0.7466    3.2733 C.2       1 <0>         0.0000
     21 C21        -5.5722   -1.4353    3.9559 C.2       1 <0>         0.0000
     22 C22         1.8084    1.4029    7.3693 C.3       1 <0>         0.0000
     23 C23         0.4233    1.1523    6.8109 C.3       1 <0>         0.0000
     24 C24         1.3091    2.2076    6.1886 C.3       1 <0>         0.0000
     25 C25        -4.5402    5.6259    9.5846 C.3       1 <0>         0.0000
     26 C26         0.4046    2.4190    1.4947 C.3       1 <0>         0.0000
     27 C27        -4.1120   -2.5629    1.4599 C.3       1 <0>         0.0000
     28 C28         1.9256    1.9649    4.8371 C.3       1 <0>         0.0000
     29 C29        -3.9124    4.5922    8.6662 C.3       1 <0>         0.0000
     30 C30         1.5139    2.1313    2.5095 C.3       1 <0>         0.0000
     31 N1         -3.8365   -1.2913    2.1369 N.pl3     1 <0>         0.0000
     32 O1         -6.1631   -2.4024    3.5032 O.2       1 <0>         0.0000
     33 O2         -5.9230   -0.9703    5.1815 O.3       1 <0>         0.0000
     34 O3         -4.9013    4.2172    7.6983 O.3       1 <0>         0.0000
     35 O4          1.0051    2.3425    3.8200 O.3       1 <0>         0.0000
     36 F1         -0.5449   -6.6657    3.0294 F         1 <0>         0.0000
     37 H1         -2.1135    1.2503    5.5804 H         1 <0>         0.0000
     38 H2         -6.1109    1.8148    4.1024 H         1 <0>         0.0000
     39 H3         -0.0522    0.2351   -0.0758 H         1 <0>         0.0000
     40 H4         -3.7401   -3.6170    3.9545 H         1 <0>         0.0000
     41 H5         -2.3782   -3.9902   -0.1075 H         1 <0>         0.0000
     42 H6         -1.8172   -1.4768    0.0972 H         1 <0>         0.0000
     43 H7         -2.5155    2.8999    7.3491 H         1 <0>         0.0000
     44 H8         -6.5348    3.4674    5.9076 H         1 <0>         0.0000
     45 H9         -2.1532   -5.4171    4.6458 H         1 <0>         0.0000
     46 H10        -0.8040   -5.8027    0.5902 H         1 <0>         0.0000
     47 H11        -1.6509    2.4015    3.2799 H         1 <0>         0.0000
     48 H12         1.8941    1.9024    8.3297 H         1 <0>         0.0000
     49 H13         2.5722    0.6518    7.1867 H         1 <0>         0.0000
     50 H14         0.2583    0.2381    6.2471 H         1 <0>         0.0000
     51 H15        -0.4279    1.4762    7.4023 H         1 <0>         0.0000
     52 H16         1.0430    3.2443    6.3810 H         1 <0>         0.0000
     53 H17        -4.8542    6.5065    9.0170 H         1 <0>         0.0000
     54 H18        -5.4153    5.2104   10.0923 H         1 <0>         0.0000
     55 H19        -3.8153    5.9405   10.3421 H         1 <0>         0.0000
     56 H20         0.8479    2.3927    0.4929 H         1 <0>         0.0000
     57 H21         0.0475    3.4410    1.6620 H         1 <0>         0.0000
     58 H22        -4.0301   -2.3841    0.3838 H         1 <0>         0.0000
     59 H23        -5.1403   -2.8387    1.6800 H         1 <0>         0.0000
     60 H24         2.1884    0.8997    4.7295 H         1 <0>         0.0000
     61 H25         2.8570    2.5460    4.7331 H         1 <0>         0.0000
     62 H26        -3.5965    3.7055    9.2316 H         1 <0>         0.0000
     63 H27        -3.0336    5.0050    8.1533 H         1 <0>         0.0000
     64 H28         1.8614    1.0914    2.4020 H         1 <0>         0.0000
     65 H29         2.3744    2.7958    2.3278 H         1 <0>         0.0000
     66 H30        -5.3831   -0.1951    5.4326 H         1 <0>         0.0000
@<TRIPOS>BOND
     1    1    7 ar
     2    1   13 ar
     3    1   37 1
     4    2    8 ar
     5    2   13 ar
     6    2   38 1
     7    3    6 ar
     8    3   16 ar
     9    3   39 1
    10    4    9 ar
    11    4   15 ar
    12    4   40 1
    13    5   10 ar
    14    5   15 ar
    15    5   41 1
    16    6   17 ar
    17    6   42 1
    18    7   18 ar
    19    7   43 1
    20    8   18 ar
    21    8   44 1
    22    9   19 ar
    23    9   45 1
    24   10   19 ar
    25   10   46 1
    26   11   12 ar
    27   11   16 ar
    28   11   47 1
    29   12   14 1
    30   12   17 ar
    31   13   14 1
    32   14   20 2
    33   15   27 1
    34   16   26 1
    35   17   31 1
    36   18   34 1
    37   19   36 1
    38   20   21 1
    39   20   31 1
    40   21   32 2
    41   21   33 1
    42   22   23 1
    43   22   24 1
    44   22   48 1
    45   22   49 1
    46   23   24 1
    47   23   50 1
    48   23   51 1
    49   24   28 1
    50   24   52 1
    51   25   29 1
    52   25   53 1
    53   25   54 1
    54   25   55 1
    55   26   30 1
    56   26   56 1
    57   26   57 1
    58   27   31 1
    59   27   58 1
    60   27   59 1
    61   28   35 1
    62   28   60 1
    63   28   61 1
    64   29   34 1
    65   29   62 1
    66   29   63 1
    67   30   35 1
    68   30   64 1
    69   30   65 1
    70   33   66 1
