@<TRIPOS>MOLECULE
*****
   70    74     0     0     0
SMALL
NO_CHARGES

@<TRIPOS>ATOM
      1 C1         -5.2642    1.6056    1.3030 C.ar      1 <0>         0.0000
      2 C2         -2.8954    7.7076   -0.7225 C.ar      1 <0>         0.0000
      3 C3         -4.7866    2.8396    0.8581 C.ar      1 <0>         0.0000
      4 C4         -5.4230    0.5236    0.4351 C.ar      1 <0>         0.0000
      5 C5         -3.2176    6.4814   -1.3057 C.ar      1 <0>         0.0000
      6 C6         -4.6031    1.9332   -1.3815 C.ar      1 <0>         0.0000
      7 C7         -3.0346    7.8874    0.6522 C.ar      1 <0>         0.0000
      8 C8         -4.4424    3.0196   -0.4973 C.ar      1 <0>         0.0000
      9 C9         -5.0873    0.7179   -0.9080 C.ar      1 <0>         0.0000
     10 C10        -3.5424    6.7958    1.4037 C.ar      1 <0>         0.0000
     11 C11        -3.6653    5.4458   -0.4683 C.ar      1 <0>         0.0000
     12 C12        -2.9860    9.3085    2.6255 C.2       1 <0>         0.0000
     13 C13        -3.3346    5.9074    4.9994 C.3       1 <0>         0.0000
     14 C14        -5.4602    5.4389    3.7602 C.3       1 <0>         0.0000
     15 C15        -3.5563    4.6041    5.7726 C.3       1 <0>         0.0000
     16 C16        -5.6077    4.1557    4.5802 C.3       1 <0>         0.0000
     17 C17        -7.2621    0.7743   -3.3928 C.3       1 <0>         0.0000
     18 C18        -8.0066   -0.6909   -1.5784 C.3       1 <0>         0.0000
     19 C19        -8.6362    0.5936   -4.0350 C.3       1 <0>         0.0000
     20 C20        -9.3495   -0.8128   -2.2956 C.3       1 <0>         0.0000
     21 C21        -3.9972    8.3244    3.2097 C.3       1 <0>         0.0000
     22 C22        -3.9737    5.7951    3.6113 C.3       1 <0>         0.0000
     23 C23        -5.4197    8.8088    2.8598 C.3       1 <0>         0.0000
     24 C24        -1.7353   10.0067    0.6431 C.3       1 <0>         0.0000
     25 C25        -5.1999    3.1106    6.7154 C.3       1 <0>         0.0000
     26 N1         -3.8364    5.6131    0.8484 N.ar      1 <0>         0.0000
     27 N2         -2.6078    9.0550    1.3255 N.am      1 <0>         0.0000
     28 N3         -3.6997    6.9619    2.7624 N.pl3     1 <0>         0.0000
     29 N4         -4.9824    4.2962    5.8953 N.3       1 <0>         0.0000
     30 N5         -6.9713   -0.4264   -2.5920 N.pl3     1 <0>         0.0000
     31 N6         -3.9449    4.2050   -1.0404 N.pl3     1 <0>         0.0000
     32 O1         -2.5965   10.2829    3.2654 O.2       1 <0>         0.0000
     33 O2         -4.5398   -0.3479   -3.2639 O.2       1 <0>         0.0000
     34 O3         -5.3143   -1.8775   -1.3575 O.2       1 <0>         0.0000
     35 O4         -9.6446    0.3567   -3.0561 O.3       1 <0>         0.0000
     36 S1         -5.3674   -0.6089   -2.0842 S.o2      1 <0>         0.0000
     37 H1         -5.5093    1.4885    2.3555 H         1 <0>         0.0000
     38 H2         -2.5152    8.5087   -1.3471 H         1 <0>         0.0000
     39 H3         -4.6639    3.6641    1.5420 H         1 <0>         0.0000
     40 H4         -5.7652   -0.4450    0.7823 H         1 <0>         0.0000
     41 H5         -3.1075    6.3328   -2.3758 H         1 <0>         0.0000
     42 H6         -4.3273    2.0226   -2.4291 H         1 <0>         0.0000
     43 H7         -3.7827    6.7244    5.5745 H         1 <0>         0.0000
     44 H8         -2.2623    6.1091    4.9047 H         1 <0>         0.0000
     45 H9         -5.9167    5.3130    2.7740 H         1 <0>         0.0000
     46 H10        -5.9888    6.2441    4.2805 H         1 <0>         0.0000
     47 H11        -3.0104    3.7801    5.2693 H         1 <0>         0.0000
     48 H12        -3.1357    4.6980    6.7793 H         1 <0>         0.0000
     49 H13        -6.6688    3.9248    4.7230 H         1 <0>         0.0000
     50 H14        -5.1655    3.3067    4.0185 H         1 <0>         0.0000
     51 H15        -6.4983    0.8726   -4.1663 H         1 <0>         0.0000
     52 H16        -7.2620    1.6780   -2.7641 H         1 <0>         0.0000
     53 H17        -8.0534    0.1235   -0.8397 H         1 <0>         0.0000
     54 H18        -7.7672   -1.6260   -1.0692 H         1 <0>         0.0000
     55 H19        -8.9260    1.5041   -4.5655 H         1 <0>         0.0000
     56 H20        -8.5988   -0.2421   -4.7491 H         1 <0>         0.0000
     57 H21        -9.3360   -1.6959   -2.9511 H         1 <0>         0.0000
     58 H22       -10.1564   -0.9212   -1.5667 H         1 <0>         0.0000
     59 H23        -3.8535    8.3733    4.2871 H         1 <0>         0.0000
     60 H24        -3.4875    4.9607    3.0984 H         1 <0>         0.0000
     61 H25        -5.5948    8.7503    1.7811 H         1 <0>         0.0000
     62 H26        -5.5437    9.8482    3.1778 H         1 <0>         0.0000
     63 H27        -6.1736    8.1999    3.3624 H         1 <0>         0.0000
     64 H28        -2.2724   10.5278   -0.1573 H         1 <0>         0.0000
     65 H29        -0.8720    9.4865    0.2171 H         1 <0>         0.0000
     66 H30        -1.4008   10.7373    1.3775 H         1 <0>         0.0000
     67 H31        -4.7677    3.2630    7.7094 H         1 <0>         0.0000
     68 H32        -4.7495    2.1970    6.2816 H         1 <0>         0.0000
     69 H33        -6.2738    2.9360    6.8362 H         1 <0>         0.0000
     70 H34        -3.7570    4.1615   -2.0331 H         1 <0>         0.0000
@<TRIPOS>BOND
     1    1    3 ar
     2    1    4 ar
     3    1   37 1
     4    2    5 ar
     5    2    7 ar
     6    2   38 1
     7    3    8 ar
     8    3   39 1
     9    4    9 ar
    10    4   40 1
    11    5   11 ar
    12    5   41 1
    13    6    8 ar
    14    6    9 ar
    15    6   42 1
    16    7   10 ar
    17    7   27 1
    18    8   31 1
    19    9   36 1
    20   10   26 ar
    21   10   28 1
    22   11   26 ar
    23   11   31 1
    24   12   21 1
    25   12   27 am
    26   12   32 2
    27   13   15 1
    28   13   22 1
    29   13   43 1
    30   13   44 1
    31   14   16 1
    32   14   22 1
    33   14   45 1
    34   14   46 1
    35   15   29 1
    36   15   47 1
    37   15   48 1
    38   16   29 1
    39   16   49 1
    40   16   50 1
    41   17   19 1
    42   17   30 1
    43   17   51 1
    44   17   52 1
    45   18   20 1
    46   18   30 1
    47   18   53 1
    48   18   54 1
    49   19   35 1
    50   19   55 1
    51   19   56 1
    52   20   35 1
    53   20   57 1
    54   20   58 1
    55   21   23 1
    56   21   28 1
    57   21   59 1
    58   22   28 1
    59   22   60 1
    60   23   61 1
    61   23   62 1
    62   23   63 1
    63   24   27 1
    64   24   64 1
    65   24   65 1
    66   24   66 1
    67   25   29 1
    68   25   67 1
    69   25   68 1
    70   25   69 1
    71   30   36 1
    72   31   70 1
    73   33   36 2
    74   34   36 2
