@<TRIPOS>MOLECULE
*****
   47    51     0     0     0
SMALL
NO_CHARGES

@<TRIPOS>ATOM
      1 C1         -2.3997   -0.5902    6.2405 C.ar      1 <0>         0.0000
      2 C2          2.6636   -0.4269    0.2652 C.ar      1 <0>         0.0000
      3 C3         -2.1245    0.3985    5.2927 C.ar      1 <0>         0.0000
      4 C4          1.5129    0.1543    0.7947 C.ar      1 <0>         0.0000
      5 C5         -3.2010   -1.6875    5.9109 C.ar      1 <0>         0.0000
      6 C6          1.2764   -1.7677    2.2438 C.ar      1 <0>         0.0000
      7 C7          4.2960   -3.5252   -0.5696 C.ar      1 <0>         0.0000
      8 C8         -3.4542   -0.7934    3.6609 C.ar      1 <0>         0.0000
      9 C9          5.5312   -1.5252   -0.0918 C.ar      1 <0>         0.0000
     10 C10         6.5909   -3.1933   -1.2584 C.ar      1 <0>         0.0000
     11 C11         3.1480   -1.6721    0.6905 C.ar      1 <0>         0.0000
     12 C12         2.4401   -2.3371    1.7164 C.ar      1 <0>         0.0000
     13 C13         4.3348   -2.2527    0.0156 C.ar      1 <0>         0.0000
     14 C14        -2.6510    0.3072    3.9952 C.ar      1 <0>         0.0000
     15 C15         0.7991   -0.5298    1.7921 C.ar      1 <0>         0.0000
     16 C16         5.4426   -3.9806   -1.1991 C.ar      1 <0>         0.0000
     17 C17        -3.7208   -1.7738    4.6175 C.ar      1 <0>         0.0000
     18 C18         2.9065   -3.6035    2.3059 C.2       1 <0>         0.0000
     19 C19        -1.0605    1.1232    2.1239 C.2       1 <0>         0.0000
     20 C20        -3.4360    2.0457    2.2156 C.3       1 <0>         0.0000
     21 C21        -2.6329    2.7982    3.2325 C.3       1 <0>         0.0000
     22 C22        -2.3081    1.3339    2.9568 C.3       1 <0>         0.0000
     23 N1          6.6302   -1.9739   -0.7097 N.ar      1 <0>         0.0000
     24 N2          4.2186   -3.9372    2.5098 N.2       1 <0>         0.0000
     25 N3          2.0794   -4.5513    2.7652 N.2       1 <0>         0.0000
     26 N4          4.2257   -5.1075    3.0992 N.2       1 <0>         0.0000
     27 N5          2.9452   -5.4446    3.2397 N.pl3     1 <0>         0.0000
     28 N6         -0.3794   -0.0424    2.3891 N.am      1 <0>         0.0000
     29 O1         -0.7074    1.9447    1.2793 O.2       1 <0>         0.0000
     30 F1          5.4471   -5.2074   -1.7784 F         1 <0>         0.0000
     31 Cl1        -4.7288   -3.1446    4.1845 Cl        1 <0>         0.0000
     32 H1         -1.9908   -0.5113    7.2441 H         1 <0>         0.0000
     33 H2          3.1896    0.0909   -0.5320 H         1 <0>         0.0000
     34 H3         -1.4991    1.2479    5.5540 H         1 <0>         0.0000
     35 H4          1.1587    1.1119    0.4395 H         1 <0>         0.0000
     36 H5         -3.4219   -2.4593    6.6412 H         1 <0>         0.0000
     37 H6          0.7501   -2.2961    3.0347 H         1 <0>         0.0000
     38 H7          3.4027   -4.1421   -0.5437 H         1 <0>         0.0000
     39 H8         -3.8662   -0.8817    2.6600 H         1 <0>         0.0000
     40 H9          5.6039   -0.5389    0.3626 H         1 <0>         0.0000
     41 H10         7.4848   -3.5600   -1.7591 H         1 <0>         0.0000
     42 H11        -4.4472    1.7495    2.4766 H         1 <0>         0.0000
     43 H12        -3.2560    2.2686    1.1695 H         1 <0>         0.0000
     44 H13        -1.9149    3.5243    2.8670 H         1 <0>         0.0000
     45 H14        -3.0943    3.0166    4.1904 H         1 <0>         0.0000
     46 H15         2.6577   -6.3216    3.6609 H         1 <0>         0.0000
     47 H16        -0.7794   -0.6371    3.1047 H         1 <0>         0.0000
@<TRIPOS>BOND
     1    1    3 ar
     2    1    5 ar
     3    1   32 1
     4    2    4 ar
     5    2   11 ar
     6    2   33 1
     7    3   14 ar
     8    3   34 1
     9    4   15 ar
    10    4   35 1
    11    5   17 ar
    12    5   36 1
    13    6   12 ar
    14    6   15 ar
    15    6   37 1
    16    7   13 ar
    17    7   16 ar
    18    7   38 1
    19    8   14 ar
    20    8   17 ar
    21    8   39 1
    22    9   13 ar
    23    9   23 ar
    24    9   40 1
    25   10   16 ar
    26   10   23 ar
    27   10   41 1
    28   11   12 ar
    29   11   13 1
    30   12   18 1
    31   14   22 1
    32   15   28 1
    33   16   30 1
    34   17   31 1
    35   18   24 1
    36   18   25 2
    37   19   22 1
    38   19   28 am
    39   19   29 2
    40   20   21 1
    41   20   22 1
    42   20   42 1
    43   20   43 1
    44   21   22 1
    45   21   44 1
    46   21   45 1
    47   24   26 2
    48   25   27 1
    49   26   27 1
    50   27   46 1
    51   28   47 1
