@<TRIPOS>MOLECULE
*****
   64    67     0     0     0
SMALL
NO_CHARGES

@<TRIPOS>ATOM
      1 C1          3.3374    4.3970    3.9477 C.ar      1 <0>         0.0000
      2 C2          1.9624    4.2930    3.7298 C.ar      1 <0>         0.0000
      3 C3          1.9618   -0.4407   -1.3336 C.ar      1 <0>         0.0000
      4 C4          4.2653    3.8673    3.0523 C.ar      1 <0>         0.0000
      5 C5          0.8383    0.3881   -1.3375 C.ar      1 <0>         0.0000
      6 C6          2.4485    3.1020    1.6523 C.ar      1 <0>         0.0000
      7 C7         -0.4738   -1.3402   -0.2387 C.ar      1 <0>         0.0000
      8 C8          1.5309    3.6279    2.5680 C.ar      1 <0>         0.0000
      9 C9          1.8886   -1.7037   -0.7358 C.ar      1 <0>         0.0000
     10 C10         0.6660   -2.1526   -0.2247 C.ar      1 <0>         0.0000
     11 C11         3.8471    3.2062    1.8629 C.ar      1 <0>         0.0000
     12 C12        -0.3689   -0.0499   -0.7752 C.ar      1 <0>         0.0000
     13 C13        -1.8161    2.8772    1.5084 C.2       1 <0>         0.0000
     14 C14        -2.0428    3.5085    2.6986 C.2       1 <0>         0.0000
     15 C15         0.1085    3.4371    2.2918 C.2       1 <0>         0.0000
     16 C16         5.1886   -1.2884   -0.8430 C.2       1 <0>         0.0000
     17 C17         0.7841   -3.5873    0.2460 C.3       1 <0>         0.0000
     18 C18         2.3139   -3.7863    0.3759 C.3       1 <0>         0.0000
     19 C19         2.9901   -2.7363   -0.5568 C.3       1 <0>         0.0000
     20 C20        -3.2461    3.8538    3.5034 C.3       1 <0>         0.0000
     21 C21         6.6415    1.5375    2.1088 C.3       1 <0>         0.0000
     22 C22         3.9105    2.7743   -1.4014 C.3       1 <0>         0.0000
     23 C23        -2.7967    2.2288    0.5767 C.3       1 <0>         0.0000
     24 C24         4.2997   -2.2059    0.0463 C.3       1 <0>         0.0000
     25 C25         6.1803    2.6945    1.2118 C.3       1 <0>         0.0000
     26 C26         4.2919    1.9061   -0.1982 C.3       1 <0>         0.0000
     27 C27        -2.4030    0.7911    0.2081 C.3       1 <0>         0.0000
     28 N1         -0.4440    2.8485    1.2675 N.2       1 <0>         0.0000
     29 N2          4.7418    2.6926    0.9565 N.pl3     1 <0>         0.0000
     30 O1          4.8737   -1.1635   -2.0592 O.co2     1 <0>         0.0000
     31 O2          6.1530   -0.7396   -0.2294 O.co2     1 <0>         0.0000
     32 O3         -0.8124    3.8798    3.2123 O.3       1 <0>         0.0000
     33 O4         -1.4248    0.8416   -0.8240 O.3       1 <0>         0.0000
     34 H1          3.7029    4.8927    4.8450 H         1 <0>         0.0000
     35 H2          1.2453    4.6969    4.4364 H         1 <0>         0.0000
     36 H3          2.8998   -0.1327   -1.7831 H         1 <0>         0.0000
     37 H4          5.3196    3.9519    3.2871 H         1 <0>         0.0000
     38 H5          0.8788    1.3925   -1.7498 H         1 <0>         0.0000
     39 H6          2.0516    2.5955    0.7828 H         1 <0>         0.0000
     40 H7         -1.4196   -1.7079    0.1525 H         1 <0>         0.0000
     41 H8          0.2463   -3.7826    1.1820 H         1 <0>         0.0000
     42 H9          0.3602   -4.2617   -0.5122 H         1 <0>         0.0000
     43 H10         2.6130   -3.5761    1.4098 H         1 <0>         0.0000
     44 H11         2.6302   -4.8104    0.1494 H         1 <0>         0.0000
     45 H12         3.2252   -3.1768   -1.5338 H         1 <0>         0.0000
     46 H13        -3.1985    3.4115    4.5057 H         1 <0>         0.0000
     47 H14        -3.3525    4.9388    3.6243 H         1 <0>         0.0000
     48 H15        -4.1452    3.4795    3.0074 H         1 <0>         0.0000
     49 H16         6.1249    1.5628    3.0749 H         1 <0>         0.0000
     50 H17         6.4407    0.5830    1.6105 H         1 <0>         0.0000
     51 H18         7.7213    1.6114    2.2936 H         1 <0>         0.0000
     52 H19         3.0800    3.4513   -1.1738 H         1 <0>         0.0000
     53 H20         4.7656    3.3817   -1.7199 H         1 <0>         0.0000
     54 H21         3.6220    2.1347   -2.2415 H         1 <0>         0.0000
     55 H22        -3.7881    2.2202    1.0446 H         1 <0>         0.0000
     56 H23        -2.8831    2.8002   -0.3551 H         1 <0>         0.0000
     57 H24         4.9235   -3.0611    0.3428 H         1 <0>         0.0000
     58 H25         4.0814   -1.6620    0.9743 H         1 <0>         0.0000
     59 H26         6.6782    2.6113    0.2417 H         1 <0>         0.0000
     60 H27         6.4764    3.6651    1.6269 H         1 <0>         0.0000
     61 H28         5.0952    1.2191   -0.4691 H         1 <0>         0.0000
     62 H29         3.4559    1.2675    0.0955 H         1 <0>         0.0000
     63 H30        -2.0086    0.2745    1.0895 H         1 <0>         0.0000
     64 H31        -3.2850    0.2393   -0.1497 H         1 <0>         0.0000
@<TRIPOS>BOND
     1    1    2 ar
     2    1    4 ar
     3    1   34 1
     4    2    8 ar
     5    2   35 1
     6    3    5 ar
     7    3    9 ar
     8    3   36 1
     9    4   11 ar
    10    4   37 1
    11    5   12 ar
    12    5   38 1
    13    6    8 ar
    14    6   11 ar
    15    6   39 1
    16    7   10 ar
    17    7   12 ar
    18    7   40 1
    19    8   15 1
    20    9   10 ar
    21    9   19 1
    22   10   17 1
    23   11   29 1
    24   12   33 1
    25   13   14 2
    26   13   23 1
    27   13   28 1
    28   14   20 1
    29   14   32 1
    30   15   28 2
    31   15   32 1
    32   16   24 1
    33   16   30 1
    34   16   31 2
    35   17   18 1
    36   17   41 1
    37   17   42 1
    38   18   19 1
    39   18   43 1
    40   18   44 1
    41   19   24 1
    42   19   45 1
    43   20   46 1
    44   20   47 1
    45   20   48 1
    46   21   25 1
    47   21   49 1
    48   21   50 1
    49   21   51 1
    50   22   26 1
    51   22   52 1
    52   22   53 1
    53   22   54 1
    54   23   27 1
    55   23   55 1
    56   23   56 1
    57   24   57 1
    58   24   58 1
    59   25   29 1
    60   25   59 1
    61   25   60 1
    62   26   29 1
    63   26   61 1
    64   26   62 1
    65   27   33 1
    66   27   63 1
    67   27   64 1
