@<TRIPOS>MOLECULE
*****
   64    69     0     0     0
SMALL
NO_CHARGES

@<TRIPOS>ATOM
      1 C1          0.6441   -4.2025   -2.6836 C.ar      1 <0>         0.0000
      2 C2          2.2859   -5.6132   -1.5976 C.ar      1 <0>         0.0000
      3 C3         -1.4761   -3.0790    3.5701 C.ar      1 <0>         0.0000
      4 C4         -0.2111   -4.3731   -1.5991 C.ar      1 <0>         0.0000
      5 C5          1.4245   -5.7635   -0.5090 C.ar      1 <0>         0.0000
      6 C6         -1.4413   -4.2141    2.7542 C.ar      1 <0>         0.0000
      7 C7          1.9210   -4.8008   -2.6885 C.ar      1 <0>         0.0000
      8 C8         -0.7874   -1.9230    3.2033 C.ar      1 <0>         0.0000
      9 C9          0.1751   -5.1354   -0.4903 C.ar      1 <0>         0.0000
     10 C10        -0.0267   -1.9749    2.0089 C.ar      1 <0>         0.0000
     11 C11        -0.7069   -4.1407    1.5599 C.ar      1 <0>         0.0000
     12 C12        -0.0365    0.3461    3.6469 C.2       1 <0>         0.0000
     13 C13         1.7237    0.4552   -0.2488 C.3       1 <0>         0.0000
     14 C14         2.7039   -1.7676    0.3407 C.3       1 <0>         0.0000
     15 C15         4.2689   -4.5758   -3.5867 C.3       1 <0>         0.0000
     16 C16         2.8081   -3.3486   -4.5542 C.3       1 <0>         0.0000
     17 C17         2.3310    0.2742   -1.6456 C.3       1 <0>         0.0000
     18 C18         3.2613   -1.8269   -1.0804 C.3       1 <0>         0.0000
     19 C19         5.1333   -3.4850   -5.9049 C.3       1 <0>         0.0000
     20 C20         5.2070   -2.1481   -4.3155 C.3       1 <0>         0.0000
     21 C21         1.1221    0.0407    2.6965 C.3       1 <0>         0.0000
     22 C22         1.4153   -0.9246    0.3391 C.3       1 <0>         0.0000
     23 C23         4.3527   -3.3980   -4.5829 C.3       1 <0>         0.0000
     24 C24         2.3173   -0.4634    3.5335 C.3       1 <0>         0.0000
     25 C25        -1.9510   -0.5193    4.8936 C.3       1 <0>         0.0000
     26 N1         -0.0081   -3.0515    1.2211 N.ar      1 <0>         0.0000
     27 N2         -0.8892   -0.6989    3.9083 N.am      1 <0>         0.0000
     28 N3          2.8013   -4.5810   -3.7410 N.pl3     1 <0>         0.0000
     29 N4          0.7028   -0.8657    1.6258 N.pl3     1 <0>         0.0000
     30 N5         -0.6888   -5.2021    0.6471 N.pl3     1 <0>         0.0000
     31 O1         -0.1330    1.4494    4.1837 O.2       1 <0>         0.0000
     32 O2          3.5123   -0.5262   -1.6225 O.3       1 <0>         0.0000
     33 O3          5.8532   -2.2589   -5.6142 O.3       1 <0>         0.0000
     34 H1          0.3277   -3.5974   -3.5283 H         1 <0>         0.0000
     35 H2          3.2539   -6.1061   -1.5902 H         1 <0>         0.0000
     36 H3         -2.0677   -3.0987    4.4793 H         1 <0>         0.0000
     37 H4         -1.1839   -3.8905   -1.5891 H         1 <0>         0.0000
     38 H5          1.7429   -6.3513    0.3493 H         1 <0>         0.0000
     39 H6         -1.9951   -5.1091    3.0214 H         1 <0>         0.0000
     40 H7          2.4455    0.9991    0.3708 H         1 <0>         0.0000
     41 H8          0.8125    1.0609   -0.3181 H         1 <0>         0.0000
     42 H9          2.4835   -2.7803    0.6867 H         1 <0>         0.0000
     43 H10         3.4550   -1.3231    1.0008 H         1 <0>         0.0000
     44 H11         4.7583   -5.5079   -3.8939 H         1 <0>         0.0000
     45 H12         4.6011   -4.3135   -2.5722 H         1 <0>         0.0000
     46 H13         2.4120   -2.4696   -4.0271 H         1 <0>         0.0000
     47 H14         2.3013   -3.4457   -5.5217 H         1 <0>         0.0000
     48 H15         1.5860   -0.1839   -2.3174 H         1 <0>         0.0000
     49 H16         2.6268    1.2367   -2.0708 H         1 <0>         0.0000
     50 H17         4.2195   -2.3525   -1.1076 H         1 <0>         0.0000
     51 H18         2.5542   -2.3673   -1.7238 H         1 <0>         0.0000
     52 H19         5.8116   -4.3442   -5.9889 H         1 <0>         0.0000
     53 H20         4.5339   -3.3989   -6.8197 H         1 <0>         0.0000
     54 H21         4.6595   -1.2067   -4.1998 H         1 <0>         0.0000
     55 H22         5.9290   -2.2490   -3.4951 H         1 <0>         0.0000
     56 H23         1.3752    1.0033    2.2549 H         1 <0>         0.0000
     57 H24         0.7187   -1.4268   -0.3389 H         1 <0>         0.0000
     58 H25         2.1172   -1.4648    3.9273 H         1 <0>         0.0000
     59 H26         2.4929    0.2168    4.3720 H         1 <0>         0.0000
     60 H27         3.2268   -0.5058    2.9309 H         1 <0>         0.0000
     61 H28        -1.7788   -1.1500    5.7730 H         1 <0>         0.0000
     62 H29        -2.9198   -0.7760    4.4536 H         1 <0>         0.0000
     63 H30        -1.9492    0.5252    5.2002 H         1 <0>         0.0000
     64 H31        -0.8097   -6.1179    1.0616 H         1 <0>         0.0000
@<TRIPOS>BOND
     1    1    4 ar
     2    1    7 ar
     3    1   34 1
     4    2    5 ar
     5    2    7 ar
     6    2   35 1
     7    3    6 ar
     8    3    8 ar
     9    3   36 1
    10    4    9 ar
    11    4   37 1
    12    5    9 ar
    13    5   38 1
    14    6   11 ar
    15    6   39 1
    16    7   28 1
    17    8   10 ar
    18    8   27 1
    19    9   30 1
    20   10   26 ar
    21   10   29 1
    22   11   26 ar
    23   11   30 1
    24   12   21 1
    25   12   27 am
    26   12   31 2
    27   13   17 1
    28   13   22 1
    29   13   40 1
    30   13   41 1
    31   14   18 1
    32   14   22 1
    33   14   42 1
    34   14   43 1
    35   15   23 1
    36   15   28 1
    37   15   44 1
    38   15   45 1
    39   16   23 1
    40   16   28 1
    41   16   46 1
    42   16   47 1
    43   17   32 1
    44   17   48 1
    45   17   49 1
    46   18   32 1
    47   18   50 1
    48   18   51 1
    49   19   23 1
    50   19   33 1
    51   19   52 1
    52   19   53 1
    53   20   23 1
    54   20   33 1
    55   20   54 1
    56   20   55 1
    57   21   24 1
    58   21   29 1
    59   21   56 1
    60   22   29 1
    61   22   57 1
    62   24   58 1
    63   24   59 1
    64   24   60 1
    65   25   27 1
    66   25   61 1
    67   25   62 1
    68   25   63 1
    69   30   64 1
