@<TRIPOS>MOLECULE
*****
   49    53     0     0     0
SMALL
NO_CHARGES

@<TRIPOS>ATOM
      1 C1         -0.2606    3.3670    4.9085 C.ar      1 <0>         0.0000
      2 C2          1.2558   -1.9145   -0.4858 C.ar      1 <0>         0.0000
      3 C3         -1.0493    2.8573    3.8748 C.ar      1 <0>         0.0000
      4 C4          0.1919   -1.3208    0.1925 C.ar      1 <0>         0.0000
      5 C5         -0.2045    2.7185    6.1459 C.ar      1 <0>         0.0000
      6 C6          3.6180   -2.5308   -2.2709 C.ar      1 <0>         0.0000
      7 C7          1.8178   -0.3294    1.6911 C.ar      1 <0>         0.0000
      8 C8          4.5787   -3.3101   -0.2308 C.ar      1 <0>         0.0000
      9 C9         -1.7319    1.0240    5.2948 C.ar      1 <0>         0.0000
     10 C10         4.5515   -3.3213   -2.9421 C.ar      1 <0>         0.0000
     11 C11         2.5990   -1.7486   -0.1087 C.ar      1 <0>         0.0000
     12 C12         3.6205   -2.5129   -0.8688 C.ar      1 <0>         0.0000
     13 C13         2.8945   -0.9119    1.0004 C.ar      1 <0>         0.0000
     14 C14        -1.7904    1.6789    4.0563 C.ar      1 <0>         0.0000
     15 C15         0.4892   -0.5235    1.3073 C.ar      1 <0>         0.0000
     16 C16        -0.9510    1.5528    6.3224 C.ar      1 <0>         0.0000
     17 C17         5.4812   -4.0656   -0.9831 C.ar      1 <0>         0.0000
     18 C18         4.2431   -0.5658    1.4646 C.2       1 <0>         0.0000
     19 C19        -1.8375    0.2322    1.8987 C.2       1 <0>         0.0000
     20 C20        -4.0179    0.6770    3.1587 C.3       1 <0>         0.0000
     21 C21        -3.7236    1.8970    2.3326 C.3       1 <0>         0.0000
     22 C22        -2.5737    1.0884    2.9224 C.3       1 <0>         0.0000
     23 C23         6.5617   -4.8741   -0.3064 C.3       1 <0>         0.0000
     24 N1          5.3796   -0.6387    0.7412 N.2       1 <0>         0.0000
     25 N2          5.4698   -4.0818   -2.3318 N.ar      1 <0>         0.0000
     26 N3          4.4712   -0.0591    2.6988 N.2       1 <0>         0.0000
     27 N4          6.3336   -0.1670    1.5593 N.2       1 <0>         0.0000
     28 N5          5.7906    0.1743    2.7314 N.2       1 <0>         0.0000
     29 N6         -0.4939    0.1280    2.0976 N.am      1 <0>         0.0000
     30 O1         -2.4565   -0.2987    0.9717 O.2       1 <0>         0.0000
     31 Cl1        -0.8991    0.7237    7.8738 Cl        1 <0>         0.0000
     32 H1          0.3252    4.2687    4.7526 H         1 <0>         0.0000
     33 H2          1.0333   -2.5669   -1.3265 H         1 <0>         0.0000
     34 H3         -1.0824    3.3620    2.9128 H         1 <0>         0.0000
     35 H4         -0.8325   -1.4735   -0.1177 H         1 <0>         0.0000
     36 H5          0.4114    3.1026    6.9527 H         1 <0>         0.0000
     37 H6          2.9163   -1.9196   -2.8321 H         1 <0>         0.0000
     38 H7          2.0623    0.3041    2.5404 H         1 <0>         0.0000
     39 H8          4.6366   -3.3241    0.8520 H         1 <0>         0.0000
     40 H9         -2.2863    0.1035    5.4487 H         1 <0>         0.0000
     41 H10         4.5642   -3.3411   -4.0326 H         1 <0>         0.0000
     42 H11        -4.4113    0.8209    4.1605 H         1 <0>         0.0000
     43 H12        -4.3510   -0.2112    2.6328 H         1 <0>         0.0000
     44 H13        -3.8608    1.8187    1.2594 H         1 <0>         0.0000
     45 H14        -3.9073    2.8723    2.7735 H         1 <0>         0.0000
     46 H15         6.7873   -5.7724   -0.8879 H         1 <0>         0.0000
     47 H16         7.4797   -4.2785   -0.2347 H         1 <0>         0.0000
     48 H17         6.2749   -5.1600    0.7098 H         1 <0>         0.0000
     49 H18        -0.1171    0.6249    2.8952 H         1 <0>         0.0000
@<TRIPOS>BOND
     1    1    3 ar
     2    1    5 ar
     3    1   32 1
     4    2    4 ar
     5    2   11 ar
     6    2   33 1
     7    3   14 ar
     8    3   34 1
     9    4   15 ar
    10    4   35 1
    11    5   16 ar
    12    5   36 1
    13    6   10 ar
    14    6   12 ar
    15    6   37 1
    16    7   13 ar
    17    7   15 ar
    18    7   38 1
    19    8   12 ar
    20    8   17 ar
    21    8   39 1
    22    9   14 ar
    23    9   16 ar
    24    9   40 1
    25   10   25 ar
    26   10   41 1
    27   11   12 1
    28   11   13 ar
    29   13   18 1
    30   14   22 1
    31   15   29 1
    32   16   31 1
    33   17   23 1
    34   17   25 ar
    35   18   24 1
    36   18   26 2
    37   19   22 1
    38   19   29 am
    39   19   30 2
    40   20   21 1
    41   20   22 1
    42   20   42 1
    43   20   43 1
    44   21   22 1
    45   21   44 1
    46   21   45 1
    47   23   46 1
    48   23   47 1
    49   23   48 1
    50   24   27 1
    51   26   28 1
    52   27   28 2
    53   29   49 1
