@<TRIPOS>MOLECULE
*****
   18    18     0     0     0
SMALL
NO_CHARGES

@<TRIPOS>ATOM
      1 C1         -0.1778    3.1129    2.1021 C.3       1 <0>         0.0000
      2 C2         -1.2840    2.1672    2.4999 C.3       1 <0>         0.0000
      3 C3         -1.3499    2.9042    1.1751 C.3       1 <0>         0.0000
      4 C4         -1.2048    4.2163   -1.8710 C.3       1 <0>         0.0000
      5 N1         -0.4154    1.8070   -2.5356 N.2       1 <0>         0.0000
      6 N2         -1.1329    2.1187   -0.0169 N.pl3     1 <0>         0.0000
      7 O1          1.0164    3.2282   -0.7776 O.2       1 <0>         0.0000
      8 S1         -0.2671    2.7710   -1.3430 S.o       1 <0>         0.0000
      9 H1         -0.1085    4.0737    2.6024 H         1 <0>         0.0000
     10 H2          0.7665    2.6930    1.7778 H         1 <0>         0.0000
     11 H3         -1.0767    1.1032    2.4501 H         1 <0>         0.0000
     12 H4         -1.9821    2.4698    3.2748 H         1 <0>         0.0000
     13 H5         -2.0782    3.7134    1.1036 H         1 <0>         0.0000
     14 H6         -1.2806    4.8939   -1.0197 H         1 <0>         0.0000
     15 H7         -0.6398    4.6838   -2.6782 H         1 <0>         0.0000
     16 H8         -2.1856    3.8972   -2.2234 H         1 <0>         0.0000
     17 H9          0.1868    0.9900   -2.4133 H         1 <0>         0.0000
     18 H10        -1.9588    1.6356   -0.3660 H         1 <0>         0.0000
@<TRIPOS>BOND
     1    1    2 1
     2    1    3 1
     3    1    9 1
     4    1   10 1
     5    2    3 1
     6    2   11 1
     7    2   12 1
     8    3    6 1
     9    3   13 1
    10    4    8 1
    11    4   14 1
    12    4   15 1
    13    4   16 1
    14    5    8 2
    15    5   17 1
    16    6    8 1
    17    6   18 1
    18    7    8 2
