@<TRIPOS>MOLECULE
*****
   18    18     0     0     0
SMALL
NO_CHARGES

@<TRIPOS>ATOM
      1 C1          1.2934   -0.9041   -1.4876 C.1       1 <0>         0.0000
      2 C2          0.8299    0.0997    1.9734 C.2       1 <0>         0.0000
      3 C3          0.7052    0.4329    4.2147 C.2       1 <0>         0.0000
      4 C4         -0.5216    1.0410    0.0569 C.3       1 <0>         0.0000
      5 C5          0.7862    0.3714    0.4964 C.3       1 <0>         0.0000
      6 N1          1.5256   -0.8640   -2.6330 N.1       1 <0>         0.0000
      7 N2          1.1879   -1.0389    2.4948 N.2       1 <0>         0.0000
      8 N3          0.5360    1.0270    2.9475 N.am      1 <0>         0.0000
      9 N4          1.1239   -0.8358    3.8588 N.am      1 <0>         0.0000
     10 N5          0.9640   -0.9214   -0.1879 N.3       1 <0>         0.0000
     11 O1          0.5257    0.9250    5.3165 O.2       1 <0>         0.0000
     12 H1         -1.3804    0.4269    0.3392 H         1 <0>         0.0000
     13 H2         -0.6249    2.0341    0.5063 H         1 <0>         0.0000
     14 H3         -0.5213    1.1686   -1.0287 H         1 <0>         0.0000
     15 H4          1.6242    1.0421    0.2553 H         1 <0>         0.0000
     16 H5          0.2058    1.9749    2.8292 H         1 <0>         0.0000
     17 H6          1.3130   -1.5930    4.5003 H         1 <0>         0.0000
     18 H7          1.4012   -1.6452    0.3781 H         1 <0>         0.0000
@<TRIPOS>BOND
     1    1    6 3
     2    1   10 1
     3    2    5 1
     4    2    7 2
     5    2    8 1
     6    3    8 am
     7    3    9 am
     8    3   11 2
     9    4    5 1
    10    4   12 1
    11    4   13 1
    12    4   14 1
    13    5   10 1
    14    5   15 1
    15    7    9 1
    16    8   16 1
    17    9   17 1
    18   10   18 1
