@<TRIPOS>MOLECULE
*****
   20    19     0     0     0
SMALL
NO_CHARGES

@<TRIPOS>ATOM
      1 C1          0.0393   -2.0957   -0.8097 C.2       1 <0>         0.0000
      2 C2         -0.2350   -3.5812   -0.9580 C.3       1 <0>         0.0000
      3 C3         -1.1714    0.9815   -2.0046 C.3       1 <0>         0.0000
      4 C4          0.2505    0.0823    3.2628 C.3       1 <0>         0.0000
      5 N1         -0.9146   -1.4019   -0.0673 N.am      1 <0>         0.0000
      6 O1          1.0138   -1.5381   -1.2901 O.2       1 <0>         0.0000
      7 O2         -2.0857    0.4808    1.2294 O.2       1 <0>         0.0000
      8 O3         -0.4312    1.1027   -0.7683 O.3       1 <0>         0.0000
      9 P1         -0.8156    0.2155    0.5037 P.3       1 <0>         0.0000
     10 S1          0.9431    0.4788    1.6054 S.3       1 <0>         0.0000
     11 H1         -1.2754   -3.7749   -1.2380 H         1 <0>         0.0000
     12 H2         -0.0421   -4.0875   -0.0058 H         1 <0>         0.0000
     13 H3          0.4316   -3.9905   -1.7168 H         1 <0>         0.0000
     14 H4         -0.8795    1.8394   -2.6098 H         1 <0>         0.0000
     15 H5         -2.2478    1.0107   -1.8162 H         1 <0>         0.0000
     16 H6         -0.8887    0.0560   -2.5107 H         1 <0>         0.0000
     17 H7          1.0236    0.3627    3.9811 H         1 <0>         0.0000
     18 H8          0.0409   -0.9847    3.3584 H         1 <0>         0.0000
     19 H9         -0.6544    0.6615    3.4454 H         1 <0>         0.0000
     20 H10        -1.6980   -1.9214    0.3174 H         1 <0>         0.0000
@<TRIPOS>BOND
     1    1    2 1
     2    1    5 am
     3    1    6 2
     4    2   11 1
     5    2   12 1
     6    2   13 1
     7    3    8 1
     8    3   14 1
     9    3   15 1
    10    3   16 1
    11    4   10 1
    12    4   17 1
    13    4   18 1
    14    4   19 1
    15    5    9 1
    16    5   20 1
    17    7    9 2
    18    8    9 1
    19    9   10 1
