@<TRIPOS>MOLECULE
*****
   14    14     0     0     0
SMALL
NO_CHARGES

@<TRIPOS>ATOM
      1 C1         -1.2629    0.3170   -0.9348 C.2       1 <0>         0.0000
      2 C2          0.6029   -0.5203   -0.2204 C.2       1 <0>         0.0000
      3 C3          1.7971   -1.2992    0.2469 C.2       1 <0>         0.0000
      4 C4          0.4259    0.9396    0.2460 C.3       1 <0>         0.0000
      5 N1          0.4991    1.1845    2.8091 N.1       1 <0>         0.0000
      6 N2         -0.8899    1.3230   -0.2170 N.2       1 <0>         0.0000
      7 N3         -0.3840   -0.8284   -0.9700 N.2       1 <0>         0.0000
      8 N4          0.5020    1.0671    1.7068 N.1       1 <0>         0.0000
      9 N5          2.0197   -2.4834   -0.3396 N.am      1 <0>         0.0000
     10 O1          2.4480   -0.7697    1.1518 O.2       1 <0>         0.0000
     11 H1         -2.1934    0.2993   -1.4952 H         1 <0>         0.0000
     12 H2          1.2187    1.5975   -0.1349 H         1 <0>         0.0000
     13 H3          2.8049   -3.0494   -0.0309 H         1 <0>         0.0000
     14 H4          1.4081   -2.8416   -1.0656 H         1 <0>         0.0000
@<TRIPOS>BOND
     1    1    6 2
     2    1    7 1
     3    1   11 1
     4    2    3 1
     5    2    4 1
     6    2    7 2
     7    3    9 am
     8    3   10 2
     9    4    6 1
    10    4    8 1
    11    4   12 1
    12    5    8 3
    13    9   13 1
    14    9   14 1
