@<TRIPOS>MOLECULE
*****
   30    31     0     0     0
SMALL
NO_CHARGES

@<TRIPOS>ATOM
      1 C1         -0.6825    2.5572    0.8667 C.ar      1 <0>         0.0000
      2 C2         -0.3966    3.8349    1.2782 C.ar      1 <0>         0.0000
      3 C3          0.3308    1.8683    0.1634 C.ar      1 <0>         0.0000
      4 C4          0.8874    4.3595    0.9651 C.ar      1 <0>         0.0000
      5 C5         -1.0956   -0.1099   -0.8645 C.3       1 <0>         0.0000
      6 C6         -0.5131   -0.6293    0.4232 C.3       1 <0>         0.0000
      7 C7          0.2061    0.4650   -0.3493 C.3       1 <0>         0.0000
      8 C8          1.1464   -2.1532    1.6054 C.3       1 <0>         0.0000
      9 C9          2.4511    6.1570    1.0636 C.3       1 <0>         0.0000
     10 C10         0.0635   -2.0299    0.5244 C.3       1 <0>         0.0000
     11 N1          1.5054    2.4300   -0.0935 N.ar      1 <0>         0.0000
     12 N2          1.8103    3.6698    0.2944 N.ar      1 <0>         0.0000
     13 N3          1.4738    0.1215   -1.0668 N.4       1 <0>         0.0000
     14 O1          1.1486    5.5990    1.3735 O.3       1 <0>         0.0000
     15 H1         -1.6469    2.1043    1.0763 H         1 <0>         0.0000
     16 H2         -1.1051    4.4493    1.8242 H         1 <0>         0.0000
     17 H3         -1.0474   -0.7632   -1.7329 H         1 <0>         0.0000
     18 H4         -1.9615    0.5445   -0.8476 H         1 <0>         0.0000
     19 H5         -0.9713   -0.2698    1.3420 H         1 <0>         0.0000
     20 H6          2.0005   -1.4874    1.4237 H         1 <0>         0.0000
     21 H7          1.5299   -3.1753    1.6590 H         1 <0>         0.0000
     22 H8          0.7473   -1.8933    2.5903 H         1 <0>         0.0000
     23 H9          2.4314    7.1585    1.4891 H         1 <0>         0.0000
     24 H10         2.5968    6.1953   -0.0177 H         1 <0>         0.0000
     25 H11         3.2378    5.5540    1.5213 H         1 <0>         0.0000
     26 H12        -0.7604   -2.7153    0.7483 H         1 <0>         0.0000
     27 H13         0.4469   -2.3570   -0.4519 H         1 <0>         0.0000
     28 H14         1.9624   -0.6807   -0.6573 H         1 <0>         0.0000
     29 H15         2.0566    1.0115   -0.9272 H         1 <0>         0.0000
     30 H16         1.3398   -0.0446   -2.0684 H         1 <0>         0.0000
@<TRIPOS>BOND
     1    1    2 ar
     2    1    3 ar
     3    1   15 1
     4    2    4 ar
     5    2   16 1
     6    3    7 1
     7    3   11 ar
     8    4   12 ar
     9    4   14 1
    10    5    6 1
    11    5    7 1
    12    5   17 1
    13    5   18 1
    14    6    7 1
    15    6   10 1
    16    6   19 1
    17    7   13 1
    18    8   10 1
    19    8   20 1
    20    8   21 1
    21    8   22 1
    22    9   14 1
    23    9   23 1
    24    9   24 1
    25    9   25 1
    26   10   26 1
    27   10   27 1
    28   11   12 ar
    29   13   28 1
    30   13   29 1
    31   13   30 1
