@<TRIPOS>MOLECULE
*****
   27    28     0     0     0
SMALL
NO_CHARGES

@<TRIPOS>ATOM
      1 C1         -2.0449   -2.9681   -1.3397 C.2       1 <0>         0.0000
      2 C2         -2.9379   -3.5938   -4.4293 C.3       1 <0>         0.0000
      3 C3         -2.8262   -2.1555   -4.8924 C.3       1 <0>         0.0000
      4 C4          0.3641   -0.5675    0.4193 C.3       1 <0>         0.0000
      5 C5         -1.7752   -0.2047    1.4400 C.3       1 <0>         0.0000
      6 C6         -3.1689   -2.4674   -3.4549 C.3       1 <0>         0.0000
      7 C7         -0.2864   -0.3096    1.8030 C.3       1 <0>         0.0000
      8 C8         -1.0063   -2.4723   -0.3288 C.3       1 <0>         0.0000
      9 N1         -0.7091   -1.0410   -0.4599 N.3       1 <0>         0.0000
     10 N2         -2.1687   -2.2025   -2.4593 N.am      1 <0>         0.0000
     11 O1         -2.6535   -4.0164   -1.1371 O.2       1 <0>         0.0000
     12 O2         -1.8526   -0.2820   -0.0026 O.3       1 <0>         0.0000
     13 O3          0.1391    0.9143    2.4046 O.3       1 <0>         0.0000
     14 H1         -3.8009   -4.1767   -4.7349 H         1 <0>         0.0000
     15 H2         -2.0203   -4.1596   -4.3092 H         1 <0>         0.0000
     16 H3         -1.8313   -1.7689   -5.0944 H         1 <0>         0.0000
     17 H4         -3.6106   -1.7451   -5.5211 H         1 <0>         0.0000
     18 H5          0.7324    0.3884    0.0357 H         1 <0>         0.0000
     19 H6          1.1829   -1.2906    0.4397 H         1 <0>         0.0000
     20 H7         -2.3673   -1.0056    1.8956 H         1 <0>         0.0000
     21 H8         -2.1802    0.7653    1.7330 H         1 <0>         0.0000
     22 H9         -4.1945   -2.2986   -3.1325 H         1 <0>         0.0000
     23 H10        -0.1114   -1.1445    2.4925 H         1 <0>         0.0000
     24 H11        -1.3588   -2.7699    0.6667 H         1 <0>         0.0000
     25 H12        -0.0771   -3.0168   -0.5285 H         1 <0>         0.0000
     26 H13        -1.7383   -1.2843   -2.4197 H         1 <0>         0.0000
     27 H14         1.0520    0.8050    2.7138 H         1 <0>         0.0000
@<TRIPOS>BOND
     1    1    8 1
     2    1   10 am
     3    1   11 2
     4    2    3 1
     5    2    6 1
     6    2   14 1
     7    2   15 1
     8    3    6 1
     9    3   16 1
    10    3   17 1
    11    4    7 1
    12    4    9 1
    13    4   18 1
    14    4   19 1
    15    5    7 1
    16    5   12 1
    17    5   20 1
    18    5   21 1
    19    6   10 1
    20    6   22 1
    21    7   13 1
    22    7   23 1
    23    8    9 1
    24    8   24 1
    25    8   25 1
    26    9   12 1
    27   10   26 1
    28   13   27 1
