@<TRIPOS>MOLECULE
*****
   35    37     0     0     0
SMALL
NO_CHARGES

@<TRIPOS>ATOM
      1 C1          0.6825    0.8356    2.2910 C.ar      1 <0>         0.0000
      2 C2         -0.6847    0.7692    1.9460 C.ar      1 <0>         0.0000
      3 C3          1.1829    0.0500    3.3157 C.ar      1 <0>         0.0000
      4 C4          0.7310   -1.6723    5.0873 C.2       1 <0>         0.0000
      5 C5         -3.8915   -3.2109    5.3743 C.ar      1 <0>         0.0000
      6 C6         -1.5568   -0.0799    2.6206 C.ar      1 <0>         0.0000
      7 C7         -4.9114   -3.9788    5.9135 C.ar      1 <0>         0.0000
      8 C8         -0.1737   -2.4908    5.7179 C.2       1 <0>         0.0000
      9 C9         -2.3130   -4.1967    6.9584 C.ar      1 <0>         0.0000
     10 C10         0.3214   -0.8230    4.0201 C.ar      1 <0>         0.0000
     11 C11        -2.5764   -3.3013    5.8811 C.ar      1 <0>         0.0000
     12 C12        -1.0410   -0.8657    3.6502 C.ar      1 <0>         0.0000
     13 C13        -4.6544   -4.8626    6.9760 C.ar      1 <0>         0.0000
     14 C14        -3.3230   -4.9678    7.5038 C.ar      1 <0>         0.0000
     15 C15        -1.5314   -2.5021    5.3150 C.2       1 <0>         0.0000
     16 C16        -6.9272   -5.6042    7.1046 C.3       1 <0>         0.0000
     17 C17        -1.8882   -6.0130    9.1006 C.3       1 <0>         0.0000
     18 O1         -1.9095   -1.6974    4.3068 O.3       1 <0>         0.0000
     19 O2         -5.5624   -5.6410    7.5611 O.3       1 <0>         0.0000
     20 O3         -3.1851   -5.8430    8.5203 O.3       1 <0>         0.0000
     21 H1          1.3405    1.5067    1.7482 H         1 <0>         0.0000
     22 H2         -1.0650    1.3903    1.1406 H         1 <0>         0.0000
     23 H3          2.2335    0.0938    3.5888 H         1 <0>         0.0000
     24 H4          1.7716   -1.6689    5.4018 H         1 <0>         0.0000
     25 H5         -4.1108   -2.5362    4.5556 H         1 <0>         0.0000
     26 H6         -2.6098   -0.1406    2.3654 H         1 <0>         0.0000
     27 H7         -5.9123   -3.8932    5.5083 H         1 <0>         0.0000
     28 H8          0.1428   -3.1340    6.5274 H         1 <0>         0.0000
     29 H9         -1.3150   -4.2841    7.3651 H         1 <0>         0.0000
     30 H10        -7.4586   -6.3139    7.7361 H         1 <0>         0.0000
     31 H11        -6.9912   -5.9170    6.0581 H         1 <0>         0.0000
     32 H12        -7.3492   -4.6031    7.2335 H         1 <0>         0.0000
     33 H13        -2.0142   -6.7587    9.8842 H         1 <0>         0.0000
     34 H14        -1.5302   -5.0754    9.5415 H         1 <0>         0.0000
     35 H15        -1.1713   -6.3806    8.3572 H         1 <0>         0.0000
@<TRIPOS>BOND
     1    1    2 ar
     2    1    3 ar
     3    1   21 1
     4    2    6 ar
     5    2   22 1
     6    3   10 ar
     7    3   23 1
     8    4    8 1
     9    4   10 2
    10    4   24 1
    11    5    7 ar
    12    5   11 ar
    13    5   25 1
    14    6   12 ar
    15    6   26 1
    16    7   13 ar
    17    7   27 1
    18    8   15 2
    19    8   28 1
    20    9   11 ar
    21    9   14 ar
    22    9   29 1
    23   10   12 ar
    24   11   15 1
    25   12   18 2
    26   13   14 ar
    27   13   19 1
    28   14   20 1
    29   15   18 1
    30   16   19 1
    31   16   30 1
    32   16   31 1
    33   16   32 1
    34   17   20 1
    35   17   33 1
    36   17   34 1
    37   17   35 1
