@<TRIPOS>MOLECULE
*****
   30    31     0     0     0
SMALL
NO_CHARGES

@<TRIPOS>ATOM
      1 C1         -0.3122    2.4316    1.6217 C.ar      1 <0>         0.0000
      2 C2         -0.0540    3.7716    1.7678 C.ar      1 <0>         0.0000
      3 C3          0.0247    1.8452    0.3813 C.ar      1 <0>         0.0000
      4 C4          0.5273    4.4576    0.6662 C.ar      1 <0>         0.0000
      5 C5         -1.3318   -0.4200    0.5669 C.3       1 <0>         0.0000
      6 C6          0.0622   -0.7174    1.0524 C.3       1 <0>         0.0000
      7 C7         -0.1699    0.3973    0.0447 C.3       1 <0>         0.0000
      8 C8          2.3103   -1.8442    0.6656 C.3       1 <0>         0.0000
      9 C9          1.3630    6.4780   -0.2856 C.3       1 <0>         0.0000
     10 C10         0.7827   -1.9947    0.6604 C.3       1 <0>         0.0000
     11 N1          0.5624    2.5560   -0.6019 N.ar      1 <0>         0.0000
     12 N2          0.8242    3.8595   -0.4876 N.ar      1 <0>         0.0000
     13 N3          0.2730    0.1887   -1.3696 N.4       1 <0>         0.0000
     14 O1          0.7730    5.7559    0.8256 O.3       1 <0>         0.0000
     15 H1         -0.7563    1.8562    2.4283 H         1 <0>         0.0000
     16 H2         -0.2755    4.3174    2.6792 H         1 <0>         0.0000
     17 H3         -1.7866   -1.1373   -0.1127 H         1 <0>         0.0000
     18 H4         -2.0384    0.0898    1.2141 H         1 <0>         0.0000
     19 H5          0.3197   -0.3479    2.0426 H         1 <0>         0.0000
     20 H6          2.6599   -1.0742   -0.0349 H         1 <0>         0.0000
     21 H7          2.7962   -2.7843    0.3925 H         1 <0>         0.0000
     22 H8          2.6717   -1.5563    1.6573 H         1 <0>         0.0000
     23 H9          1.4674    7.5003    0.0729 H         1 <0>         0.0000
     24 H10         0.7042    6.4347   -1.1551 H         1 <0>         0.0000
     25 H11         2.3360    6.0516   -0.5376 H         1 <0>         0.0000
     26 H12         0.4869   -2.7762    1.3679 H         1 <0>         0.0000
     27 H13         0.4284   -2.3489   -0.3175 H         1 <0>         0.0000
     28 H14         1.0404   -0.4849   -1.4549 H         1 <0>         0.0000
     29 H15         0.6174    1.1679   -1.6415 H         1 <0>         0.0000
     30 H16        -0.4881   -0.0908   -1.9951 H         1 <0>         0.0000
@<TRIPOS>BOND
     1    1    2 ar
     2    1    3 ar
     3    1   15 1
     4    2    4 ar
     5    2   16 1
     6    3    7 1
     7    3   11 ar
     8    4   12 ar
     9    4   14 1
    10    5    6 1
    11    5    7 1
    12    5   17 1
    13    5   18 1
    14    6    7 1
    15    6   10 1
    16    6   19 1
    17    7   13 1
    18    8   10 1
    19    8   20 1
    20    8   21 1
    21    8   22 1
    22    9   14 1
    23    9   23 1
    24    9   24 1
    25    9   25 1
    26   10   26 1
    27   10   27 1
    28   11   12 ar
    29   13   28 1
    30   13   29 1
    31   13   30 1
