@<TRIPOS>MOLECULE
*****
   27    28     0     0     0
SMALL
NO_CHARGES

@<TRIPOS>ATOM
      1 C1         -0.0415   -1.6133   -3.2085 C.2       1 <0>         0.0000
      2 C2         -2.9806   -2.4440   -4.3732 C.3       1 <0>         0.0000
      3 C3         -3.4052   -3.2141   -3.1402 C.3       1 <0>         0.0000
      4 C4         -0.7189    0.4839   -0.8830 C.3       1 <0>         0.0000
      5 C5          0.4497    0.2149    1.1769 C.3       1 <0>         0.0000
      6 C6         -1.9456   -3.1354   -3.5224 C.3       1 <0>         0.0000
      7 C7         -0.9203    0.6844    0.6216 C.3       1 <0>         0.0000
      8 C8          0.8428   -0.9322   -2.1601 C.3       1 <0>         0.0000
      9 N1          0.1440   -0.7068   -0.8986 N.3       1 <0>         0.0000
     10 N2         -1.0841   -2.3340   -2.6994 N.am      1 <0>         0.0000
     11 O1          0.2117   -1.5151   -4.4051 O.2       1 <0>         0.0000
     12 O2          1.1822   -0.3195    0.0652 O.3       1 <0>         0.0000
     13 O3         -2.0088   -0.0778    1.1385 O.3       1 <0>         0.0000
     14 H1         -3.1873   -2.8663   -5.3512 H         1 <0>         0.0000
     15 H2         -3.0036   -1.3606   -4.3272 H         1 <0>         0.0000
     16 H3         -3.7276   -2.6393   -2.2763 H         1 <0>         0.0000
     17 H4         -3.9098   -4.1672   -3.2655 H         1 <0>         0.0000
     18 H5         -1.6591    0.2837   -1.4002 H         1 <0>         0.0000
     19 H6         -0.2127    1.3477   -1.3408 H         1 <0>         0.0000
     20 H7          1.0522    1.0265    1.5922 H         1 <0>         0.0000
     21 H8          0.2906   -0.5526    1.9447 H         1 <0>         0.0000
     22 H9         -1.4832   -4.0275   -3.9398 H         1 <0>         0.0000
     23 H10        -1.1464    1.7205    0.8760 H         1 <0>         0.0000
     24 H11         1.6871   -1.5973   -1.9553 H         1 <0>         0.0000
     25 H12         1.2401   -0.0075   -2.5983 H         1 <0>         0.0000
     26 H13        -1.1126   -2.4336   -1.6904 H         1 <0>         0.0000
     27 H14        -1.8355   -1.0088    0.9189 H         1 <0>         0.0000
@<TRIPOS>BOND
     1    1    8 1
     2    1   10 am
     3    1   11 2
     4    2    3 1
     5    2    6 1
     6    2   14 1
     7    2   15 1
     8    3    6 1
     9    3   16 1
    10    3   17 1
    11    4    7 1
    12    4    9 1
    13    4   18 1
    14    4   19 1
    15    5    7 1
    16    5   12 1
    17    5   20 1
    18    5   21 1
    19    6   10 1
    20    6   22 1
    21    7   13 1
    22    7   23 1
    23    8    9 1
    24    8   24 1
    25    8   25 1
    26    9   12 1
    27   10   26 1
    28   13   27 1
