@<TRIPOS>MOLECULE
*****
   22    22     0     0     0
SMALL
NO_CHARGES

@<TRIPOS>ATOM
      1 C1         -0.4297    1.9245    0.3964 C.2       1 <0>         0.0000
      2 C2         -1.2306    0.2053   -1.4160 C.2       1 <0>         0.0000
      3 C3         -0.4401   -0.6088    0.8602 C.3       1 <0>         0.0000
      4 C4         -0.4760    0.5117   -0.1684 C.3       1 <0>         0.0000
      5 C5          0.8132   -0.3645    0.0897 C.3       1 <0>         0.0000
      6 C6          1.9857    0.3223    0.7697 C.3       1 <0>         0.0000
      7 C7          1.2436   -1.3533   -0.9801 C.3       1 <0>         0.0000
      8 N1         -0.1853    2.9474   -0.4789 N.am      1 <0>         0.0000
      9 O1         -0.5127    2.1224    1.6078 O.2       1 <0>         0.0000
     10 O2         -1.7556   -0.8604   -1.6813 O.2       1 <0>         0.0000
     11 O3         -1.2794    1.2378   -2.3173 O.3       1 <0>         0.0000
     12 H1         -0.4867   -0.2687    1.8889 H         1 <0>         0.0000
     13 H2         -1.0313   -1.4838    0.6126 H         1 <0>         0.0000
     14 H3          2.5859    0.8800    0.0422 H         1 <0>         0.0000
     15 H4          2.6300   -0.4414    1.2199 H         1 <0>         0.0000
     16 H5          1.6711    1.0058    1.5589 H         1 <0>         0.0000
     17 H6          1.8249   -0.8533   -1.7635 H         1 <0>         0.0000
     18 H7          0.4018   -1.8690   -1.4432 H         1 <0>         0.0000
     19 H8          1.8901   -2.1100   -0.5214 H         1 <0>         0.0000
     20 H9         -0.2837    3.8789   -0.0934 H         1 <0>         0.0000
     21 H10        -0.3613    2.8204   -1.4669 H         1 <0>         0.0000
     22 H11        -1.7977    0.9018   -3.0740 H         1 <0>         0.0000
@<TRIPOS>BOND
     1    1    4 1
     2    1    8 am
     3    1    9 2
     4    2    4 1
     5    2   10 2
     6    2   11 1
     7    3    4 1
     8    3    5 1
     9    3   12 1
    10    3   13 1
    11    4    5 1
    12    5    6 1
    13    5    7 1
    14    6   14 1
    15    6   15 1
    16    6   16 1
    17    7   17 1
    18    7   18 1
    19    7   19 1
    20    8   20 1
    21    8   21 1
    22   11   22 1
