@<TRIPOS>MOLECULE
*****
   27    28     0     0     0
SMALL
NO_CHARGES

@<TRIPOS>ATOM
      1 C1         -0.7493   -3.8333   -1.0410 C.2       1 <0>         0.0000
      2 C2         -4.1164   -4.5182   -2.4264 C.3       1 <0>         0.0000
      3 C3         -3.3874   -5.6118   -1.6725 C.3       1 <0>         0.0000
      4 C4         -0.4601   -0.2848    0.3672 C.3       1 <0>         0.0000
      5 C5         -1.4256   -1.5998    2.1255 C.3       1 <0>         0.0000
      6 C6         -2.6083   -4.5840   -2.4559 C.3       1 <0>         0.0000
      7 C7         -0.4244   -0.4481    1.9023 C.3       1 <0>         0.0000
      8 C8         -0.1278   -2.6200   -0.3429 C.3       1 <0>         0.0000
      9 N1         -1.0667   -1.5053   -0.1720 N.3       1 <0>         0.0000
     10 N2         -1.8814   -3.5717   -1.7449 N.am      1 <0>         0.0000
     11 O1         -0.2031   -4.9333   -0.9743 O.2       1 <0>         0.0000
     12 O2         -2.0366   -1.8595    0.8418 O.3       1 <0>         0.0000
     13 O3         -0.8172    0.7990    2.4775 O.3       1 <0>         0.0000
     14 H1         -4.6520   -4.7744   -3.3356 H         1 <0>         0.0000
     15 H2         -4.5688   -3.7232   -1.8399 H         1 <0>         0.0000
     16 H3         -3.3412   -5.5343   -0.5916 H         1 <0>         0.0000
     17 H4         -3.4151   -6.6245   -2.0620 H         1 <0>         0.0000
     18 H5         -1.1093    0.5652    0.1419 H         1 <0>         0.0000
     19 H6          0.5212   -0.1156   -0.0788 H         1 <0>         0.0000
     20 H7         -0.9336   -2.5048    2.5029 H         1 <0>         0.0000
     21 H8         -2.2319   -1.3113    2.8036 H         1 <0>         0.0000
     22 H9         -2.1361   -4.9230   -3.3751 H         1 <0>         0.0000
     23 H10         0.5750   -0.7273    2.2582 H         1 <0>         0.0000
     24 H11         0.3196   -2.9805    0.5921 H         1 <0>         0.0000
     25 H12         0.6871   -2.2634   -0.9817 H         1 <0>         0.0000
     26 H13        -2.2351   -2.6221   -1.7032 H         1 <0>         0.0000
     27 H14        -0.6659    0.7599    3.4345 H         1 <0>         0.0000
@<TRIPOS>BOND
     1    1    8 1
     2    1   10 am
     3    1   11 2
     4    2    3 1
     5    2    6 1
     6    2   14 1
     7    2   15 1
     8    3    6 1
     9    3   16 1
    10    3   17 1
    11    4    7 1
    12    4    9 1
    13    4   18 1
    14    4   19 1
    15    5    7 1
    16    5   12 1
    17    5   20 1
    18    5   21 1
    19    6   10 1
    20    6   22 1
    21    7   13 1
    22    7   23 1
    23    8    9 1
    24    8   24 1
    25    8   25 1
    26    9   12 1
    27   10   26 1
    28   13   27 1
