@<TRIPOS>MOLECULE
*****
   25    25     0     0     0
SMALL
NO_CHARGES

@<TRIPOS>ATOM
      1 C1          5.1960    1.1453   -2.6163 C.2       1 <0>         0.0000
      2 C2          4.5583    0.8163   -3.7821 C.2       1 <0>         0.0000
      3 C3          6.4834   -0.2074   -4.1791 C.2       1 <0>         0.0000
      4 C4          2.9878    2.7325   -4.1990 C.2       1 <0>         0.0000
      5 C5          2.7881    4.6690   -2.8539 C.3       1 <0>         0.0000
      6 C6          6.1714   -2.0937   -7.0057 C.3       1 <0>         0.0000
      7 C7          3.1563    1.2234   -4.1758 C.3       1 <0>         0.0000
      8 N1          5.3042    0.0604   -4.6670 N.2       1 <0>         0.0000
      9 N2          7.4269   -0.9756   -4.8656 N.pl3     1 <0>         0.0000
     10 O1          2.9516    3.4188   -5.1993 O.2       1 <0>         0.0000
     11 O2          8.2560   -3.1878   -5.7199 O.2       1 <0>         0.0000
     12 O3          5.9752   -3.1501   -4.5780 O.2       1 <0>         0.0000
     13 O4          2.8928    3.2309   -2.9411 O.3       1 <0>         0.0000
     14 S1          6.7857    0.4426   -2.5784 S.3       1 <0>         0.0000
     15 S2          6.9680   -2.5416   -5.4601 S.o2      1 <0>         0.0000
     16 H1          4.8355    1.7659   -1.8078 H         1 <0>         0.0000
     17 H2          2.7218    4.8917   -1.7892 H         1 <0>         0.0000
     18 H3          1.8948    5.0166   -3.3773 H         1 <0>         0.0000
     19 H4          3.6701    5.1400   -3.2939 H         1 <0>         0.0000
     20 H5          5.8137   -3.0253   -7.4480 H         1 <0>         0.0000
     21 H6          5.3479   -1.4209   -6.7660 H         1 <0>         0.0000
     22 H7          6.9145   -1.6128   -7.6412 H         1 <0>         0.0000
     23 H8          2.9521    0.8476   -5.1774 H         1 <0>         0.0000
     24 H9          2.4309    0.7948   -3.4777 H         1 <0>         0.0000
     25 H10         8.3541   -1.0421   -4.4505 H         1 <0>         0.0000
@<TRIPOS>BOND
     1    1    2 2
     2    1   14 1
     3    1   16 1
     4    2    7 1
     5    2    8 1
     6    3    8 2
     7    3    9 1
     8    3   14 1
     9    4    7 1
    10    4   10 2
    11    4   13 1
    12    5   13 1
    13    5   17 1
    14    5   18 1
    15    5   19 1
    16    6   15 1
    17    6   20 1
    18    6   21 1
    19    6   22 1
    20    7   23 1
    21    7   24 1
    22    9   15 1
    23    9   25 1
    24   11   15 2
    25   12   15 2
