@<TRIPOS>MOLECULE
*****
   20    19     0     0     0
SMALL
NO_CHARGES

@<TRIPOS>ATOM
      1 C1         -1.5135   -1.5953   -0.3515 C.2       1 <0>         0.0000
      2 C2         -2.3840   -0.7394   -1.2414 C.3       1 <0>         0.0000
      3 C3         -0.1135    2.6686   -1.0303 C.3       1 <0>         0.0000
      4 C4          2.5926    0.1612    0.6434 C.3       1 <0>         0.0000
      5 N1         -0.5437   -0.9277    0.4244 N.am      1 <0>         0.0000
      6 O1         -1.5997   -2.8098   -0.2769 O.2       1 <0>         0.0000
      7 O2         -1.5126    1.4476    1.3655 O.2       1 <0>         0.0000
      8 O3         -0.0225    1.2447   -0.7738 O.3       1 <0>         0.0000
      9 P1         -0.3836    0.7349    0.7211 P.3       1 <0>         0.0000
     10 S1          1.3866    0.8563    1.8490 S.3       1 <0>         0.0000
     11 H1         -1.7705   -0.2082   -1.9737 H         1 <0>         0.0000
     12 H2         -2.9177    0.0099   -0.6485 H         1 <0>         0.0000
     13 H3         -3.0972   -1.3869   -1.7504 H         1 <0>         0.0000
     14 H4          0.0694    2.7914   -2.0978 H         1 <0>         0.0000
     15 H5          0.6485    3.2042   -0.4561 H         1 <0>         0.0000
     16 H6         -1.1058    3.0376   -0.7640 H         1 <0>         0.0000
     17 H7          3.5727    0.2439    1.1174 H         1 <0>         0.0000
     18 H8          2.5826    0.7358   -0.2830 H         1 <0>         0.0000
     19 H9          2.3814   -0.8878    0.4303 H         1 <0>         0.0000
     20 H10        -0.0972   -1.5509    1.0935 H         1 <0>         0.0000
@<TRIPOS>BOND
     1    1    2 1
     2    1    5 am
     3    1    6 2
     4    2   11 1
     5    2   12 1
     6    2   13 1
     7    3    8 1
     8    3   14 1
     9    3   15 1
    10    3   16 1
    11    4   10 1
    12    4   17 1
    13    4   18 1
    14    4   19 1
    15    5    9 1
    16    5   20 1
    17    7    9 2
    18    8    9 1
    19    9   10 1
