@<TRIPOS>MOLECULE
*****
   25    25     0     0     0
SMALL
NO_CHARGES

@<TRIPOS>ATOM
      1 C1          0.6601    0.4877    3.2221 C.2       1 <0>         0.0000
      2 C2          0.4949    0.0620    1.9509 C.2       1 <0>         0.0000
      3 C3          2.4695   -1.0890    2.4697 C.2       1 <0>         0.0000
      4 C4         -0.0769    0.9052   -0.3465 C.2       1 <0>         0.0000
      5 C5          1.1954    0.2281   -2.2439 C.3       1 <0>         0.0000
      6 C6          4.5403   -4.1009    1.4187 C.3       1 <0>         0.0000
      7 C7         -0.6112    0.4137    0.9954 C.3       1 <0>         0.0000
      8 N1          3.5345   -1.8418    2.3816 N.2       1 <0>         0.0000
      9 N2          1.4991   -0.8163    1.5485 N.pl3     1 <0>         0.0000
     10 O1         -0.1689    2.0384   -0.7651 O.2       1 <0>         0.0000
     11 O2          2.7724   -2.6711    0.0305 O.2       1 <0>         0.0000
     12 O3          5.0981   -1.7366    0.3474 O.2       1 <0>         0.0000
     13 O4          0.5316   -0.1097   -1.0010 O.3       1 <0>         0.0000
     14 S1          2.0995   -0.2098    3.9582 S.3       1 <0>         0.0000
     15 S2          3.9624   -2.4806    0.9028 S.o2      1 <0>         0.0000
     16 H1          0.0295    1.1713    3.7726 H         1 <0>         0.0000
     17 H2          1.7035   -0.6845   -2.5507 H         1 <0>         0.0000
     18 H3          1.9127    1.0334   -2.0760 H         1 <0>         0.0000
     19 H4          0.4576    0.5400   -2.9859 H         1 <0>         0.0000
     20 H5          4.9114   -4.5991    0.5215 H         1 <0>         0.0000
     21 H6          5.3414   -3.9572    2.1436 H         1 <0>         0.0000
     22 H7          3.7041   -4.6482    1.8538 H         1 <0>         0.0000
     23 H8         -1.2307    1.1994    1.4258 H         1 <0>         0.0000
     24 H9         -1.2346   -0.4697    0.8130 H         1 <0>         0.0000
     25 H10         1.5362   -1.2609    0.6280 H         1 <0>         0.0000
@<TRIPOS>BOND
     1    1    2 2
     2    1   14 1
     3    1   16 1
     4    2    7 1
     5    2    9 1
     6    3    8 2
     7    3    9 1
     8    3   14 1
     9    4    7 1
    10    4   10 2
    11    4   13 1
    12    5   13 1
    13    5   17 1
    14    5   18 1
    15    5   19 1
    16    6   15 1
    17    6   20 1
    18    6   21 1
    19    6   22 1
    20    7   23 1
    21    7   24 1
    22    8   15 1
    23    9   25 1
    24   11   15 2
    25   12   15 2
