@<TRIPOS>MOLECULE
*****
   25    25     0     0     0
SMALL
NO_CHARGES

@<TRIPOS>ATOM
      1 C1          0.6575   -0.1615    2.8706 C.2       1 <0>         0.0000
      2 C2          0.6762   -0.1743    1.5201 C.2       1 <0>         0.0000
      3 C3          2.9807   -0.3239    1.9207 C.2       1 <0>         0.0000
      4 C4         -0.4768   -1.2202   -0.4531 C.2       1 <0>         0.0000
      5 C5          0.7853   -2.1084   -2.2687 C.3       1 <0>         0.0000
      6 C6          6.3500    0.3141    0.2765 C.3       1 <0>         0.0000
      7 C7         -0.4937   -0.0966    0.5791 C.3       1 <0>         0.0000
      8 N1          4.2722   -0.4305    1.7497 N.2       1 <0>         0.0000
      9 N2          1.9689   -0.2565    1.0062 N.pl3     1 <0>         0.0000
     10 O1         -1.2680   -2.1363   -0.5049 O.2       1 <0>         0.0000
     11 O2          5.2813   -2.1091    0.0891 O.2       1 <0>         0.0000
     12 O3          3.9696   -0.1528   -0.8247 O.2       1 <0>         0.0000
     13 O4          0.5642   -1.0537   -1.2999 O.3       1 <0>         0.0000
     14 S1          2.2820   -0.2554    3.5433 S.3       1 <0>         0.0000
     15 S2          4.8730   -0.7062    0.2197 S.o2      1 <0>         0.0000
     16 H1         -0.2088   -0.1078    3.5146 H         1 <0>         0.0000
     17 H2          1.7149   -1.8428   -2.7691 H         1 <0>         0.0000
     18 H3         -0.0479   -2.1456   -2.9733 H         1 <0>         0.0000
     19 H4          0.8802   -3.0686   -1.7586 H         1 <0>         0.0000
     20 H5          6.8686    0.1636   -0.6718 H         1 <0>         0.0000
     21 H6          6.0514    1.3551    0.3994 H         1 <0>         0.0000
     22 H7          6.9614   -0.0254    1.1125 H         1 <0>         0.0000
     23 H8         -0.4725    0.8602    0.0438 H         1 <0>         0.0000
     24 H9         -1.4227   -0.1641    1.1435 H         1 <0>         0.0000
     25 H10         2.1888   -0.2587    0.0072 H         1 <0>         0.0000
@<TRIPOS>BOND
     1    1    2 2
     2    1   14 1
     3    1   16 1
     4    2    7 1
     5    2    9 1
     6    3    8 2
     7    3    9 1
     8    3   14 1
     9    4    7 1
    10    4   10 2
    11    4   13 1
    12    5   13 1
    13    5   17 1
    14    5   18 1
    15    5   19 1
    16    6   15 1
    17    6   20 1
    18    6   21 1
    19    6   22 1
    20    7   23 1
    21    7   24 1
    22    8   15 1
    23    9   25 1
    24   11   15 2
    25   12   15 2
