@<TRIPOS>MOLECULE
*****
   24    24     0     0     0
SMALL
NO_CHARGES

@<TRIPOS>ATOM
      1 C1          3.2715    1.5739   -6.1725 C.2       1 <0>         0.0000
      2 C2          2.7161    0.3974   -5.7598 C.2       1 <0>         0.0000
      3 C3          4.4590   -0.5239   -6.8402 C.2       1 <0>         0.0000
      4 C4          0.8048   -1.1062   -5.3717 C.2       1 <0>         0.0000
      5 C5          0.3847   -2.4272   -7.2928 C.3       1 <0>         0.0000
      6 C6          4.8145   -3.5147   -5.7151 C.3       1 <0>         0.0000
      7 C7          1.4298    0.2245   -4.9819 C.3       1 <0>         0.0000
      8 N1          3.3788   -0.7569   -6.1071 N.2       1 <0>         0.0000
      9 N2          5.3424   -1.3678   -7.3906 N.2       1 <0>         0.0000
     10 O1          0.6343   -2.0434   -4.6119 O.2       1 <0>         0.0000
     11 O2          6.1141   -3.6678   -8.0109 O.2       1 <0>         0.0000
     12 O3          3.6301   -3.2290   -8.0607 O.2       1 <0>         0.0000
     13 O4          0.4825   -1.1206   -6.6821 O.3       1 <0>         0.0000
     14 S1          4.7348    1.2436   -7.0882 S.3       1 <0>         0.0000
     15 S2          4.9519   -2.9556   -7.4394 S.o2      1 <0>         0.0000
     16 H1          2.9098    2.5823   -6.0159 H         1 <0>         0.0000
     17 H2         -0.0396   -2.2537   -8.2831 H         1 <0>         0.0000
     18 H3         -0.2634   -3.0816   -6.7045 H         1 <0>         0.0000
     19 H4          1.3920   -2.8441   -7.3835 H         1 <0>         0.0000
     20 H5          4.5959   -4.5846   -5.7470 H         1 <0>         0.0000
     21 H6          5.7733   -3.3322   -5.2260 H         1 <0>         0.0000
     22 H7          4.0081   -2.9577   -5.2382 H         1 <0>         0.0000
     23 H8          1.6069    0.1923   -3.9030 H         1 <0>         0.0000
     24 H9          0.7388    1.0448   -5.2018 H         1 <0>         0.0000
@<TRIPOS>BOND
     1    1    2 2
     2    1   14 1
     3    1   16 1
     4    2    7 1
     5    2    8 1
     6    3    8 2
     7    3    9 1
     8    3   14 1
     9    4    7 1
    10    4   10 2
    11    4   13 1
    12    5   13 1
    13    5   17 1
    14    5   18 1
    15    5   19 1
    16    6   15 1
    17    6   20 1
    18    6   21 1
    19    6   22 1
    20    7   23 1
    21    7   24 1
    22    9   15 1
    23   11   15 2
    24   12   15 2
