@<TRIPOS>MOLECULE
*****
   25    25     0     0     0
SMALL
NO_CHARGES

@<TRIPOS>ATOM
      1 C1          4.8570    1.4348   -4.8171 C.2       1 <0>         0.0000
      2 C2          4.2163    0.4211   -4.1620 C.2       1 <0>         0.0000
      3 C3          6.1676   -0.5767   -4.4849 C.2       1 <0>         0.0000
      4 C4          1.8928   -0.5866   -4.3003 C.2       1 <0>         0.0000
      5 C5          1.2734   -1.6164   -6.3329 C.3       1 <0>         0.0000
      6 C6          8.4832   -0.8402   -2.2123 C.3       1 <0>         0.0000
      7 C7          2.8070    0.4429   -3.6465 C.3       1 <0>         0.0000
      8 N1          4.9793   -0.7179   -3.9649 N.2       1 <0>         0.0000
      9 N2          7.1006   -1.6228   -4.5008 N.pl3     1 <0>         0.0000
     10 O1          1.0493   -1.2274   -3.7057 O.2       1 <0>         0.0000
     11 O2          9.2940   -2.7136   -3.9257 O.2       1 <0>         0.0000
     12 O3          9.2401   -0.2646   -4.6841 O.2       1 <0>         0.0000
     13 O4          2.1070   -0.6705   -5.6303 O.3       1 <0>         0.0000
     14 S1          6.4742    0.9655   -5.2578 S.3       1 <0>         0.0000
     15 S2          8.6934   -1.3837   -3.9225 S.o2      1 <0>         0.0000
     16 H1          4.4823    2.4210   -5.0587 H         1 <0>         0.0000
     17 H2          1.5887   -1.5623   -7.3746 H         1 <0>         0.0000
     18 H3          0.2202   -1.3438   -6.2322 H         1 <0>         0.0000
     19 H4          1.4251   -2.6220   -5.9346 H         1 <0>         0.0000
     20 H5          9.4825   -0.6305   -1.8268 H         1 <0>         0.0000
     21 H6          7.8747    0.0649   -2.2071 H         1 <0>         0.0000
     22 H7          8.0107   -1.6437   -1.6463 H         1 <0>         0.0000
     23 H8          2.7804    0.2446   -2.5727 H         1 <0>         0.0000
     24 H9          2.3649    1.4301   -3.8158 H         1 <0>         0.0000
     25 H10         6.7018   -2.4974   -4.1600 H         1 <0>         0.0000
@<TRIPOS>BOND
     1    1    2 2
     2    1   14 1
     3    1   16 1
     4    2    7 1
     5    2    8 1
     6    3    8 2
     7    3    9 1
     8    3   14 1
     9    4    7 1
    10    4   10 2
    11    4   13 1
    12    5   13 1
    13    5   17 1
    14    5   18 1
    15    5   19 1
    16    6   15 1
    17    6   20 1
    18    6   21 1
    19    6   22 1
    20    7   23 1
    21    7   24 1
    22    9   15 1
    23    9   25 1
    24   11   15 2
    25   12   15 2
