@<TRIPOS>MOLECULE
*****
   14    14     0     0     0
SMALL
NO_CHARGES

@<TRIPOS>ATOM
      1 C1         -0.7836   -2.4895   -0.5882 C.2       1 <0>         0.0000
      2 C2          0.2906   -1.9633    0.0893 C.2       1 <0>         0.0000
      3 C3          0.5157   -0.5452    0.5277 C.3       1 <0>         0.0000
      4 N1         -0.7191   -3.8437   -0.8024 N.2       1 <0>         0.0000
      5 N2          0.3371   -4.4075   -0.3431 N.2       1 <0>         0.0000
      6 N3          2.4384   -0.0882   -0.7980 N.3       1 <0>         0.0000
      7 N4          1.9397   -0.2095    0.5383 N.3       1 <0>         0.0000
      8 S1          1.3750   -3.2441    0.4249 S.3       1 <0>         0.0000
      9 H1         -1.6399   -1.9368   -0.9578 H         1 <0>         0.0000
     10 H2         -0.0831    0.1211   -0.1137 H         1 <0>         0.0000
     11 H3          0.1522   -0.4247    1.5562 H         1 <0>         0.0000
     12 H4          2.3619    0.8691   -1.1468 H         1 <0>         0.0000
     13 H5          3.4203   -0.3525   -0.7925 H         1 <0>         0.0000
     14 H6          2.0816    0.6438    1.0793 H         1 <0>         0.0000
@<TRIPOS>BOND
     1    1    2 2
     2    1    4 1
     3    1    9 1
     4    2    3 1
     5    2    8 1
     6    3    7 1
     7    3   10 1
     8    3   11 1
     9    4    5 2
    10    5    8 1
    11    6    7 1
    12    6   12 1
    13    6   13 1
    14    7   14 1
