@<TRIPOS>MOLECULE
*****
   27    28     0     0     0
SMALL
NO_CHARGES

@<TRIPOS>ATOM
      1 C1          0.1207   -1.5627   -3.1308 C.2       1 <0>         0.0000
      2 C2         -0.7923   -1.4828   -6.2889 C.3       1 <0>         0.0000
      3 C3         -0.5922    0.0098   -6.4483 C.3       1 <0>         0.0000
      4 C4         -0.3157   -1.8242   -0.0746 C.3       1 <0>         0.0000
      5 C5         -1.4639    0.0517   -1.0422 C.3       1 <0>         0.0000
      6 C6         -0.9555   -0.5690   -5.1014 C.3       1 <0>         0.0000
      7 C7         -1.7322   -1.3437   -0.4475 C.3       1 <0>         0.0000
      8 C8          1.1613   -1.3301   -2.0298 C.3       1 <0>         0.0000
      9 N1          0.6460   -0.9217   -0.7168 N.3       1 <0>         0.0000
     10 N2          0.0575   -0.5787   -4.0819 N.am      1 <0>         0.0000
     11 O1         -0.6077   -2.5560   -3.1435 O.2       1 <0>         0.0000
     12 O2         -0.0584    0.3344   -0.8429 O.3       1 <0>         0.0000
     13 O3         -2.5145   -1.3190    0.7524 O.3       1 <0>         0.0000
     14 H1         -1.6892   -1.9376   -6.6967 H         1 <0>         0.0000
     15 H2          0.0889   -2.1151   -6.2973 H         1 <0>         0.0000
     16 H3          0.4248    0.3684   -6.5795 H         1 <0>         0.0000
     17 H4         -1.3493    0.5872   -6.9699 H         1 <0>         0.0000
     18 H5         -0.2141   -1.7290    1.0103 H         1 <0>         0.0000
     19 H6         -0.1272   -2.8551   -0.3737 H         1 <0>         0.0000
     20 H7         -1.7099    0.0931   -2.1099 H         1 <0>         0.0000
     21 H8         -2.0192    0.8250   -0.5055 H         1 <0>         0.0000
     22 H9         -1.9703   -0.4110   -4.7395 H         1 <0>         0.0000
     23 H10        -2.1911   -2.0009   -1.1909 H         1 <0>         0.0000
     24 H11         1.6946   -2.2719   -1.8755 H         1 <0>         0.0000
     25 H12         1.8932   -0.5741   -2.3287 H         1 <0>         0.0000
     26 H13         0.5395    0.2898   -3.8835 H         1 <0>         0.0000
     27 H14        -3.4497   -1.2611    0.5045 H         1 <0>         0.0000
@<TRIPOS>BOND
     1    1    8 1
     2    1   10 am
     3    1   11 2
     4    2    3 1
     5    2    6 1
     6    2   14 1
     7    2   15 1
     8    3    6 1
     9    3   16 1
    10    3   17 1
    11    4    7 1
    12    4    9 1
    13    4   18 1
    14    4   19 1
    15    5    7 1
    16    5   12 1
    17    5   20 1
    18    5   21 1
    19    6   10 1
    20    6   22 1
    21    7   13 1
    22    7   23 1
    23    8    9 1
    24    8   24 1
    25    8   25 1
    26    9   12 1
    27   10   26 1
    28   13   27 1
