@<TRIPOS>MOLECULE
*****
   28    29     0     0     0
SMALL
NO_CHARGES

@<TRIPOS>ATOM
      1 C1          2.4290   -0.6046    0.2320 C.2       1 <0>         0.0000
      2 C2          4.7540   -3.4389   -0.2586 C.3       1 <0>         0.0000
      3 C3          4.9142   -2.1929   -1.0983 C.3       1 <0>         0.0000
      4 C4         -0.2224    0.7738   -0.1267 C.3       1 <0>         0.0000
      5 C5         -1.3955   -1.2096    0.3741 C.3       1 <0>         0.0000
      6 C6          3.5459   -2.6075   -0.6164 C.3       1 <0>         0.0000
      7 C7         -0.8408   -0.4493   -0.8207 C.3       1 <0>         0.0000
      8 C8          1.7429    0.0506    1.4400 C.3       1 <0>         0.0000
      9 N1          2.9189   -1.8407    0.4377 N.am      1 <0>         0.0000
     10 N2          0.2566    0.2112    1.2165 N.4       1 <0>         0.0000
     11 O1          2.5096    0.0341   -0.8203 O.2       1 <0>         0.0000
     12 O2         -0.3623   -1.0730    1.4003 O.3       1 <0>         0.0000
     13 O3          0.0880   -1.2966   -1.4570 O.3       1 <0>         0.0000
     14 H1          4.8462   -4.4098   -0.7337 H         1 <0>         0.0000
     15 H2          5.1077   -3.3988    0.7677 H         1 <0>         0.0000
     16 H3          5.3619   -1.3225   -0.6306 H         1 <0>         0.0000
     17 H4          5.1155   -2.2962   -2.1590 H         1 <0>         0.0000
     18 H5          0.6286    1.2104   -0.6452 H         1 <0>         0.0000
     19 H6         -0.9811    1.5252    0.0966 H         1 <0>         0.0000
     20 H7         -2.3381   -0.7969    0.7454 H         1 <0>         0.0000
     21 H8         -1.4777   -2.2800    0.1902 H         1 <0>         0.0000
     22 H9          2.8415   -2.9999   -1.3451 H         1 <0>         0.0000
     23 H10        -1.6389   -0.1204   -1.4979 H         1 <0>         0.0000
     24 H11         2.1439    1.0595    1.5622 H         1 <0>         0.0000
     25 H12         1.8358   -0.5002    2.3771 H         1 <0>         0.0000
     26 H13         2.6939   -2.3195    1.3026 H         1 <0>         0.0000
     27 H14        -0.1033    0.8002    1.9770 H         1 <0>         0.0000
     28 H15         0.7517   -0.7803   -1.9479 H         1 <0>         0.0000
@<TRIPOS>BOND
     1    1    8 1
     2    1    9 am
     3    1   11 2
     4    2    3 1
     5    2    6 1
     6    2   14 1
     7    2   15 1
     8    3    6 1
     9    3   16 1
    10    3   17 1
    11    4    7 1
    12    4   10 1
    13    4   18 1
    14    4   19 1
    15    5    7 1
    16    5   12 1
    17    5   20 1
    18    5   21 1
    19    6    9 1
    20    6   22 1
    21    7   13 1
    22    7   23 1
    23    8   10 1
    24    8   24 1
    25    8   25 1
    26    9   26 1
    27   10   12 1
    28   10   27 1
    29   13   28 1
