@<TRIPOS>MOLECULE
*****
   11    10     0     0     0
SMALL
NO_CHARGES

@<TRIPOS>ATOM
      1 C1         -0.5932    0.4644    0.4502 C.3       1 <0>         0.0000
      2 N1         -0.9314   -0.8818    0.9199 N.3       1 <0>         0.0000
      3 O1          1.0184    1.5952   -1.5989 O.2       1 <0>         0.0000
      4 O2         -0.3289   -0.6460   -1.9627 O.3       1 <0>         0.0000
      5 P1          0.5442    0.3300   -0.9700 P.3       1 <0>         0.0000
      6 H1         -1.4372    1.1009    0.1413 H         1 <0>         0.0000
      7 H2         -0.0445    0.9985    1.2330 H         1 <0>         0.0000
      8 H3         -1.5387   -1.3457    0.2476 H         1 <0>         0.0000
      9 H4         -1.4291   -0.8351    1.8058 H         1 <0>         0.0000
     10 H5         -0.1828   -0.4081   -2.8948 H         1 <0>         0.0000
     11 H6          1.5569   -0.5388   -0.5082 H         1 <0>         0.0000
@<TRIPOS>BOND
     1    1    2 1
     2    1    5 1
     3    1    6 1
     4    1    7 1
     5    2    8 1
     6    2    9 1
     7    3    5 2
     8    4    5 1
     9    4   10 1
    10    5   11 1
