@<TRIPOS>MOLECULE
*****
   11    10     0     0     0
SMALL
NO_CHARGES

@<TRIPOS>ATOM
      1 C1         -0.6436    0.4830    0.2082 C.3       1 <0>         0.0000
      2 N1         -0.6371   -0.7488    1.0223 N.3       1 <0>         0.0000
      3 O1          0.2251   -0.6564   -2.1910 O.2       1 <0>         0.0000
      4 O2          1.8977   -0.2457   -0.1361 O.3       1 <0>         0.0000
      5 P1          0.6568    0.2287   -1.0741 P.3       1 <0>         0.0000
      6 H1         -1.6032    0.7159   -0.2712 H         1 <0>         0.0000
      7 H2         -0.3500    1.3278    0.8394 H         1 <0>         0.0000
      8 H3         -1.1059   -1.5003    0.5192 H         1 <0>         0.0000
      9 H4         -1.1403   -0.6079    1.8951 H         1 <0>         0.0000
     10 H5          1.5351   -0.8177    0.5766 H         1 <0>         0.0000
     11 H6          1.1299    1.5001   -1.4544 H         1 <0>         0.0000
@<TRIPOS>BOND
     1    1    2 1
     2    1    5 1
     3    1    6 1
     4    1    7 1
     5    2    8 1
     6    2    9 1
     7    3    5 2
     8    4    5 1
     9    4   10 1
    10    5   11 1
