@<TRIPOS>MOLECULE
*****
   21    21     0     0     0
SMALL
NO_CHARGES

@<TRIPOS>ATOM
      1 C1         -1.4636    4.0936    0.4955 C.2       1 <0>         0.0000
      2 C2         -1.6938    4.0181   -0.8540 C.2       1 <0>         0.0000
      3 C3         -1.0828    2.8384    1.0754 C.2       1 <0>         0.0000
      4 C4         -1.0420    1.8306    0.1359 C.2       1 <0>         0.0000
      5 C5          1.6852   -0.0541    1.2866 C.2       1 <0>         0.0000
      6 C6          0.9027    0.3111    0.2662 C.2       1 <0>         0.0000
      7 C7         -0.7265    2.6606    2.5296 C.3       1 <0>         0.0000
      8 C8         -0.6060    0.4007    0.3402 C.3       1 <0>         0.0000
      9 N1         -1.1886   -0.4526   -0.7089 N.3       1 <0>         0.0000
     10 S1         -1.4532    2.4123   -1.4571 S.3       1 <0>         0.0000
     11 H1         -1.5645    5.0109    1.0683 H         1 <0>         0.0000
     12 H2         -2.0062    4.8097   -1.5236 H         1 <0>         0.0000
     13 H3          2.7676   -0.0862    1.1906 H         1 <0>         0.0000
     14 H4          1.2680   -0.3284    2.2543 H         1 <0>         0.0000
     15 H5          1.3326    0.5860   -0.6967 H         1 <0>         0.0000
     16 H6         -1.2175    1.7833    2.9648 H         1 <0>         0.0000
     17 H7          0.3535    2.5237    2.6591 H         1 <0>         0.0000
     18 H8         -1.0276    3.5347    3.1139 H         1 <0>         0.0000
     19 H9         -0.9092    0.1026    1.3570 H         1 <0>         0.0000
     20 H10        -2.2042   -0.4618   -0.6229 H         1 <0>         0.0000
     21 H11        -0.8607   -1.4095   -0.5899 H         1 <0>         0.0000
@<TRIPOS>BOND
     1    1    2 2
     2    1    3 1
     3    1   11 1
     4    2   10 1
     5    2   12 1
     6    3    4 2
     7    3    7 1
     8    4    8 1
     9    4   10 1
    10    5    6 2
    11    5   13 1
    12    5   14 1
    13    6    8 1
    14    6   15 1
    15    7   16 1
    16    7   17 1
    17    7   18 1
    18    8    9 1
    19    8   19 1
    20    9   20 1
    21    9   21 1
