@<TRIPOS>MOLECULE
*****
   24    24     0     0     0
SMALL
NO_CHARGES

@<TRIPOS>ATOM
      1 C1          2.2217   -0.7869    0.0724 C.ar      1 <0>         0.0000
      2 C2          1.6556   -1.2194    2.7510 C.ar      1 <0>         0.0000
      3 C3          0.9528   -0.4413    0.5683 C.ar      1 <0>         0.0000
      4 C4          2.9135   -1.5771    2.2725 C.ar      1 <0>         0.0000
      5 C5          0.6719   -0.6559    1.9257 C.ar      1 <0>         0.0000
      6 C6          3.1881   -1.3461    0.9044 C.ar      1 <0>         0.0000
      7 C7         -0.0182    0.1300   -0.4449 C.2       1 <0>         0.0000
      8 C8          3.9666   -2.1860    3.1600 C.3       1 <0>         0.0000
      9 C9          4.7734   -1.5035   -0.8823 C.3       1 <0>         0.0000
     10 N1         -0.6325   -0.2947    2.4596 N.pl3     1 <0>         0.0000
     11 O1          0.3167    0.3364   -1.5977 O.2       1 <0>         0.0000
     12 O2         -1.2664    0.3875   -0.0229 O.3       1 <0>         0.0000
     13 O3          4.4395   -1.7107    0.4902 O.3       1 <0>         0.0000
     14 H1          2.4010   -0.6020   -0.9793 H         1 <0>         0.0000
     15 H2          1.4278   -1.3801    3.8032 H         1 <0>         0.0000
     16 H3          4.2694   -3.1704    2.7878 H         1 <0>         0.0000
     17 H4          4.8699   -1.5672    3.1760 H         1 <0>         0.0000
     18 H5          3.6011   -2.2971    4.1840 H         1 <0>         0.0000
     19 H6          5.7994   -1.8559   -0.9944 H         1 <0>         0.0000
     20 H7          4.7193   -0.4414   -1.1478 H         1 <0>         0.0000
     21 H8          4.1139   -2.0789   -1.5422 H         1 <0>         0.0000
     22 H9         -0.5580    0.5104    3.0812 H         1 <0>         0.0000
     23 H10        -1.0254   -1.0602    3.0051 H         1 <0>         0.0000
     24 H11        -1.3222    0.1557    0.9497 H         1 <0>         0.0000
@<TRIPOS>BOND
     1    1    3 ar
     2    1    6 ar
     3    1   14 1
     4    2    4 ar
     5    2    5 ar
     6    2   15 1
     7    3    5 ar
     8    3    7 1
     9    4    6 ar
    10    4    8 1
    11    5   10 1
    12    6   13 1
    13    7   11 2
    14    7   12 1
    15    8   16 1
    16    8   17 1
    17    8   18 1
    18    9   13 1
    19    9   19 1
    20    9   20 1
    21    9   21 1
    22   10   22 1
    23   10   23 1
    24   12   24 1
