@<TRIPOS>MOLECULE
*****
   31    33     0     0     0
SMALL
NO_CHARGES

@<TRIPOS>ATOM
      1 C1         -8.2529    2.7525    0.5260 C.1       1 <0>         0.0000
      2 C2         -0.7694    0.0153    0.7659 C.ar      1 <0>         0.0000
      3 C3          0.2069    0.2946    1.7176 C.ar      1 <0>         0.0000
      4 C4         -1.4901    0.7168    3.4412 C.ar      1 <0>         0.0000
      5 C5         -4.3649    0.0719    1.2647 C.2       1 <0>         0.0000
      6 C6         -8.6492    2.5052    1.8625 C.2       1 <0>         0.0000
      7 C7         -2.4862    0.4306    2.4904 C.ar      1 <0>         0.0000
      8 C8         -3.9363    0.4206    2.5434 C.2       1 <0>         0.0000
      9 C9         -2.1078    0.0854    1.1668 C.ar      1 <0>         0.0000
     10 C10        -0.1651    0.6394    3.0336 C.ar      1 <0>         0.0000
     11 C11        -7.8784    1.8773    2.8197 C.2       1 <0>         0.0000
     12 C12        -9.8200    2.4085    3.6537 C.2       1 <0>         0.0000
     13 C13        -4.7093    0.6679    3.7520 C.2       1 <0>         0.0000
     14 C14       -10.8227    2.4831    4.7470 C.3       1 <0>         0.0000
     15 N1         -7.8359    2.9039   -0.5552 N.1       1 <0>         0.0000
     16 N2         -9.8885    2.8293    2.4350 N.2       1 <0>         0.0000
     17 N3         -5.9329    1.0621    3.8947 N.2       1 <0>         0.0000
     18 N4         -3.2751   -0.1340    0.4522 N.pl3     1 <0>         0.0000
     19 N5         -6.6394    1.3039    2.7363 N.pl3     1 <0>         0.0000
     20 O1         -8.5972    1.8022    3.9608 O.3       1 <0>         0.0000
     21 Br1         1.2247    1.0274    4.3001 Br        1 <0>         0.0000
     22 H1         -0.4896   -0.2459   -0.2511 H         1 <0>         0.0000
     23 H2          1.2570    0.2513    1.4496 H         1 <0>         0.0000
     24 H3         -1.7402    0.9983    4.4587 H         1 <0>         0.0000
     25 H4         -5.3607   -0.1150    0.8873 H         1 <0>         0.0000
     26 H5         -4.1920    0.5229    4.6984 H         1 <0>         0.0000
     27 H6        -11.0819    1.4831    5.1093 H         1 <0>         0.0000
     28 H7        -10.4342    3.0570    5.5946 H         1 <0>         0.0000
     29 H8        -11.7200    2.9708    4.3648 H         1 <0>         0.0000
     30 H9         -3.3269   -0.3806   -0.5268 H         1 <0>         0.0000
     31 H10        -6.1141    1.5767    1.9028 H         1 <0>         0.0000
@<TRIPOS>BOND
     1    1    6 1
     2    1   15 3
     3    2    3 ar
     4    2    9 ar
     5    2   22 1
     6    3   10 ar
     7    3   23 1
     8    4    7 ar
     9    4   10 ar
    10    4   24 1
    11    5    8 2
    12    5   18 1
    13    5   25 1
    14    6   11 2
    15    6   16 1
    16    7    8 1
    17    7    9 ar
    18    8   13 1
    19    9   18 1
    20   10   21 1
    21   11   19 1
    22   11   20 1
    23   12   14 1
    24   12   16 2
    25   12   20 1
    26   13   17 2
    27   13   26 1
    28   14   27 1
    29   14   28 1
    30   14   29 1
    31   17   19 1
    32   18   30 1
    33   19   31 1
