@<TRIPOS>MOLECULE
*****
   28    29     0     0     0
SMALL
NO_CHARGES

@<TRIPOS>ATOM
      1 C1          2.0717   -4.6909   -4.5488 C.1       1 <0>         0.0000
      2 C2          2.2960   -2.9864    1.7996 C.ar      1 <0>         0.0000
      3 C3          1.1596   -2.9508    2.6119 C.ar      1 <0>         0.0000
      4 C4          1.0757   -1.8902    0.0219 C.ar      1 <0>         0.0000
      5 C5          2.5661   -3.7360   -3.6289 C.2       1 <0>         0.0000
      6 C6          2.2643   -2.4529    0.5061 C.ar      1 <0>         0.0000
      7 C7         -0.0114   -2.3878    2.1167 C.ar      1 <0>         0.0000
      8 C8         -0.0648   -1.8594    0.8237 C.ar      1 <0>         0.0000
      9 C9          2.9727   -2.3819   -3.8616 C.2       1 <0>         0.0000
     10 C10         2.7272   -3.9343   -2.2511 C.2       1 <0>         0.0000
     11 C11         2.9947   -1.6540   -5.1677 C.3       1 <0>         0.0000
     12 C12         3.5058   -2.4689   -0.3690 C.3       1 <0>         0.0000
     13 N1          1.6564   -5.4956   -5.2875 N.1       1 <0>         0.0000
     14 N2          3.3448   -1.8001   -2.7296 N.2       1 <0>         0.0000
     15 N3          3.2100   -2.7700   -1.7566 N.pl3     1 <0>         0.0000
     16 N4          2.5441   -5.0621   -1.4682 N.pl3     1 <0>         0.0000
     17 F1         -1.1073   -2.3646    2.9002 F         1 <0>         0.0000
     18 Br1        -1.6893   -1.1122    0.1694 Br        1 <0>         0.0000
     19 H1          3.2102   -3.4348    2.1807 H         1 <0>         0.0000
     20 H2          1.1628   -3.3590    3.6180 H         1 <0>         0.0000
     21 H3          1.0386   -1.4803   -0.9829 H         1 <0>         0.0000
     22 H4          2.0017   -1.6470   -5.6289 H         1 <0>         0.0000
     23 H5          3.3210   -0.6237   -5.0129 H         1 <0>         0.0000
     24 H6          3.6781   -2.1392   -5.8723 H         1 <0>         0.0000
     25 H7          3.9918   -1.4908   -0.3763 H         1 <0>         0.0000
     26 H8          4.2247   -3.2016    0.0129 H         1 <0>         0.0000
     27 H9          2.0901   -5.8170   -1.9736 H         1 <0>         0.0000
     28 H10         2.0783   -4.8834   -0.5824 H         1 <0>         0.0000
@<TRIPOS>BOND
     1    1    5 1
     2    1   13 3
     3    2    3 ar
     4    2    6 ar
     5    2   19 1
     6    3    7 ar
     7    3   20 1
     8    4    6 ar
     9    4    8 ar
    10    4   21 1
    11    5    9 1
    12    5   10 2
    13    6   12 1
    14    7    8 ar
    15    7   17 1
    16    8   18 1
    17    9   11 1
    18    9   14 2
    19   10   15 1
    20   10   16 1
    21   11   22 1
    22   11   23 1
    23   11   24 1
    24   12   15 1
    25   12   25 1
    26   12   26 1
    27   14   15 1
    28   16   27 1
    29   16   28 1
