@<TRIPOS>MOLECULE
*****
   41    42     0     0     0
SMALL
NO_CHARGES

@<TRIPOS>ATOM
      1 C1          0.1389   -1.0869    1.0184 C.2       1 <0>         0.0000
      2 C2          0.0046    0.8994   -2.9832 C.3       1 <0>         0.0000
      3 C3          0.3035    2.3105   -2.4073 C.3       1 <0>         0.0000
      4 C4          0.0424   -0.0681   -1.7808 C.3       1 <0>         0.0000
      5 C5          0.4864    2.1122   -0.8895 C.3       1 <0>         0.0000
      6 C6         -1.5804    1.4927    1.9597 C.3       1 <0>         0.0000
      7 C7         -0.0788    1.2110    1.8652 C.3       1 <0>         0.0000
      8 C8         -1.7947    1.0649   -0.4256 C.3       1 <0>         0.0000
      9 C9         -0.2787    0.8072   -0.5520 C.3       1 <0>         0.0000
     10 C10         1.5479   -3.5058    2.1829 C.3       1 <0>         0.0000
     11 C11         0.7134   -2.5036    4.3347 C.3       1 <0>         0.0000
     12 C12        -0.9484   -3.3822    2.6629 C.3       1 <0>         0.0000
     13 C13         0.4177   -2.7137    2.8472 C.3       1 <0>         0.0000
     14 N1         -2.0600    2.0059    0.6715 N.3       1 <0>         0.0000
     15 N2          0.1823    0.2686    0.7600 N.am      1 <0>         0.0000
     16 O1         -0.0580   -1.9663    0.1890 O.2       1 <0>         0.0000
     17 O2          0.3870   -1.3346    2.3366 O.3       1 <0>         0.0000
     18 H1         -0.9780    0.8788   -3.4656 H         1 <0>         0.0000
     19 H2          0.7300    0.6018   -3.7460 H         1 <0>         0.0000
     20 H3          1.1935    2.7615   -2.8556 H         1 <0>         0.0000
     21 H4         -0.5269    2.9952   -2.6063 H         1 <0>         0.0000
     22 H5         -0.6378   -0.9115   -1.8889 H         1 <0>         0.0000
     23 H6          1.0452   -0.4852   -1.6551 H         1 <0>         0.0000
     24 H7          1.5423    1.9533   -0.6433 H         1 <0>         0.0000
     25 H8          0.1261    2.9704   -0.3211 H         1 <0>         0.0000
     26 H9         -2.0883    0.5583    2.2632 H         1 <0>         0.0000
     27 H10        -1.7679    2.2458    2.7333 H         1 <0>         0.0000
     28 H11         0.4629    2.1377    1.6672 H         1 <0>         0.0000
     29 H12         0.2950    0.7916    2.7949 H         1 <0>         0.0000
     30 H13        -2.1825    1.5003   -1.3516 H         1 <0>         0.0000
     31 H14        -2.2865    0.0869   -0.2803 H         1 <0>         0.0000
     32 H15         1.3451   -3.6723    1.1251 H         1 <0>         0.0000
     33 H16         2.4957   -2.9670    2.2826 H         1 <0>         0.0000
     34 H17         1.6536   -4.4756    2.6807 H         1 <0>         0.0000
     35 H18        -0.0730   -1.9036    4.8028 H         1 <0>         0.0000
     36 H19         1.6686   -1.9868    4.4677 H         1 <0>         0.0000
     37 H20         0.7658   -3.4683    4.8481 H         1 <0>         0.0000
     38 H21        -1.7364   -2.7572    3.0962 H         1 <0>         0.0000
     39 H22        -1.1684   -3.5498    1.6086 H         1 <0>         0.0000
     40 H23        -0.9549   -4.3458    3.1832 H         1 <0>         0.0000
     41 H24        -3.0583    2.1923    0.7254 H         1 <0>         0.0000
@<TRIPOS>BOND
     1    1   15 am
     2    1   16 2
     3    1   17 1
     4    2    3 1
     5    2    4 1
     6    2   18 1
     7    2   19 1
     8    3    5 1
     9    3   20 1
    10    3   21 1
    11    4    9 1
    12    4   22 1
    13    4   23 1
    14    5    9 1
    15    5   24 1
    16    5   25 1
    17    6    7 1
    18    6   14 1
    19    6   26 1
    20    6   27 1
    21    7   15 1
    22    7   28 1
    23    7   29 1
    24    8    9 1
    25    8   14 1
    26    8   30 1
    27    8   31 1
    28    9   15 1
    29   10   13 1
    30   10   32 1
    31   10   33 1
    32   10   34 1
    33   11   13 1
    34   11   35 1
    35   11   36 1
    36   11   37 1
    37   12   13 1
    38   12   38 1
    39   12   39 1
    40   12   40 1
    41   13   17 1
    42   14   41 1
