@<TRIPOS>MOLECULE
*****
   18    18     0     0     0
SMALL
NO_CHARGES

@<TRIPOS>ATOM
      1 C1          2.1838   -1.0713    0.1685 C.ar      1 <0>         0.0000
      2 C2          1.1104   -0.2954    0.6088 C.ar      1 <0>         0.0000
      3 C3          2.4684   -1.9600    2.4053 C.ar      1 <0>         0.0000
      4 C4          1.3981   -1.1812    2.8307 C.ar      1 <0>         0.0000
      5 C5          2.8751   -1.8967    1.0663 C.ar      1 <0>         0.0000
      6 C6          0.7115   -0.3424    1.9473 C.ar      1 <0>         0.0000
      7 C7          5.7070   -1.8637    0.7528 C.2       1 <0>         0.0000
      8 C8          5.5244   -0.4826    1.3421 C.3       1 <0>         0.0000
      9 O1          6.7770   -2.3326    0.4341 O.2       1 <0>         0.0000
     10 F1          1.0189   -1.2420    4.1220 F         1 <0>         0.0000
     11 S1          4.2356   -2.9121    0.4970 S.3       1 <0>         0.0000
     12 Cl1        -0.6239    0.6181    2.5158 Cl        1 <0>         0.0000
     13 H1          2.4865   -1.0341   -0.8732 H         1 <0>         0.0000
     14 H2          0.5746    0.3479   -0.0820 H         1 <0>         0.0000
     15 H3          2.9721   -2.6025    3.1207 H         1 <0>         0.0000
     16 H4          4.8521    0.1186    0.7243 H         1 <0>         0.0000
     17 H5          6.5039   -0.0054    1.4017 H         1 <0>         0.0000
     18 H6          5.0801   -0.5443    2.3393 H         1 <0>         0.0000
@<TRIPOS>BOND
     1    1    2 ar
     2    1    5 ar
     3    1   13 1
     4    2    6 ar
     5    2   14 1
     6    3    4 ar
     7    3    5 ar
     8    3   15 1
     9    4    6 ar
    10    4   10 1
    11    5   11 1
    12    6   12 1
    13    7    8 1
    14    7    9 2
    15    7   11 1
    16    8   16 1
    17    8   17 1
    18    8   18 1
