@<TRIPOS>MOLECULE
*****
   40    44     0     0     0
SMALL
NO_CHARGES

@<TRIPOS>ATOM
      1 C1          1.5511   -0.6970    0.9829 C.ar      1 <0>         0.0000
      2 C2          0.1552   -0.8441    1.1352 C.ar      1 <0>         0.0000
      3 C3          2.4029   -1.7970    1.0583 C.ar      1 <0>         0.0000
      4 C4         -0.4183   -2.0946    1.3680 C.ar      1 <0>         0.0000
      5 C5          5.9938   -8.4961    4.0577 C.2       1 <0>         0.0000
      6 C6          1.8527   -3.0708    1.2897 C.ar      1 <0>         0.0000
      7 C7          2.4030   -4.3942    1.4295 C.2       1 <0>         0.0000
      8 C8          0.4396   -3.1964    1.4436 C.ar      1 <0>         0.0000
      9 C9          4.8394   -7.8848    3.4873 C.2       1 <0>         0.0000
     10 C10         1.3553   -5.2554    1.6506 C.2       1 <0>         0.0000
     11 C11         5.5122   -9.6233    4.6611 C.2       1 <0>         0.0000
     12 C12         4.8611   -6.5433    2.8066 C.2       1 <0>         0.0000
     13 C13         3.8351   -4.8489    1.3914 C.3       1 <0>         0.0000
     14 C14         1.4893   -6.7337    1.8338 C.3       1 <0>         0.0000
     15 C15         5.4249  -11.3343    6.6082 C.3       1 <0>         0.0000
     16 C16         5.6211  -12.1247    5.3440 C.3       1 <0>         0.0000
     17 C17         2.8885   -7.1330    1.3354 C.3       1 <0>         0.0000
     18 C18         6.1512  -10.6985    5.4289 C.3       1 <0>         0.0000
     19 N1          3.7430   -8.5779    3.7334 N.2       1 <0>         0.0000
     20 N2          0.1658   -4.5392    1.6644 N.pl3     1 <0>         0.0000
     21 N3          3.9131   -6.2356    1.8763 N.am      1 <0>         0.0000
     22 O1          5.7564   -5.7602    3.1412 O.2       1 <0>         0.0000
     23 O2          4.1658   -9.6878    4.4789 O.3       1 <0>         0.0000
     24 H1          1.9642    0.2925    0.8056 H         1 <0>         0.0000
     25 H2         -0.4844    0.0322    1.0719 H         1 <0>         0.0000
     26 H3          3.4766   -1.6708    0.9420 H         1 <0>         0.0000
     27 H4         -1.4938   -2.2030    1.4874 H         1 <0>         0.0000
     28 H5          7.0059   -8.1212    4.0279 H         1 <0>         0.0000
     29 H6          4.2494   -4.7936    0.3736 H         1 <0>         0.0000
     30 H7          4.4726   -4.2382    2.0319 H         1 <0>         0.0000
     31 H8          1.3809   -7.0247    2.8856 H         1 <0>         0.0000
     32 H9          0.7304   -7.2808    1.2601 H         1 <0>         0.0000
     33 H10         4.4280  -10.9647    6.8246 H         1 <0>         0.0000
     34 H11         6.0252  -11.5834    7.4777 H         1 <0>         0.0000
     35 H12         6.3571  -12.9227    5.3367 H         1 <0>         0.0000
     36 H13         4.7556  -12.2878    4.7102 H         1 <0>         0.0000
     37 H14         3.1128   -8.1613    1.6017 H         1 <0>         0.0000
     38 H15         2.9215   -7.0425    0.2424 H         1 <0>         0.0000
     39 H16         7.2255  -10.5778    5.5215 H         1 <0>         0.0000
     40 H17        -0.7523   -4.9359    1.8043 H         1 <0>         0.0000
@<TRIPOS>BOND
     1    1    2 ar
     2    1    3 ar
     3    1   24 1
     4    2    4 ar
     5    2   25 1
     6    3    6 ar
     7    3   26 1
     8    4    8 ar
     9    4   27 1
    10    5    9 1
    11    5   11 2
    12    5   28 1
    13    6    7 1
    14    6    8 ar
    15    7   10 2
    16    7   13 1
    17    8   20 1
    18    9   12 1
    19    9   19 2
    20   10   14 1
    21   10   20 1
    22   11   18 1
    23   11   23 1
    24   12   21 am
    25   12   22 2
    26   13   21 1
    27   13   29 1
    28   13   30 1
    29   14   17 1
    30   14   31 1
    31   14   32 1
    32   15   16 1
    33   15   18 1
    34   15   33 1
    35   15   34 1
    36   16   18 1
    37   16   35 1
    38   16   36 1
    39   17   21 1
    40   17   37 1
    41   17   38 1
    42   18   39 1
    43   19   23 1
    44   20   40 1
