@<TRIPOS>MOLECULE
*****
   31    33     0     0     0
SMALL
NO_CHARGES

@<TRIPOS>ATOM
      1 C1         -6.6912    4.0781    0.0035 C.1       1 <0>         0.0000
      2 C2         -2.0019   -2.3069    1.1659 C.ar      1 <0>         0.0000
      3 C3         -0.6256   -2.3235    1.3720 C.ar      1 <0>         0.0000
      4 C4         -0.6654   -0.0559    2.3130 C.ar      1 <0>         0.0000
      5 C5         -4.2793    0.4122    1.9419 C.2       1 <0>         0.0000
      6 C6         -6.2355    4.9005    1.0621 C.2       1 <0>         0.0000
      7 C7         -2.0576   -0.0292    2.1160 C.ar      1 <0>         0.0000
      8 C8         -3.0771    0.9725    2.3674 C.2       1 <0>         0.0000
      9 C9         -2.7024   -1.1564    1.5436 C.ar      1 <0>         0.0000
     10 C10         0.0191   -1.2045    1.9388 C.ar      1 <0>         0.0000
     11 C11        -5.2932    4.5401    2.0037 C.2       1 <0>         0.0000
     12 C12        -6.0112    6.5589    2.3991 C.2       1 <0>         0.0000
     13 C13        -2.8179    2.2526    3.0098 C.2       1 <0>         0.0000
     14 C14        -6.0376    7.8365    3.1565 C.3       1 <0>         0.0000
     15 N1         -7.0072    3.3231   -0.8308 N.1       1 <0>         0.0000
     16 N2         -6.6740    6.2019    1.3503 N.2       1 <0>         0.0000
     17 N3         -3.4891    3.3576    2.9751 N.2       1 <0>         0.0000
     18 N4         -4.0530   -0.8555    1.4602 N.pl3     1 <0>         0.0000
     19 N5         -4.6335    3.3589    2.2063 N.pl3     1 <0>         0.0000
     20 O1         -5.1354    5.5713    2.8617 O.3       1 <0>         0.0000
     21 Br1         1.9214   -1.2793    2.1867 Br        1 <0>         0.0000
     22 H1         -2.5039   -3.1638    0.7250 H         1 <0>         0.0000
     23 H2         -0.0437   -3.1958    1.0945 H         1 <0>         0.0000
     24 H3         -0.1348    0.7915    2.7343 H         1 <0>         0.0000
     25 H4         -5.2902    0.7900    2.0093 H         1 <0>         0.0000
     26 H5         -1.9105    2.3211    3.6067 H         1 <0>         0.0000
     27 H6         -6.3157    7.6662    4.2016 H         1 <0>         0.0000
     28 H7         -5.0539    8.3171    3.1452 H         1 <0>         0.0000
     29 H8         -6.7671    8.5019    2.6940 H         1 <0>         0.0000
     30 H9         -4.7671   -1.4608    1.0786 H         1 <0>         0.0000
     31 H10        -4.6762    2.7204    1.4092 H         1 <0>         0.0000
@<TRIPOS>BOND
     1    1    6 1
     2    1   15 3
     3    2    3 ar
     4    2    9 ar
     5    2   22 1
     6    3   10 ar
     7    3   23 1
     8    4    7 ar
     9    4   10 ar
    10    4   24 1
    11    5    8 2
    12    5   18 1
    13    5   25 1
    14    6   11 2
    15    6   16 1
    16    7    8 1
    17    7    9 ar
    18    8   13 1
    19    9   18 1
    20   10   21 1
    21   11   19 1
    22   11   20 1
    23   12   14 1
    24   12   16 2
    25   12   20 1
    26   13   17 2
    27   13   26 1
    28   14   27 1
    29   14   28 1
    30   14   29 1
    31   17   19 1
    32   18   30 1
    33   19   31 1
