@<TRIPOS>MOLECULE
*****
   41    43     0     0     0
SMALL
NO_CHARGES

@<TRIPOS>ATOM
      1 C1         -7.0180    7.5839   -3.3375 C.ar      1 <0>         0.0000
      2 C2         -6.1111    6.5321   -3.2036 C.ar      1 <0>         0.0000
      3 C3         -1.5684   -0.1452   -1.1091 C.ar      1 <0>         0.0000
      4 C4         -0.3329   -0.6441   -0.7034 C.ar      1 <0>         0.0000
      5 C5         -0.5910    2.9109   -3.0040 C.2       1 <0>         0.0000
      6 C6          0.8023    1.2009   -1.8141 C.ar      1 <0>         0.0000
      7 C7         -4.4747    7.8351   -4.4229 C.ar      1 <0>         0.0000
      8 C8         -0.4451    1.7161   -2.2285 C.ar      1 <0>         0.0000
      9 C9         -1.8139    3.4202   -3.3722 C.2       1 <0>         0.0000
     10 C10        -6.6841    8.7676   -4.0063 C.ar      1 <0>         0.0000
     11 C11        -5.3873    8.8847   -4.5561 C.ar      1 <0>         0.0000
     12 C12        -4.8269    6.6552   -3.7504 C.ar      1 <0>         0.0000
     13 C13        -1.6126    1.0287   -1.8617 C.ar      1 <0>         0.0000
     14 C14         0.8424    0.0378   -1.0609 C.ar      1 <0>         0.0000
     15 C15        -3.0131    2.6451   -2.9963 C.2       1 <0>         0.0000
     16 C16        -1.8700    4.6562   -4.1918 C.2       1 <0>         0.0000
     17 C17        -7.6885    9.8890   -4.1340 C.3       1 <0>         0.0000
     18 C18        -4.9793   10.1416   -5.2895 C.3       1 <0>         0.0000
     19 C19        -0.6320    4.9678   -5.0157 C.3       1 <0>         0.0000
     20 N1         -2.7786    5.5883   -4.2580 N.2       1 <0>         0.0000
     21 N2         -3.9229    5.5954   -3.5751 N.pl3     1 <0>         0.0000
     22 O1         -4.1678    2.8988   -3.2997 O.2       1 <0>         0.0000
     23 O2         -2.8355    1.4977   -2.2464 O.3       1 <0>         0.0000
     24 Br1         2.5322   -0.6600   -0.4905 Br        1 <0>         0.0000
     25 H1         -8.0131    7.4765   -2.9114 H         1 <0>         0.0000
     26 H2         -6.3980    5.6211   -2.6832 H         1 <0>         0.0000
     27 H3         -2.4935   -0.6498   -0.8488 H         1 <0>         0.0000
     28 H4         -0.2778   -1.5533   -0.1143 H         1 <0>         0.0000
     29 H5          0.3161    3.4287   -3.2962 H         1 <0>         0.0000
     30 H6          1.7166    1.7188   -2.0864 H         1 <0>         0.0000
     31 H7         -3.4784    7.9176   -4.8431 H         1 <0>         0.0000
     32 H8         -7.3289   10.8124   -3.6637 H         1 <0>         0.0000
     33 H9         -7.8982   10.1297   -5.1833 H         1 <0>         0.0000
     34 H10        -8.6366    9.6225   -3.6589 H         1 <0>         0.0000
     35 H11        -5.6231   10.3254   -6.1578 H         1 <0>         0.0000
     36 H12        -5.0574   11.0253   -4.6451 H         1 <0>         0.0000
     37 H13        -3.9479   10.0756   -5.6450 H         1 <0>         0.0000
     38 H14        -0.2975    4.0997   -5.5946 H         1 <0>         0.0000
     39 H15        -0.8660    5.7812   -5.7030 H         1 <0>         0.0000
     40 H16         0.2106    5.2964   -4.3931 H         1 <0>         0.0000
     41 H17        -4.2997    4.7079   -3.2382 H         1 <0>         0.0000
@<TRIPOS>BOND
     1    1    2 ar
     2    1   10 ar
     3    1   25 1
     4    2   12 ar
     5    2   26 1
     6    3    4 ar
     7    3   13 ar
     8    3   27 1
     9    4   14 ar
    10    4   28 1
    11    5    8 1
    12    5    9 2
    13    5   29 1
    14    6    8 ar
    15    6   14 ar
    16    6   30 1
    17    7   11 ar
    18    7   12 ar
    19    7   31 1
    20    8   13 ar
    21    9   15 1
    22    9   16 1
    23   10   11 ar
    24   10   17 1
    25   11   18 1
    26   12   21 1
    27   13   23 1
    28   14   24 1
    29   15   22 2
    30   15   23 1
    31   16   19 1
    32   16   20 2
    33   17   32 1
    34   17   33 1
    35   17   34 1
    36   18   35 1
    37   18   36 1
    38   18   37 1
    39   19   38 1
    40   19   39 1
    41   19   40 1
    42   20   21 1
    43   21   41 1
