@<TRIPOS>MOLECULE
*****
   23    24     0     0     0
SMALL
NO_CHARGES

@<TRIPOS>ATOM
      1 C1         -4.1309   -4.2409   -4.5571 C.2       1 <0>         0.0000
      2 C2         -3.9514   -3.3636   -3.4541 C.2       1 <0>         0.0000
      3 C3         -3.5635   -5.4787   -4.3546 C.2       1 <0>         0.0000
      4 C4         -7.5638   -2.7245   -0.7905 C.2       1 <0>         0.0000
      5 C5         -3.2326   -3.9383   -2.4168 C.2       1 <0>         0.0000
      6 C6         -7.5261   -1.4212   -1.2011 C.2       1 <0>         0.0000
      7 C7         -5.3383   -1.7755   -1.0575 C.2       1 <0>         0.0000
      8 C8         -2.7558   -3.4041   -1.1515 C.2       1 <0>         0.0000
      9 C9         -8.7140   -0.5532   -1.4959 C.3       1 <0>         0.0000
     10 N1         -6.2542   -0.8928   -1.3551 N.2       1 <0>         0.0000
     11 N2         -3.0125   -2.2946   -0.5369 N.2       1 <0>         0.0000
     12 N3         -3.9789   -1.4516   -1.1158 N.pl3     1 <0>         0.0000
     13 S1         -2.7906   -5.5859   -2.8189 S.3       1 <0>         0.0000
     14 S2         -5.9489   -3.3479   -0.5638 S.3       1 <0>         0.0000
     15 H1         -4.6641   -3.9724   -5.4630 H         1 <0>         0.0000
     16 H2         -4.3264   -2.3494   -3.4211 H         1 <0>         0.0000
     17 H3         -3.5665   -6.3313   -5.0219 H         1 <0>         0.0000
     18 H4         -8.4261   -3.3564   -0.6239 H         1 <0>         0.0000
     19 H5         -2.0225   -4.0141   -0.6232 H         1 <0>         0.0000
     20 H6         -8.7214    0.3226   -0.8382 H         1 <0>         0.0000
     21 H7         -8.6754   -0.1867   -2.5272 H         1 <0>         0.0000
     22 H8         -9.6481   -1.1026   -1.3547 H         1 <0>         0.0000
     23 H9         -3.8426   -0.5055   -0.7708 H         1 <0>         0.0000
@<TRIPOS>BOND
     1    1    2 1
     2    1    3 2
     3    1   15 1
     4    2    5 2
     5    2   16 1
     6    3   13 1
     7    3   17 1
     8    4    6 2
     9    4   14 1
    10    4   18 1
    11    5    8 1
    12    5   13 1
    13    6    9 1
    14    6   10 1
    15    7   10 2
    16    7   12 1
    17    7   14 1
    18    8   11 2
    19    8   19 1
    20    9   20 1
    21    9   21 1
    22    9   22 1
    23   11   12 1
    24   12   23 1
