@<TRIPOS>MOLECULE
*****
   31    33     0     0     0
SMALL
NO_CHARGES

@<TRIPOS>ATOM
      1 C1         -4.0154    4.1591   -0.9655 C.1       1 <0>         0.0000
      2 C2         -5.7544   -3.2317    1.3777 C.ar      1 <0>         0.0000
      3 C3         -6.5129   -3.6120    2.4809 C.ar      1 <0>         0.0000
      4 C4         -5.9123   -1.5624    3.6924 C.ar      1 <0>         0.0000
      5 C5         -3.8223   -0.1787    1.0216 C.2       1 <0>         0.0000
      6 C6         -3.5918    4.7218    0.2626 C.2       1 <0>         0.0000
      7 C7         -5.1374   -1.1696    2.5864 C.ar      1 <0>         0.0000
      8 C8         -4.3333    0.0048    2.3042 C.2       1 <0>         0.0000
      9 C9         -5.0726   -2.0120    1.4460 C.ar      1 <0>         0.0000
     10 C10        -6.5807   -2.7769    3.6155 C.ar      1 <0>         0.0000
     11 C11        -3.4582    4.0330    1.4510 C.2       1 <0>         0.0000
     12 C12        -2.8907    6.1184    1.7275 C.2       1 <0>         0.0000
     13 C13        -4.1045    1.0838    3.2548 C.2       1 <0>         0.0000
     14 C14        -2.4253    7.2745    2.5357 C.3       1 <0>         0.0000
     15 N1         -4.3672    3.6002   -1.9298 N.1       1 <0>         0.0000
     16 N2         -3.2170    6.0563    0.4799 N.2       1 <0>         0.0000
     17 N3         -3.7790    2.3190    3.0519 N.2       1 <0>         0.0000
     18 N4         -4.2574   -1.3821    0.5186 N.pl3     1 <0>         0.0000
     19 N5         -3.6230    2.7060    1.7387 N.pl3     1 <0>         0.0000
     20 O1         -3.0140    4.8937    2.3925 O.3       1 <0>         0.0000
     21 Br1        -7.6541   -3.3469    5.1017 Br        1 <0>         0.0000
     22 H1         -5.7026   -3.8678    0.4982 H         1 <0>         0.0000
     23 H2         -7.0573   -4.5500    2.4705 H         1 <0>         0.0000
     24 H3         -5.9981   -0.9387    4.5761 H         1 <0>         0.0000
     25 H4         -3.1247    0.4217    0.4540 H         1 <0>         0.0000
     26 H5         -4.2436    0.8434    4.3070 H         1 <0>         0.0000
     27 H6         -3.1097    7.4697    3.3676 H         1 <0>         0.0000
     28 H7         -1.4322    7.0845    2.9554 H         1 <0>         0.0000
     29 H8         -2.3814    8.1543    1.8929 H         1 <0>         0.0000
     30 H9         -4.0355   -1.7334   -0.4029 H         1 <0>         0.0000
     31 H10        -4.1385    2.1899    1.0225 H         1 <0>         0.0000
@<TRIPOS>BOND
     1    1    6 1
     2    1   15 3
     3    2    3 ar
     4    2    9 ar
     5    2   22 1
     6    3   10 ar
     7    3   23 1
     8    4    7 ar
     9    4   10 ar
    10    4   24 1
    11    5    8 2
    12    5   18 1
    13    5   25 1
    14    6   11 2
    15    6   16 1
    16    7    8 1
    17    7    9 ar
    18    8   13 1
    19    9   18 1
    20   10   21 1
    21   11   19 1
    22   11   20 1
    23   12   14 1
    24   12   16 2
    25   12   20 1
    26   13   17 2
    27   13   26 1
    28   14   27 1
    29   14   28 1
    30   14   29 1
    31   17   19 1
    32   18   30 1
    33   19   31 1
