@<TRIPOS>MOLECULE
*****
   29    30     0     0     0
SMALL
NO_CHARGES

@<TRIPOS>ATOM
      1 C1         -0.5954   -2.3086    5.3514 C.1       1 <0>         0.0000
      2 C2         -4.4466    1.9510    1.8850 C.2       1 <0>         0.0000
      3 C3          0.3211   -2.9995    4.5194 C.2       1 <0>         0.0000
      4 C4         -2.6814    0.2647    1.7858 C.2       1 <0>         0.0000
      5 C5         -3.6847    0.0354    2.7196 C.2       1 <0>         0.0000
      6 C6          0.5459   -2.8564    3.1672 C.2       1 <0>         0.0000
      7 C7          1.9079   -4.3573    3.9915 C.2       1 <0>         0.0000
      8 C8         -1.4907   -0.5283    1.4933 C.2       1 <0>         0.0000
      9 C9         -3.8026   -1.1361    3.6450 C.3       1 <0>         0.0000
     10 C10         3.0046   -5.3558    3.9039 C.3       1 <0>         0.0000
     11 C11        -0.8221   -0.4366    0.1378 C.3       1 <0>         0.0000
     12 N1         -1.3366   -1.7423    6.0524 N.1       1 <0>         0.0000
     13 N2         -4.6687    1.0038    2.7514 N.2       1 <0>         0.0000
     14 N3          1.2124   -3.9751    5.0058 N.2       1 <0>         0.0000
     15 N4         -1.0590   -1.3089    2.4361 N.2       1 <0>         0.0000
     16 N5          0.0106   -2.1078    2.1624 N.pl3     1 <0>         0.0000
     17 O1          1.5482   -3.7045    2.8067 O.3       1 <0>         0.0000
     18 S1         -3.0111    1.7581    0.9262 S.3       1 <0>         0.0000
     19 H1         -5.0933    2.8112    1.7464 H         1 <0>         0.0000
     20 H2         -3.2142   -0.9820    4.5548 H         1 <0>         0.0000
     21 H3         -4.8504   -1.2659    3.9251 H         1 <0>         0.0000
     22 H4         -3.4222   -2.0493    3.1819 H         1 <0>         0.0000
     23 H5          2.7494   -6.1606    3.2069 H         1 <0>         0.0000
     24 H6          3.9327   -4.8903    3.5562 H         1 <0>         0.0000
     25 H7          3.1677   -5.7798    4.8952 H         1 <0>         0.0000
     26 H8          0.2278   -0.1330    0.2338 H         1 <0>         0.0000
     27 H9         -0.8499   -1.4075   -0.3739 H         1 <0>         0.0000
     28 H10        -1.3163    0.2795   -0.5179 H         1 <0>         0.0000
     29 H11         0.4727   -2.1272    1.2573 H         1 <0>         0.0000
@<TRIPOS>BOND
     1    1    3 1
     2    1   12 3
     3    2   13 2
     4    2   18 1
     5    2   19 1
     6    3    6 2
     7    3   14 1
     8    4    5 2
     9    4    8 1
    10    4   18 1
    11    5    9 1
    12    5   13 1
    13    6   16 1
    14    6   17 1
    15    7   10 1
    16    7   14 2
    17    7   17 1
    18    8   11 1
    19    8   15 2
    20    9   20 1
    21    9   21 1
    22    9   22 1
    23   10   23 1
    24   10   24 1
    25   10   25 1
    26   11   26 1
    27   11   27 1
    28   11   28 1
    29   15   16 1
    30   16   29 1
