@<TRIPOS>MOLECULE
*****
   22    23     0     0     0
SMALL
NO_CHARGES

@<TRIPOS>ATOM
      1 C1          1.8752   -1.2680   -0.1008 C.ar      1 <0>         0.0000
      2 C2          0.8249   -0.7339    0.6444 C.ar      1 <0>         0.0000
      3 C3          3.0365   -1.7198    0.5309 C.ar      1 <0>         0.0000
      4 C4          2.0806   -1.0922    2.6887 C.ar      1 <0>         0.0000
      5 C5          0.9212   -0.6429    2.0452 C.ar      1 <0>         0.0000
      6 C6          3.1141   -1.6214    1.9198 C.ar      1 <0>         0.0000
      7 C7         -0.2027   -0.0761    2.7939 C.2       1 <0>         0.0000
      8 C8         -2.0288    0.7896    3.3485 C.2       1 <0>         0.0000
      9 N1         -1.3325    0.3856    2.2642 N.2       1 <0>         0.0000
     10 N2         -1.4415    0.6256    4.5251 N.2       1 <0>         0.0000
     11 N3         -0.2699    0.0686    4.1519 N.pl3     1 <0>         0.0000
     12 N4          4.3313   -2.0919    2.6092 N.pl3     1 <0>         0.0000
     13 N5         -3.3657    1.3803    3.2496 N.pl3     1 <0>         0.0000
     14 O1          5.2377   -2.5572    1.9144 O.3       1 <0>         0.0000
     15 O2         -3.8417    1.4780    2.1188 O.3       1 <0>         0.0000
     16 O3          4.3661   -1.9900    3.8403 O.2       1 <0>         0.0000
     17 O4         -3.9011    1.7289    4.3021 O.2       1 <0>         0.0000
     18 H1          1.7907   -1.3337   -1.1812 H         1 <0>         0.0000
     19 H2         -0.0798   -0.3811    0.1599 H         1 <0>         0.0000
     20 H3          3.8667   -2.1388   -0.0256 H         1 <0>         0.0000
     21 H4          2.2137   -1.0466    3.7635 H         1 <0>         0.0000
     22 H5          0.4048   -0.1763    4.8677 H         1 <0>         0.0000
@<TRIPOS>BOND
     1    1    2 ar
     2    1    3 ar
     3    1   18 1
     4    2    5 ar
     5    2   19 1
     6    3    6 ar
     7    3   20 1
     8    4    5 ar
     9    4    6 ar
    10    4   21 1
    11    5    7 1
    12    6   12 1
    13    7    9 2
    14    7   11 1
    15    8    9 1
    16    8   10 2
    17    8   13 1
    18   10   11 1
    19   11   22 1
    20   12   14 1
    21   12   16 2
    22   13   15 1
    23   13   17 2
