@<TRIPOS>MOLECULE
*****
   27    28     0     0     0
SMALL
NO_CHARGES

@<TRIPOS>ATOM
      1 C1          2.0443    2.3057    2.5221 C.1       1 <0>         0.0000
      2 C2          2.1772   -1.6729   -0.0298 C.ar      1 <0>         0.0000
      3 C3          1.1100   -0.9272    0.4690 C.ar      1 <0>         0.0000
      4 C4          3.1840   -2.1403    0.8206 C.ar      1 <0>         0.0000
      5 C5          2.0239   -1.1422    2.7079 C.ar      1 <0>         0.0000
      6 C6          1.7654    2.4554    1.1383 C.2       1 <0>         0.0000
      7 C7          1.0282   -0.6529    1.8464 C.ar      1 <0>         0.0000
      8 C8          3.0939   -1.8658    2.1868 C.ar      1 <0>         0.0000
      9 C9          0.6142    2.1375    0.4524 C.2       1 <0>         0.0000
     10 C10         2.0794    3.0400   -0.9038 C.2       1 <0>         0.0000
     11 C11        -0.0989    0.0807    2.4609 C.2       1 <0>         0.0000
     12 C12         2.5475    3.5572   -2.2160 C.3       1 <0>         0.0000
     13 N1          2.2585    2.1738    3.6609 N.1       1 <0>         0.0000
     14 N2          2.6837    3.0197    0.2365 N.2       1 <0>         0.0000
     15 N3         -0.8631    1.0170    2.0138 N.2       1 <0>         0.0000
     16 N4         -0.5963    1.5287    0.7276 N.pl3     1 <0>         0.0000
     17 O1          0.7987    2.5009   -0.8520 O.3       1 <0>         0.0000
     18 Cl1         4.3477   -2.4469    3.2667 Cl        1 <0>         0.0000
     19 H1          2.2333   -1.8922   -1.0925 H         1 <0>         0.0000
     20 H2          0.3356   -0.5734   -0.2012 H         1 <0>         0.0000
     21 H3          4.0230   -2.7097    0.4334 H         1 <0>         0.0000
     22 H4          1.9787   -0.9286    3.7713 H         1 <0>         0.0000
     23 H5         -0.3510   -0.2092    3.4807 H         1 <0>         0.0000
     24 H6          2.5346    2.7691   -2.9755 H         1 <0>         0.0000
     25 H7          1.9057    4.3724   -2.5657 H         1 <0>         0.0000
     26 H8          3.5662    3.9287   -2.1009 H         1 <0>         0.0000
     27 H9         -1.3893    2.0884    0.4258 H         1 <0>         0.0000
@<TRIPOS>BOND
     1    1    6 1
     2    1   13 3
     3    2    3 ar
     4    2    4 ar
     5    2   19 1
     6    3    7 ar
     7    3   20 1
     8    4    8 ar
     9    4   21 1
    10    5    7 ar
    11    5    8 ar
    12    5   22 1
    13    6    9 2
    14    6   14 1
    15    7   11 1
    16    8   18 1
    17    9   16 1
    18    9   17 1
    19   10   12 1
    20   10   14 2
    21   10   17 1
    22   11   15 2
    23   11   23 1
    24   12   24 1
    25   12   25 1
    26   12   26 1
    27   15   16 1
    28   16   27 1
