@<TRIPOS>MOLECULE
*****
   31    33     0     0     0
SMALL
NO_CHARGES

@<TRIPOS>ATOM
      1 C1         -7.2120    2.6661    0.4232 C.1       1 <0>         0.0000
      2 C2         -3.4015   -2.3279    1.4871 C.ar      1 <0>         0.0000
      3 C3         -4.7003   -2.8191    1.3967 C.ar      1 <0>         0.0000
      4 C4         -5.5419   -1.0776    2.9097 C.ar      1 <0>         0.0000
      5 C5         -2.2812    0.5020    3.4583 C.2       1 <0>         0.0000
      6 C6         -7.6991    3.0441    1.6986 C.2       1 <0>         0.0000
      7 C7         -4.2363   -0.5522    2.9887 C.ar      1 <0>         0.0000
      8 C8         -3.6403    0.5506    3.7222 C.2       1 <0>         0.0000
      9 C9         -3.1832   -1.2031    2.2893 C.ar      1 <0>         0.0000
     10 C10        -5.7434   -2.1952    2.1117 C.ar      1 <0>         0.0000
     11 C11        -7.1180    2.7395    2.9120 C.2       1 <0>         0.0000
     12 C12        -8.9149    3.9336    3.2228 C.2       1 <0>         0.0000
     13 C13        -4.2799    1.5298    4.6051 C.2       1 <0>         0.0000
     14 C14        -9.9023    4.6601    4.0622 C.3       1 <0>         0.0000
     15 N1         -6.7469    2.3225   -0.5918 N.1       1 <0>         0.0000
     16 N2         -8.8534    3.8059    1.9395 N.2       1 <0>         0.0000
     17 N3         -5.3845    2.1737    4.4192 N.2       1 <0>         0.0000
     18 N4         -2.0080   -0.5357    2.5983 N.pl3     1 <0>         0.0000
     19 N5         -6.0423    1.9616    3.2322 N.pl3     1 <0>         0.0000
     20 O1         -7.8706    3.2912    3.8922 O.3       1 <0>         0.0000
     21 Br1        -7.5087   -2.9355    1.9765 Br        1 <0>         0.0000
     22 H1         -2.5901   -2.8129    0.9510 H         1 <0>         0.0000
     23 H2         -4.9133   -3.6868    0.7820 H         1 <0>         0.0000
     24 H3         -6.3626   -0.6288    3.4571 H         1 <0>         0.0000
     25 H4         -1.4922    1.1514    3.8147 H         1 <0>         0.0000
     26 H5         -3.7785    1.7851    5.5369 H         1 <0>         0.0000
     27 H6        -10.3890    3.9822    4.7706 H         1 <0>         0.0000
     28 H7         -9.4152    5.4540    4.6379 H         1 <0>         0.0000
     29 H8        -10.6569    5.1013    3.4104 H         1 <0>         0.0000
     30 H9         -1.0945   -0.7573    2.2271 H         1 <0>         0.0000
     31 H10        -5.5325    1.5726    2.4385 H         1 <0>         0.0000
@<TRIPOS>BOND
     1    1    6 1
     2    1   15 3
     3    2    3 ar
     4    2    9 ar
     5    2   22 1
     6    3   10 ar
     7    3   23 1
     8    4    7 ar
     9    4   10 ar
    10    4   24 1
    11    5    8 2
    12    5   18 1
    13    5   25 1
    14    6   11 2
    15    6   16 1
    16    7    8 1
    17    7    9 ar
    18    8   13 1
    19    9   18 1
    20   10   21 1
    21   11   19 1
    22   11   20 1
    23   12   14 1
    24   12   16 2
    25   12   20 1
    26   13   17 2
    27   13   26 1
    28   14   27 1
    29   14   28 1
    30   14   29 1
    31   17   19 1
    32   18   30 1
    33   19   31 1
