@<TRIPOS>MOLECULE
*****
   30    31     0     0     0
SMALL
NO_CHARGES

@<TRIPOS>ATOM
      1 C1         -4.7852    0.6354   -0.0499 C.ar      1 <0>         0.0000
      2 C2         -3.6211   -0.1362   -0.0103 C.ar      1 <0>         0.0000
      3 C3         -5.0561    1.4663   -1.1398 C.ar      1 <0>         0.0000
      4 C4         -2.9977    0.7050   -2.2017 C.ar      1 <0>         0.0000
      5 C5          3.1047    2.9376   -1.1097 C.2       1 <0>         0.0000
      6 C6          1.4303    1.1633   -1.4012 C.2       1 <0>         0.0000
      7 C7         -2.7223   -0.1053   -1.0870 C.ar      1 <0>         0.0000
      8 C8          1.7715    2.4390   -0.9943 C.2       1 <0>         0.0000
      9 C9         -4.1493    1.4889   -2.2034 C.ar      1 <0>         0.0000
     10 C10         4.0608    2.1165   -1.6123 C.2       1 <0>         0.0000
     11 C11         2.4640    0.2962   -1.9493 C.2       1 <0>         0.0000
     12 C12         0.0332    0.7148   -1.3442 C.2       1 <0>         0.0000
     13 C13         5.5062    2.4566   -1.7865 C.3       1 <0>         0.0000
     14 N1         -0.2708   -0.5047   -1.0609 N.2       1 <0>         0.0000
     15 N2         -1.5703   -0.9329   -1.0762 N.pl3     1 <0>         0.0000
     16 O1          2.3508   -0.8288   -2.3768 O.2       1 <0>         0.0000
     17 O2          3.7716    0.8589   -2.0099 O.3       1 <0>         0.0000
     18 O3          0.8819    3.3089   -0.4465 O.3       1 <0>         0.0000
     19 Cl1        -4.4819    2.5093   -3.5934 Cl        1 <0>         0.0000
     20 H1         -5.4826    0.6032    0.7826 H         1 <0>         0.0000
     21 H2         -3.4043   -0.7599    0.8532 H         1 <0>         0.0000
     22 H3         -5.9503    2.0799   -1.1695 H         1 <0>         0.0000
     23 H4         -2.3396    0.6911   -3.0637 H         1 <0>         0.0000
     24 H5          3.3384    3.9416   -0.7783 H         1 <0>         0.0000
     25 H6         -0.7307    1.4643   -1.5801 H         1 <0>         0.0000
     26 H7          6.1285    1.7657   -1.2080 H         1 <0>         0.0000
     27 H8          5.7067    3.4784   -1.4592 H         1 <0>         0.0000
     28 H9          5.7935    2.3532   -2.8381 H         1 <0>         0.0000
     29 H10        -1.6535   -1.7846   -0.5357 H         1 <0>         0.0000
     30 H11         0.0393    2.8532   -0.2789 H         1 <0>         0.0000
@<TRIPOS>BOND
     1    1    2 ar
     2    1    3 ar
     3    1   20 1
     4    2    7 ar
     5    2   21 1
     6    3    9 ar
     7    3   22 1
     8    4    7 ar
     9    4    9 ar
    10    4   23 1
    11    5    8 1
    12    5   10 2
    13    5   24 1
    14    6    8 2
    15    6   11 1
    16    6   12 1
    17    7   15 1
    18    8   18 1
    19    9   19 1
    20   10   13 1
    21   10   17 1
    22   11   16 2
    23   11   17 1
    24   12   14 2
    25   12   25 1
    26   13   26 1
    27   13   27 1
    28   13   28 1
    29   14   15 1
    30   15   29 1
    31   18   30 1
