@<TRIPOS>MOLECULE
*****
   44    46     0     0     0
SMALL
NO_CHARGES

@<TRIPOS>ATOM
      1 C1         -5.8018    0.6158   -0.4126 C.2       1 <0>         0.0000
      2 C2         -3.6960    1.4044    0.5110 C.2       1 <0>         0.0000
      3 C3         -4.4207    0.9484   -0.5704 C.2       1 <0>         0.0000
      4 C4         -6.4193    0.7754    0.7996 C.2       1 <0>         0.0000
      5 C5         -4.3153    1.5794    1.8134 C.2       1 <0>         0.0000
      6 C6          2.0084   -2.3299    0.0301 C.2       1 <0>         0.0000
      7 C7         -2.2847    1.9020    0.3383 C.2       1 <0>         0.0000
      8 C8          1.1199    0.8143    1.3657 C.3       1 <0>         0.0000
      9 C9         -0.5531   -1.0482    1.4850 C.3       1 <0>         0.0000
     10 C10         0.0604    1.8484    0.9552 C.3       1 <0>         0.0000
     11 C11        -1.4600    0.1251    1.9105 C.3       1 <0>         0.0000
     12 C12         0.6677   -0.5891   -0.7265 C.3       1 <0>         0.0000
     13 C13         0.7455   -0.5554    0.8154 C.3       1 <0>         0.0000
     14 C14        -3.8021    0.8150   -1.9403 C.3       1 <0>         0.0000
     15 C15        -7.8662    0.4758    1.0674 C.3       1 <0>         0.0000
     16 C16         1.4143   -2.3787   -2.3601 C.3       1 <0>         0.0000
     17 N1         -5.6786    1.2409    1.8515 N.am      1 <0>         0.0000
     18 N2          1.1996   -1.9092   -1.0049 N.am      1 <0>         0.0000
     19 N3         -1.2870    1.2653    1.0149 N.am      1 <0>         0.0000
     20 O1         -3.7585    1.9781    2.8433 O.2       1 <0>         0.0000
     21 O2          2.7759   -3.2694    0.0407 O.2       1 <0>         0.0000
     22 O3         -2.0573    2.8534   -0.4182 O.2       1 <0>         0.0000
     23 O4          1.8092   -1.5041    1.1083 O.3       1 <0>         0.0000
     24 H1         -6.3730    0.2436   -1.2559 H         1 <0>         0.0000
     25 H2          2.0985    1.1200    0.9851 H         1 <0>         0.0000
     26 H3          1.2047    0.7445    2.4547 H         1 <0>         0.0000
     27 H4         -0.2766   -1.6296    2.3691 H         1 <0>         0.0000
     28 H5         -1.0822   -1.7227    0.8043 H         1 <0>         0.0000
     29 H6          0.1124    2.7318    1.6031 H         1 <0>         0.0000
     30 H7          0.2255    2.1969   -0.0659 H         1 <0>         0.0000
     31 H8         -2.5016   -0.1847    1.9014 H         1 <0>         0.0000
     32 H9         -1.2369    0.4418    2.9350 H         1 <0>         0.0000
     33 H10        -0.3580   -0.4740   -1.0882 H         1 <0>         0.0000
     34 H11         1.2869    0.1963   -1.1868 H         1 <0>         0.0000
     35 H12        -3.8772    1.7691   -2.4722 H         1 <0>         0.0000
     36 H13        -4.3164    0.0500   -2.5287 H         1 <0>         0.0000
     37 H14        -2.7398    0.5678   -1.8877 H         1 <0>         0.0000
     38 H15        -7.9722   -0.2822    1.8520 H         1 <0>         0.0000
     39 H16        -8.3547    0.1048    0.1650 H         1 <0>         0.0000
     40 H17        -8.3965    1.3759    1.3990 H         1 <0>         0.0000
     41 H18         0.4563   -2.4752   -2.8808 H         1 <0>         0.0000
     42 H19         1.8977   -3.3553   -2.3126 H         1 <0>         0.0000
     43 H20         2.0572   -1.6911   -2.9277 H         1 <0>         0.0000
     44 H21        -6.1105    1.3720    2.7617 H         1 <0>         0.0000
@<TRIPOS>BOND
     1    1    3 1
     2    1    4 2
     3    1   24 1
     4    2    3 2
     5    2    5 1
     6    2    7 1
     7    3   14 1
     8    4   15 1
     9    4   17 1
    10    5   17 am
    11    5   20 2
    12    6   18 am
    13    6   21 2
    14    6   23 1
    15    7   19 am
    16    7   22 2
    17    8   10 1
    18    8   13 1
    19    8   25 1
    20    8   26 1
    21    9   11 1
    22    9   13 1
    23    9   27 1
    24    9   28 1
    25   10   19 1
    26   10   29 1
    27   10   30 1
    28   11   19 1
    29   11   31 1
    30   11   32 1
    31   12   13 1
    32   12   18 1
    33   12   33 1
    34   12   34 1
    35   13   23 1
    36   14   35 1
    37   14   36 1
    38   14   37 1
    39   15   38 1
    40   15   39 1
    41   15   40 1
    42   16   18 1
    43   16   41 1
    44   16   42 1
    45   16   43 1
    46   17   44 1
