@<TRIPOS>MOLECULE
*****
   36    39     0     0     0
SMALL
NO_CHARGES

@<TRIPOS>ATOM
      1 C1          6.1938   -4.2438    4.1976 C.2       1 <0>         0.0000
      2 C2          4.5464   -4.7470    3.0052 C.2       1 <0>         0.0000
      3 C3          2.7318   -4.1222    0.4012 C.2       1 <0>         0.0000
      4 C4          1.3717   -4.3569    2.2645 C.2       1 <0>         0.0000
      5 C5          0.1355   -1.9217   -1.3479 C.3       1 <0>         0.0000
      6 C6          0.7702   -0.9458   -0.3162 C.3       1 <0>         0.0000
      7 C7          7.6305   -5.3057    6.0413 C.3       1 <0>         0.0000
      8 C8          8.4904   -5.2105    4.8176 C.3       1 <0>         0.0000
      9 C9          0.8200   -3.2963   -1.1159 C.3       1 <0>         0.0000
     10 C10         1.9966   -1.6895    0.2423 C.3       1 <0>         0.0000
     11 C11         7.3883   -4.1788    5.0412 C.3       1 <0>         0.0000
     12 C12         1.5516   -3.1673    0.2331 C.3       1 <0>         0.0000
     13 C13         3.5571   -5.5875    2.2480 C.3       1 <0>         0.0000
     14 N1          5.6003   -5.2992    3.6983 N.2       1 <0>         0.0000
     15 N2          4.4729   -3.4396    3.0564 N.2       1 <0>         0.0000
     16 N3          0.7192   -3.5236    1.3887 N.am      1 <0>         0.0000
     17 N4          2.5464   -4.7814    1.6015 N.am      1 <0>         0.0000
     18 O1          3.6688   -4.2708   -0.3635 O.2       1 <0>         0.0000
     19 O2          1.0308   -4.7108    3.3798 O.2       1 <0>         0.0000
     20 O3          5.5837   -3.0900    3.8611 O.3       1 <0>         0.0000
     21 H1         -0.9473   -1.9877   -1.2092 H         1 <0>         0.0000
     22 H2          0.3011   -1.5796   -2.3731 H         1 <0>         0.0000
     23 H3          1.0427    0.0166   -0.7576 H         1 <0>         0.0000
     24 H4          0.0608   -0.7282    0.4910 H         1 <0>         0.0000
     25 H5          6.8793   -6.0878    6.0717 H         1 <0>         0.0000
     26 H6          8.0499   -5.0195    7.0007 H         1 <0>         0.0000
     27 H7          9.5115   -4.8571    4.9207 H         1 <0>         0.0000
     28 H8          8.3198   -5.9286    4.0225 H         1 <0>         0.0000
     29 H9          0.1211   -4.1359   -1.1060 H         1 <0>         0.0000
     30 H10         1.5727   -3.4912   -1.8850 H         1 <0>         0.0000
     31 H11         2.8510   -1.5948   -0.4355 H         1 <0>         0.0000
     32 H12         2.3139   -1.3616    1.2356 H         1 <0>         0.0000
     33 H13         7.6822   -3.1745    5.3255 H         1 <0>         0.0000
     34 H14         4.0865   -6.1679    1.4883 H         1 <0>         0.0000
     35 H15         3.0674   -6.2767    2.9398 H         1 <0>         0.0000
     36 H16         0.0209   -2.8981    1.7690 H         1 <0>         0.0000
@<TRIPOS>BOND
     1    1   11 1
     2    1   14 2
     3    1   20 1
     4    2   13 1
     5    2   14 1
     6    2   15 2
     7    3   12 1
     8    3   17 am
     9    3   18 2
    10    4   16 am
    11    4   17 am
    12    4   19 2
    13    5    6 1
    14    5    9 1
    15    5   21 1
    16    5   22 1
    17    6   10 1
    18    6   23 1
    19    6   24 1
    20    7    8 1
    21    7   11 1
    22    7   25 1
    23    7   26 1
    24    8   11 1
    25    8   27 1
    26    8   28 1
    27    9   12 1
    28    9   29 1
    29    9   30 1
    30   10   12 1
    31   10   31 1
    32   10   32 1
    33   11   33 1
    34   12   16 1
    35   13   17 1
    36   13   34 1
    37   13   35 1
    38   15   20 1
    39   16   36 1
