@<TRIPOS>MOLECULE
*****
   31    33     0     0     0
SMALL
NO_CHARGES

@<TRIPOS>ATOM
      1 C1         -0.9191    0.5560   -2.4986 C.ar      1 <0>         0.0000
      2 C2         -0.5241   -0.1975   -1.3853 C.ar      1 <0>         0.0000
      3 C3         -5.1317   -2.3510   -8.1806 C.ar      1 <0>         0.0000
      4 C4         -4.3856   -1.9747   -7.0610 C.ar      1 <0>         0.0000
      5 C5         -1.7959    0.0049   -3.4269 C.ar      1 <0>         0.0000
      6 C6         -6.5277   -2.4029   -8.1184 C.ar      1 <0>         0.0000
      7 C7         -1.0150   -1.4877   -1.2137 C.ar      1 <0>         0.0000
      8 C8         -6.4342   -1.6481   -5.8002 C.ar      1 <0>         0.0000
      9 C9         -5.0359   -1.6286   -5.8674 C.ar      1 <0>         0.0000
     10 C10        -2.3058   -1.2913   -3.2585 C.ar      1 <0>         0.0000
     11 C11        -7.1476   -2.0498   -6.9227 C.ar      1 <0>         0.0000
     12 C12        -1.9149   -2.0476   -2.1383 C.ar      1 <0>         0.0000
     13 C13        -4.2791   -1.1095   -4.6746 C.2       1 <0>         0.0000
     14 C14        -3.0806   -3.2900   -4.4538 C.3       1 <0>         0.0000
     15 C15        -3.5548   -4.0341   -3.2079 C.3       1 <0>         0.0000
     16 N1         -3.1682   -1.8392   -4.2610 N.am      1 <0>         0.0000
     17 O1         -4.6231   -0.0574   -4.1458 O.2       1 <0>         0.0000
     18 F1         -8.5020   -2.0906   -6.8546 F         1 <0>         0.0000
     19 S1         -2.4651   -3.7017   -1.7793 S.3       1 <0>         0.0000
     20 H1         -0.5420    1.5641   -2.6442 H         1 <0>         0.0000
     21 H2          0.1648    0.2177   -0.6547 H         1 <0>         0.0000
     22 H3         -4.6267   -2.6042   -9.1086 H         1 <0>         0.0000
     23 H4         -3.3016   -1.9307   -7.1177 H         1 <0>         0.0000
     24 H5         -2.1089    0.5796   -4.2916 H         1 <0>         0.0000
     25 H6         -7.1300   -2.6993   -8.9716 H         1 <0>         0.0000
     26 H7         -0.7091   -2.0747   -0.3510 H         1 <0>         0.0000
     27 H8         -6.9529   -1.3430   -4.8971 H         1 <0>         0.0000
     28 H9         -2.0448   -3.5554   -4.6864 H         1 <0>         0.0000
     29 H10        -3.7036   -3.5787   -5.2975 H         1 <0>         0.0000
     30 H11        -4.5827   -3.7474   -2.9706 H         1 <0>         0.0000
     31 H12        -3.5215   -5.1148   -3.3714 H         1 <0>         0.0000
@<TRIPOS>BOND
     1    1    2 ar
     2    1    5 ar
     3    1   20 1
     4    2    7 ar
     5    2   21 1
     6    3    4 ar
     7    3    6 ar
     8    3   22 1
     9    4    9 ar
    10    4   23 1
    11    5   10 ar
    12    5   24 1
    13    6   11 ar
    14    6   25 1
    15    7   12 ar
    16    7   26 1
    17    8    9 ar
    18    8   11 ar
    19    8   27 1
    20    9   13 1
    21   10   12 ar
    22   10   16 1
    23   11   18 1
    24   12   19 1
    25   13   16 am
    26   13   17 2
    27   14   15 1
    28   14   16 1
    29   14   28 1
    30   14   29 1
    31   15   19 1
    32   15   30 1
    33   15   31 1
