@<TRIPOS>MOLECULE
*****
   35    37     0     0     0
SMALL
NO_CHARGES

@<TRIPOS>ATOM
      1 C1          5.0030   -3.8463   -4.9769 C.1       1 <0>         0.0000
      2 C2          4.8886   -1.8793   -3.5019 C.ar      1 <0>         0.0000
      3 C3          5.8940   -3.9425   -2.6839 C.ar      1 <0>         0.0000
      4 C4          5.1175   -1.2827   -2.2657 C.ar      1 <0>         0.0000
      5 C5          6.1412   -3.3276   -1.4594 C.ar      1 <0>         0.0000
      6 C6          1.0618   -0.0807   -0.1917 C.ar      1 <0>         0.0000
      7 C7          1.8247    0.9999    0.2430 C.ar      1 <0>         0.0000
      8 C8          2.9765   -1.5191   -0.0048 C.ar      1 <0>         0.0000
      9 C9          5.2624   -3.2188   -3.7106 C.ar      1 <0>         0.0000
     10 C10         5.7339   -2.0061   -1.2343 C.ar      1 <0>         0.0000
     11 C11         1.6254   -1.3622   -0.3172 C.ar      1 <0>         0.0000
     12 C12         3.7760   -0.4304    0.3745 C.ar      1 <0>         0.0000
     13 C13         3.1835    0.8359    0.5322 C.ar      1 <0>         0.0000
     14 C14         6.0836   -1.3769    0.0854 C.2       1 <0>         0.0000
     15 C15         5.6026    0.3764    1.7300 C.3       1 <0>         0.0000
     16 C16         5.2667    1.7798    1.2454 C.3       1 <0>         0.0000
     17 C17         0.7979   -2.5355   -0.7891 C.3       1 <0>         0.0000
     18 N1          4.7880   -4.3562   -6.0027 N.1       1 <0>         0.0000
     19 N2          5.1530   -0.5628    0.7006 N.am      1 <0>         0.0000
     20 O1          7.1999   -1.5611    0.5725 O.2       1 <0>         0.0000
     21 O2          3.8611    1.9362    0.9957 O.3       1 <0>         0.0000
     22 H1          4.4168   -1.3208   -4.3043 H         1 <0>         0.0000
     23 H2          6.1919   -4.9720   -2.8561 H         1 <0>         0.0000
     24 H3          4.8124   -0.2541   -2.1045 H         1 <0>         0.0000
     25 H4          6.6543   -3.8632   -0.6668 H         1 <0>         0.0000
     26 H5          0.0089    0.0694   -0.4186 H         1 <0>         0.0000
     27 H6          1.3877    1.9864    0.3678 H         1 <0>         0.0000
     28 H7          3.4271   -2.5046   -0.0627 H         1 <0>         0.0000
     29 H8          6.6768    0.2567    1.8667 H         1 <0>         0.0000
     30 H9          5.0961    0.1589    2.6764 H         1 <0>         0.0000
     31 H10         5.5212    2.5319    1.9959 H         1 <0>         0.0000
     32 H11         5.8209    1.9951    0.3234 H         1 <0>         0.0000
     33 H12         0.7233   -2.5500   -1.8831 H         1 <0>         0.0000
     34 H13         1.2394   -3.4869   -0.4788 H         1 <0>         0.0000
     35 H14        -0.2210   -2.4906   -0.3923 H         1 <0>         0.0000
@<TRIPOS>BOND
     1    1    9 1
     2    1   18 3
     3    2    4 ar
     4    2    9 ar
     5    2   22 1
     6    3    5 ar
     7    3    9 ar
     8    3   23 1
     9    4   10 ar
    10    4   24 1
    11    5   10 ar
    12    5   25 1
    13    6    7 ar
    14    6   11 ar
    15    6   26 1
    16    7   13 ar
    17    7   27 1
    18    8   11 ar
    19    8   12 ar
    20    8   28 1
    21   10   14 1
    22   11   17 1
    23   12   13 ar
    24   12   19 1
    25   13   21 1
    26   14   19 am
    27   14   20 2
    28   15   16 1
    29   15   19 1
    30   15   29 1
    31   15   30 1
    32   16   21 1
    33   16   31 1
    34   16   32 1
    35   17   33 1
    36   17   34 1
    37   17   35 1
