@<TRIPOS>MOLECULE
*****
   24    25     0     0     0
SMALL
NO_CHARGES

@<TRIPOS>ATOM
      1 C1          0.8660   -2.1990    1.0421 C.ar      1 <0>         0.0000
      2 C2          0.8544   -0.9363    0.4354 C.ar      1 <0>         0.0000
      3 C3          1.9489   -2.5825    1.8244 C.ar      1 <0>         0.0000
      4 C4          1.9307   -0.0675    0.6194 C.ar      1 <0>         0.0000
      5 C5          3.0565   -1.7306    2.0241 C.ar      1 <0>         0.0000
      6 C6          3.0136   -0.4668    1.4050 C.ar      1 <0>         0.0000
      7 C7          4.7639   -6.1404    4.2345 C.2       1 <0>         0.0000
      8 C8          5.3931   -4.9152    4.6614 C.2       1 <0>         0.0000
      9 C9          4.1864   -2.1539    2.8552 C.2       1 <0>         0.0000
     10 N1          5.0592   -7.0753    5.1047 N.2       1 <0>         0.0000
     11 N2          6.0550   -5.1273    5.7681 N.2       1 <0>         0.0000
     12 N3          4.2994   -3.3734    3.2563 N.2       1 <0>         0.0000
     13 N4          4.0511   -6.3406    3.0701 N.pl3     1 <0>         0.0000
     14 N5          5.3873   -3.6911    4.0130 N.pl3     1 <0>         0.0000
     15 O1          5.8754   -6.4669    6.0527 O.3       1 <0>         0.0000
     16 Br1         4.4633    0.7872    1.5916 Br        1 <0>         0.0000
     17 H1          0.0267   -2.8760    0.9095 H         1 <0>         0.0000
     18 H2          0.0114   -0.6246   -0.1748 H         1 <0>         0.0000
     19 H3          1.9550   -3.5506    2.3146 H         1 <0>         0.0000
     20 H4          1.9332    0.9132    0.1554 H         1 <0>         0.0000
     21 H5          4.9317   -1.4000    3.1215 H         1 <0>         0.0000
     22 H6          3.5746   -5.5072    2.7439 H         1 <0>         0.0000
     23 H7          3.4845   -7.1809    3.0680 H         1 <0>         0.0000
     24 H8          5.9210   -2.9439    4.4575 H         1 <0>         0.0000
@<TRIPOS>BOND
     1    1    2 ar
     2    1    3 ar
     3    1   17 1
     4    2    4 ar
     5    2   18 1
     6    3    5 ar
     7    3   19 1
     8    4    6 ar
     9    4   20 1
    10    5    6 ar
    11    5    9 1
    12    6   16 1
    13    7    8 1
    14    7   10 2
    15    7   13 1
    16    8   11 2
    17    8   14 1
    18    9   12 2
    19    9   21 1
    20   10   15 1
    21   11   15 1
    22   12   14 1
    23   13   22 1
    24   13   23 1
    25   14   24 1
