@<TRIPOS>MOLECULE
*****
   19    19     0     0     0
SMALL
NO_CHARGES

@<TRIPOS>ATOM
      1 C1          1.7577   -0.9631   -0.1104 C.ar      1 <0>         0.0000
      2 C2          0.7265   -0.4668    2.0560 C.ar      1 <0>         0.0000
      3 C3          2.8628   -1.6443    1.9441 C.ar      1 <0>         0.0000
      4 C4          0.7371   -0.4254    0.6680 C.ar      1 <0>         0.0000
      5 C5          2.8365   -1.5818    0.5380 C.ar      1 <0>         0.0000
      6 C6          1.8155   -1.0900    2.6733 C.ar      1 <0>         0.0000
      7 C7          4.9559   -2.6415   -2.9166 C.3       1 <0>         0.0000
      8 C8          3.8281   -2.0444   -2.0735 C.3       1 <0>         0.0000
      9 F1         -0.3028    0.1713    0.0330 F         1 <0>         0.0000
     10 S1          4.2147   -2.3148   -0.3043 S.3       1 <0>         0.0000
     11 Cl1         1.8576   -1.1731    4.4253 Cl        1 <0>         0.0000
     12 H1          1.6845   -0.8856   -1.1881 H         1 <0>         0.0000
     13 H2         -0.0908   -0.0342    2.6214 H         1 <0>         0.0000
     14 H3          3.6906   -2.1198    2.4606 H         1 <0>         0.0000
     15 H4          5.9152   -2.1657   -2.6925 H         1 <0>         0.0000
     16 H5          5.0564   -3.7169   -2.7425 H         1 <0>         0.0000
     17 H6          4.7416   -2.4885   -3.9791 H         1 <0>         0.0000
     18 H7          2.8750   -2.5265   -2.3096 H         1 <0>         0.0000
     19 H8          3.7361   -0.9704   -2.2600 H         1 <0>         0.0000
@<TRIPOS>BOND
     1    1    4 ar
     2    1    5 ar
     3    1   12 1
     4    2    4 ar
     5    2    6 ar
     6    2   13 1
     7    3    5 ar
     8    3    6 ar
     9    3   14 1
    10    4    9 1
    11    5   10 1
    12    6   11 1
    13    7    8 1
    14    7   15 1
    15    7   16 1
    16    7   17 1
    17    8   10 1
    18    8   18 1
    19    8   19 1
