@<TRIPOS>MOLECULE
*****
   41    43     0     0     0
SMALL
NO_CHARGES

@<TRIPOS>ATOM
      1 C1         -5.8249    8.6861   -4.8517 C.ar      1 <0>         0.0000
      2 C2         -4.9190    7.6321   -4.9763 C.ar      1 <0>         0.0000
      3 C3         -1.3570   -0.3655   -2.3405 C.ar      1 <0>         0.0000
      4 C4         -0.7645   -1.4444   -2.9926 C.ar      1 <0>         0.0000
      5 C5         -1.3757    2.2399   -5.0041 C.2       1 <0>         0.0000
      6 C6         -0.5439   -0.1236   -5.0254 C.ar      1 <0>         0.0000
      7 C7         -5.7375    6.7563   -2.8724 C.ar      1 <0>         0.0000
      8 C8         -1.1453    0.9752   -4.3743 C.ar      1 <0>         0.0000
      9 C9         -1.9825    3.2971   -4.3665 C.2       1 <0>         0.0000
     10 C10        -6.6944    8.8028   -3.7596 C.ar      1 <0>         0.0000
     11 C11        -6.6431    7.8133   -2.7531 C.ar      1 <0>         0.0000
     12 C12        -4.8726    6.6553   -3.9743 C.ar      1 <0>         0.0000
     13 C13        -1.5428    0.8293   -3.0363 C.ar      1 <0>         0.0000
     14 C14        -0.3627   -1.3104   -4.3324 C.ar      1 <0>         0.0000
     15 C15        -2.3451    3.1125   -2.9467 C.2       1 <0>         0.0000
     16 C16        -2.1592    4.5775   -5.0954 C.2       1 <0>         0.0000
     17 C17        -7.6606    9.9603   -3.6640 C.3       1 <0>         0.0000
     18 C18        -7.5551    7.8918   -1.5509 C.3       1 <0>         0.0000
     19 C19        -1.2394    4.7997   -6.2845 C.3       1 <0>         0.0000
     20 N1         -3.0397    5.5282   -4.9495 N.2       1 <0>         0.0000
     21 N2         -4.0087    5.5504   -4.0365 N.pl3     1 <0>         0.0000
     22 O1         -2.8111    3.9558   -2.1970 O.2       1 <0>         0.0000
     23 O2         -2.1214    1.8743   -2.3751 O.3       1 <0>         0.0000
     24 Br1         0.4546   -2.8017   -5.2135 Br        1 <0>         0.0000
     25 H1         -5.8554    9.4433   -5.6326 H         1 <0>         0.0000
     26 H2         -4.2524    7.5596   -5.8276 H         1 <0>         0.0000
     27 H3         -1.6759   -0.4381   -1.3055 H         1 <0>         0.0000
     28 H4         -0.6131   -2.3825   -2.4694 H         1 <0>         0.0000
     29 H5         -1.0562    2.3463   -6.0348 H         1 <0>         0.0000
     30 H6         -0.2291   -0.0304   -6.0602 H         1 <0>         0.0000
     31 H7         -5.6956    5.9964   -2.0940 H         1 <0>         0.0000
     32 H8         -8.7021    9.6187   -3.6220 H         1 <0>         0.0000
     33 H9         -7.4881   10.5606   -2.7623 H         1 <0>         0.0000
     34 H10        -7.5639   10.6240   -4.5276 H         1 <0>         0.0000
     35 H11        -7.3971    8.8195   -0.9884 H         1 <0>         0.0000
     36 H12        -8.6106    7.8772   -1.8473 H         1 <0>         0.0000
     37 H13        -7.3871    7.0544   -0.8687 H         1 <0>         0.0000
     38 H14        -1.4960    4.1547   -7.1353 H         1 <0>         0.0000
     39 H15        -1.3426    5.8331   -6.6158 H         1 <0>         0.0000
     40 H16        -0.1898    4.6122   -6.0311 H         1 <0>         0.0000
     41 H17        -3.9038    4.9833   -3.1932 H         1 <0>         0.0000
@<TRIPOS>BOND
     1    1    2 ar
     2    1   10 ar
     3    1   25 1
     4    2   12 ar
     5    2   26 1
     6    3    4 ar
     7    3   13 ar
     8    3   27 1
     9    4   14 ar
    10    4   28 1
    11    5    8 1
    12    5    9 2
    13    5   29 1
    14    6    8 ar
    15    6   14 ar
    16    6   30 1
    17    7   11 ar
    18    7   12 ar
    19    7   31 1
    20    8   13 ar
    21    9   15 1
    22    9   16 1
    23   10   11 ar
    24   10   17 1
    25   11   18 1
    26   12   21 1
    27   13   23 1
    28   14   24 1
    29   15   22 2
    30   15   23 1
    31   16   19 1
    32   16   20 2
    33   17   32 1
    34   17   33 1
    35   17   34 1
    36   18   35 1
    37   18   36 1
    38   18   37 1
    39   19   38 1
    40   19   39 1
    41   19   40 1
    42   20   21 1
    43   21   41 1
