@<TRIPOS>MOLECULE
*****
   51    54     0     0     0
SMALL
NO_CHARGES

@<TRIPOS>ATOM
      1 C1          1.4607    0.3594   -5.5655 C.1       1 <0>         0.0000
      2 C2         -0.8221   -2.3726   -6.5661 C.ar      1 <0>         0.0000
      3 C3          0.5435   -0.7299   -5.4553 C.ar      1 <0>         0.0000
      4 C4          0.1700   -1.3964   -6.6422 C.ar      1 <0>         0.0000
      5 C5         -1.4355   -2.6336   -5.3326 C.ar      1 <0>         0.0000
      6 C6         -0.0791   -1.1108   -4.2216 C.ar      1 <0>         0.0000
      7 C7          0.1057   -0.8458    0.6648 C.2       1 <0>         0.0000
      8 C8         -0.1049    2.0499    0.5647 C.3       1 <0>         0.0000
      9 C9         -2.5276   -0.4272    4.1336 C.3       1 <0>         0.0000
     10 C10        -1.8927   -1.5958    4.8599 C.3       1 <0>         0.0000
     11 C11        -0.5117    1.2603   -0.6748 C.3       1 <0>         0.0000
     12 C12         1.6304   -0.0464   -1.1656 C.3       1 <0>         0.0000
     13 C13        -0.5460    1.2935    1.8095 C.3       1 <0>         0.0000
     14 C14         1.5294    0.0823   -2.6909 C.3       1 <0>         0.0000
     15 C15        -0.4542   -1.0110   -1.7958 C.3       1 <0>         0.0000
     16 C16        -1.5368   -1.3210    3.4175 C.3       1 <0>         0.0000
     17 C17         0.1546   -0.1272   -0.6935 C.3       1 <0>         0.0000
     18 C18         0.8104   -1.0343   -7.9571 C.3       1 <0>         0.0000
     19 C19        -2.5563   -3.6345   -5.2102 C.3       1 <0>         0.0000
     20 C20        -0.1484   -0.8195    3.0771 C.3       1 <0>         0.0000
     21 N1          2.1888    1.2595   -5.7212 N.1       1 <0>         0.0000
     22 N2         -1.0701   -2.0256   -4.2004 N.ar      1 <0>         0.0000
     23 N3          0.2567   -0.5820   -3.0119 N.pl3     1 <0>         0.0000
     24 N4         -0.0894   -0.1003    1.7985 N.am      1 <0>         0.0000
     25 O1          0.3120   -2.0627    0.7245 O.2       1 <0>         0.0000
     26 H1         -1.1362   -2.9071   -7.4571 H         1 <0>         0.0000
     27 H2          0.9799    2.2022    0.5876 H         1 <0>         0.0000
     28 H3         -0.5701    3.0412    0.5665 H         1 <0>         0.0000
     29 H4         -3.5771   -0.4980    3.8625 H         1 <0>         0.0000
     30 H5         -2.2036    0.5717    4.4145 H         1 <0>         0.0000
     31 H6         -1.1457   -1.3728    5.6176 H         1 <0>         0.0000
     32 H7         -2.5073   -2.4633    5.0802 H         1 <0>         0.0000
     33 H8         -1.6020    1.1342   -0.6735 H         1 <0>         0.0000
     34 H9         -0.2649    1.8066   -1.5907 H         1 <0>         0.0000
     35 H10         2.1362   -0.9767   -0.8952 H         1 <0>         0.0000
     36 H11         2.1806    0.7861   -0.7204 H         1 <0>         0.0000
     37 H12        -0.1414    1.7680    2.7102 H         1 <0>         0.0000
     38 H13        -1.6410    1.3236    1.8963 H         1 <0>         0.0000
     39 H14         1.5214    1.1282   -3.0101 H         1 <0>         0.0000
     40 H15         2.3667   -0.4077   -3.1962 H         1 <0>         0.0000
     41 H16        -0.2776   -2.0689   -1.5864 H         1 <0>         0.0000
     42 H17        -1.5295   -0.8624   -1.9134 H         1 <0>         0.0000
     43 H18        -1.9435   -2.0092    2.6810 H         1 <0>         0.0000
     44 H19         0.6022    0.0088   -8.2174 H         1 <0>         0.0000
     45 H20         1.8992   -1.1347   -7.9062 H         1 <0>         0.0000
     46 H21         0.4380   -1.6730   -8.7612 H         1 <0>         0.0000
     47 H22        -2.2967   -4.3997   -4.4722 H         1 <0>         0.0000
     48 H23        -3.4636   -3.1367   -4.8522 H         1 <0>         0.0000
     49 H24        -2.7747   -4.1202   -6.1644 H         1 <0>         0.0000
     50 H25         0.5429   -1.6610    3.0129 H         1 <0>         0.0000
     51 H26         0.2081   -0.1395    3.8597 H         1 <0>         0.0000
@<TRIPOS>BOND
     1    1    3 1
     2    1   21 3
     3    2    4 ar
     4    2    5 ar
     5    2   26 1
     6    3    4 ar
     7    3    6 ar
     8    4   18 1
     9    5   19 1
    10    5   22 ar
    11    6   22 ar
    12    6   23 1
    13    7   17 1
    14    7   24 am
    15    7   25 2
    16    8   11 1
    17    8   13 1
    18    8   27 1
    19    8   28 1
    20    9   10 1
    21    9   16 1
    22    9   29 1
    23    9   30 1
    24   10   16 1
    25   10   31 1
    26   10   32 1
    27   11   17 1
    28   11   33 1
    29   11   34 1
    30   12   14 1
    31   12   17 1
    32   12   35 1
    33   12   36 1
    34   13   24 1
    35   13   37 1
    36   13   38 1
    37   14   23 1
    38   14   39 1
    39   14   40 1
    40   15   17 1
    41   15   23 1
    42   15   41 1
    43   15   42 1
    44   16   20 1
    45   16   43 1
    46   18   44 1
    47   18   45 1
    48   18   46 1
    49   19   47 1
    50   19   48 1
    51   19   49 1
    52   20   24 1
    53   20   50 1
    54   20   51 1
