@<TRIPOS>MOLECULE
*****
   51    54     0     0     0
SMALL
NO_CHARGES

@<TRIPOS>ATOM
      1 C1         -2.0361    2.4468   -2.5156 C.1       1 <0>         0.0000
      2 C2         -3.5866   -0.1973   -4.5824 C.ar      1 <0>         0.0000
      3 C3         -2.2836    1.1568   -3.0764 C.ar      1 <0>         0.0000
      4 C4         -3.4033    1.0178   -3.9254 C.ar      1 <0>         0.0000
      5 C5         -2.6423   -1.2198   -4.4098 C.ar      1 <0>         0.0000
      6 C6         -1.4095    0.0338   -2.8928 C.ar      1 <0>         0.0000
      7 C7         -0.0870   -0.4686    1.0873 C.2       1 <0>         0.0000
      8 C8          1.0299    2.1573    1.6808 C.3       1 <0>         0.0000
      9 C9          0.1670   -2.5745    3.9821 C.3       1 <0>         0.0000
     10 C10        -1.0691   -2.5396    4.8563 C.3       1 <0>         0.0000
     11 C11         1.7722    1.2353    0.7176 C.3       1 <0>         0.0000
     12 C12         1.5195   -0.7720   -0.8443 C.3       1 <0>         0.0000
     13 C13         0.3895    1.3255    2.7840 C.3       1 <0>         0.0000
     14 C14         0.5100   -1.1619   -1.9245 C.3       1 <0>         0.0000
     15 C15        -0.1483    0.9750   -0.9423 C.3       1 <0>         0.0000
     16 C16        -0.4859   -1.2508    4.3172 C.3       1 <0>         0.0000
     17 C17         0.7994    0.2528    0.0566 C.3       1 <0>         0.0000
     18 C18        -4.3539    2.1684   -4.1329 C.3       1 <0>         0.0000
     19 C19        -2.7633   -2.5304   -5.1453 C.3       1 <0>         0.0000
     20 C20        -1.2354   -0.4984    3.2355 C.3       1 <0>         0.0000
     21 N1         -1.8688    3.5291   -2.1082 N.1       1 <0>         0.0000
     22 N2         -1.5937   -1.1055   -3.5913 N.ar      1 <0>         0.0000
     23 N3         -0.3452    0.0326   -2.0437 N.pl3     1 <0>         0.0000
     24 N4         -0.3585    0.1746    2.2678 N.am      1 <0>         0.0000
     25 O1         -0.5999   -1.5585    0.8082 O.2       1 <0>         0.0000
     26 H1         -4.4351   -0.3417   -5.2438 H         1 <0>         0.0000
     27 H2          1.7112    2.8834    2.1363 H         1 <0>         0.0000
     28 H3          0.2636    2.7268    1.1434 H         1 <0>         0.0000
     29 H4          1.1176   -2.8085    4.4532 H         1 <0>         0.0000
     30 H5          0.0560   -2.9326    2.9638 H         1 <0>         0.0000
     31 H6         -2.0021   -2.8907    4.4236 H         1 <0>         0.0000
     32 H7         -0.9594   -2.7473    5.9167 H         1 <0>         0.0000
     33 H8          2.2893    1.8099   -0.0587 H         1 <0>         0.0000
     34 H9          2.5409    0.6734    1.2647 H         1 <0>         0.0000
     35 H10         1.8661   -1.6416   -0.2826 H         1 <0>         0.0000
     36 H11         2.3906   -0.2833   -1.2951 H         1 <0>         0.0000
     37 H12         1.1689    0.9708    3.4740 H         1 <0>         0.0000
     38 H13        -0.3041    1.9368    3.3722 H         1 <0>         0.0000
     39 H14         0.9780   -1.3873   -2.8863 H         1 <0>         0.0000
     40 H15        -0.0894   -2.0213   -1.6208 H         1 <0>         0.0000
     41 H16        -1.1033    1.2396   -0.4826 H         1 <0>         0.0000
     42 H17         0.3177    1.9038   -1.2896 H         1 <0>         0.0000
     43 H18         0.0329   -0.6290    5.0440 H         1 <0>         0.0000
     44 H19        -4.7662    2.5157   -3.1802 H         1 <0>         0.0000
     45 H20        -3.8389    3.0232   -4.5837 H         1 <0>         0.0000
     46 H21        -5.1802    1.8782   -4.7856 H         1 <0>         0.0000
     47 H22        -1.8626   -2.7087   -5.7413 H         1 <0>         0.0000
     48 H23        -2.8441   -3.3547   -4.4294 H         1 <0>         0.0000
     49 H24        -3.6341   -2.5486   -5.8053 H         1 <0>         0.0000
     50 H25        -1.8815    0.2650    3.6861 H         1 <0>         0.0000
     51 H26        -1.8655   -1.1864    2.6719 H         1 <0>         0.0000
@<TRIPOS>BOND
     1    1    3 1
     2    1   21 3
     3    2    4 ar
     4    2    5 ar
     5    2   26 1
     6    3    4 ar
     7    3    6 ar
     8    4   18 1
     9    5   19 1
    10    5   22 ar
    11    6   22 ar
    12    6   23 1
    13    7   17 1
    14    7   24 am
    15    7   25 2
    16    8   11 1
    17    8   13 1
    18    8   27 1
    19    8   28 1
    20    9   10 1
    21    9   16 1
    22    9   29 1
    23    9   30 1
    24   10   16 1
    25   10   31 1
    26   10   32 1
    27   11   17 1
    28   11   33 1
    29   11   34 1
    30   12   14 1
    31   12   17 1
    32   12   35 1
    33   12   36 1
    34   13   24 1
    35   13   37 1
    36   13   38 1
    37   14   23 1
    38   14   39 1
    39   14   40 1
    40   15   17 1
    41   15   23 1
    42   15   41 1
    43   15   42 1
    44   16   20 1
    45   16   43 1
    46   18   44 1
    47   18   45 1
    48   18   46 1
    49   19   47 1
    50   19   48 1
    51   19   49 1
    52   20   24 1
    53   20   50 1
    54   20   51 1
