@<TRIPOS>MOLECULE
*****
   24    25     0     0     0
SMALL
NO_CHARGES

@<TRIPOS>ATOM
      1 C1          0.4410   -1.4076    2.3514 C.ar      1 <0>         0.0000
      2 C2          0.4877   -0.3785    1.4020 C.ar      1 <0>         0.0000
      3 C3          1.6180   -2.0109    2.7785 C.ar      1 <0>         0.0000
      4 C4          1.7166    0.0370    0.8880 C.ar      1 <0>         0.0000
      5 C5          2.8774   -1.6088    2.2842 C.ar      1 <0>         0.0000
      6 C6          2.8916   -0.5753    1.3282 C.ar      1 <0>         0.0000
      7 C7          4.2875   -4.9122    6.0726 C.2       1 <0>         0.0000
      8 C8          5.2509   -4.6753    5.0260 C.2       1 <0>         0.0000
      9 C9          4.1056   -2.2607    2.7461 C.2       1 <0>         0.0000
     10 N1          4.6526   -5.9878    6.7268 N.2       1 <0>         0.0000
     11 N2          6.1749   -5.5984    5.0663 N.2       1 <0>         0.0000
     12 N3          4.0959   -3.0664    3.7518 N.2       1 <0>         0.0000
     13 N4          3.2154   -4.1097    6.4047 N.pl3     1 <0>         0.0000
     14 N5          5.2832   -3.6192    4.1298 N.pl3     1 <0>         0.0000
     15 O1          5.8328   -6.4151    6.1265 O.3       1 <0>         0.0000
     16 Br1         4.5440    0.0714    0.5798 Br        1 <0>         0.0000
     17 H1         -0.5137   -1.7411    2.7482 H         1 <0>         0.0000
     18 H2         -0.4263    0.0974    1.0580 H         1 <0>         0.0000
     19 H3          1.5876   -2.8230    3.4977 H         1 <0>         0.0000
     20 H4          1.7658    0.8326    0.1519 H         1 <0>         0.0000
     21 H5          5.0315   -2.0383    2.2093 H         1 <0>         0.0000
     22 H6          2.5213   -4.5617    6.9887 H         1 <0>         0.0000
     23 H7          2.8378   -3.5989    5.6144 H         1 <0>         0.0000
     24 H8          6.0674   -3.6083    3.4772 H         1 <0>         0.0000
@<TRIPOS>BOND
     1    1    2 ar
     2    1    3 ar
     3    1   17 1
     4    2    4 ar
     5    2   18 1
     6    3    5 ar
     7    3   19 1
     8    4    6 ar
     9    4   20 1
    10    5    6 ar
    11    5    9 1
    12    6   16 1
    13    7    8 1
    14    7   10 2
    15    7   13 1
    16    8   11 2
    17    8   14 1
    18    9   12 2
    19    9   21 1
    20   10   15 1
    21   11   15 1
    22   12   14 1
    23   13   22 1
    24   13   23 1
    25   14   24 1
