@<TRIPOS>MOLECULE
*****
   34    36     0     0     0
SMALL
NO_CHARGES

@<TRIPOS>ATOM
      1 C1         -0.0773   -1.6173    1.3576 C.ar      1 <0>         0.0000
      2 C2         -0.0839   -1.3381   -0.0154 C.ar      1 <0>         0.0000
      3 C3         -2.8856   -5.1440    4.4780 C.ar      1 <0>         0.0000
      4 C4         -1.6271   -5.5702    4.0528 C.ar      1 <0>         0.0000
      5 C5         -3.8081   -4.6419    3.5536 C.ar      1 <0>         0.0000
      6 C6          0.2155   -2.9057    1.7977 C.ar      1 <0>         0.0000
      7 C7          0.2064   -2.3459   -0.9334 C.ar      1 <0>         0.0000
      8 C8         -2.2178   -4.9752    1.7781 C.ar      1 <0>         0.0000
      9 C9         -1.2832   -5.4655    2.6989 C.ar      1 <0>         0.0000
     10 C10        -3.4903   -4.5615    2.1900 C.ar      1 <0>         0.0000
     11 C11         0.4583   -3.9370    0.8797 C.ar      1 <0>         0.0000
     12 C12         0.4719   -3.6555   -0.4997 C.ar      1 <0>         0.0000
     13 C13         0.0587   -5.9780    2.2688 C.2       1 <0>         0.0000
     14 C14         1.8590   -5.9108    0.6044 C.3       1 <0>         0.0000
     15 C15         1.3981   -6.3170   -0.7904 C.3       1 <0>         0.0000
     16 C16        -4.4758   -4.0071    1.1871 C.3       1 <0>         0.0000
     17 N1          0.7617   -5.2533    1.3165 N.am      1 <0>         0.0000
     18 O1          0.5073   -7.0303    2.7258 O.2       1 <0>         0.0000
     19 S1          0.7665   -4.8789   -1.7565 S.3       1 <0>         0.0000
     20 H1         -0.2818   -0.8328    2.0804 H         1 <0>         0.0000
     21 H2         -0.2975   -0.3337   -0.3707 H         1 <0>         0.0000
     22 H3         -3.1548   -5.2115    5.5289 H         1 <0>         0.0000
     23 H4         -0.9098   -5.9894    4.7519 H         1 <0>         0.0000
     24 H5         -4.7894   -4.3182    3.8943 H         1 <0>         0.0000
     25 H6          0.2408   -3.1327    2.8587 H         1 <0>         0.0000
     26 H7          0.2219   -2.1241   -1.9976 H         1 <0>         0.0000
     27 H8         -1.9584   -4.9156    0.7246 H         1 <0>         0.0000
     28 H9          2.1470   -6.7935    1.1759 H         1 <0>         0.0000
     29 H10         2.7098   -5.2253    0.5515 H         1 <0>         0.0000
     30 H11         2.2275   -6.7374   -1.3657 H         1 <0>         0.0000
     31 H12         0.6057   -7.0648   -0.7151 H         1 <0>         0.0000
     32 H13        -4.2634   -2.9521    0.9769 H         1 <0>         0.0000
     33 H14        -4.4217   -4.5452    0.2358 H         1 <0>         0.0000
     34 H15        -5.5032   -4.0719    1.5565 H         1 <0>         0.0000
@<TRIPOS>BOND
     1    1    2 ar
     2    1    6 ar
     3    1   20 1
     4    2    7 ar
     5    2   21 1
     6    3    4 ar
     7    3    5 ar
     8    3   22 1
     9    4    9 ar
    10    4   23 1
    11    5   10 ar
    12    5   24 1
    13    6   11 ar
    14    6   25 1
    15    7   12 ar
    16    7   26 1
    17    8    9 ar
    18    8   10 ar
    19    8   27 1
    20    9   13 1
    21   10   16 1
    22   11   12 ar
    23   11   17 1
    24   12   19 1
    25   13   17 am
    26   13   18 2
    27   14   15 1
    28   14   17 1
    29   14   28 1
    30   14   29 1
    31   15   19 1
    32   15   30 1
    33   15   31 1
    34   16   32 1
    35   16   33 1
    36   16   34 1
