@<TRIPOS>MOLECULE
*****
   24    26     0     0     0
SMALL
NO_CHARGES

@<TRIPOS>ATOM
      1 C1          1.7274   -0.8873   -0.9456 C.ar      1 <0>         0.0000
      2 C2          0.4378   -0.9324   -0.3538 C.ar      1 <0>         0.0000
      3 C3          2.3912   -2.0259   -1.4374 C.ar      1 <0>         0.0000
      4 C4         -0.3008   -2.1200   -0.2022 C.ar      1 <0>         0.0000
      5 C5          1.6696   -3.2254   -1.2956 C.ar      1 <0>         0.0000
      6 C6          0.3452   -3.2717   -0.6879 C.ar      1 <0>         0.0000
      7 C7         -1.6517   -2.9380    1.7111 C.2       1 <0>         0.0000
      8 C8         -2.7124   -2.5697   -0.5722 C.2       1 <0>         0.0000
      9 C9         -2.4949   -3.9749    1.8509 C.2       1 <0>         0.0000
     10 C10        -3.4922   -3.6287   -0.2963 C.2       1 <0>         0.0000
     11 C11        -1.6497   -2.1036    0.4271 C.3       1 <0>         0.0000
     12 N1          2.0087   -4.4701   -1.6536 N.2       1 <0>         0.0000
     13 N2         -0.0749   -4.5430   -0.6976 N.2       1 <0>         0.0000
     14 N3         -3.3927   -4.3293    0.8777 N.pl3     1 <0>         0.0000
     15 O1          0.9423   -5.2734   -1.2877 O.3       1 <0>         0.0000
     16 H1          2.2264    0.0778   -1.0219 H         1 <0>         0.0000
     17 H2          0.0077    0.0055   -0.0028 H         1 <0>         0.0000
     18 H3          3.3751   -1.9720   -1.8858 H         1 <0>         0.0000
     19 H4         -0.9634   -2.6804    2.5102 H         1 <0>         0.0000
     20 H5         -2.8300   -2.0322   -1.5081 H         1 <0>         0.0000
     21 H6         -2.5269   -4.5932    2.7388 H         1 <0>         0.0000
     22 H7         -4.2518   -3.9944   -0.9752 H         1 <0>         0.0000
     23 H8         -1.8844   -1.0665    0.7034 H         1 <0>         0.0000
     24 H9         -4.0086   -5.1163    1.0368 H         1 <0>         0.0000
@<TRIPOS>BOND
     1    1    2 ar
     2    1    3 ar
     3    1   16 1
     4    2    4 ar
     5    2   17 1
     6    3    5 ar
     7    3   18 1
     8    4    6 ar
     9    4   11 1
    10    5    6 ar
    11    5   12 2
    12    6   13 2
    13    7    9 2
    14    7   11 1
    15    7   19 1
    16    8   10 2
    17    8   11 1
    18    8   20 1
    19    9   14 1
    20    9   21 1
    21   10   14 1
    22   10   22 1
    23   11   23 1
    24   12   15 1
    25   13   15 1
    26   14   24 1
