@<TRIPOS>MOLECULE
*****
   53    56     0     0     0
SMALL
NO_CHARGES

@<TRIPOS>ATOM
      1 C1          2.0590    2.6798   -4.9937 C.1       1 <0>         0.0000
      2 C2          0.7902    2.7761    1.5024 C.ar      1 <0>         0.0000
      3 C3          0.7474    2.4490    0.1224 C.ar      1 <0>         0.0000
      4 C4          0.8306    1.8077    2.5085 C.ar      1 <0>         0.0000
      5 C5          0.7841    0.1439    0.7330 C.ar      1 <0>         0.0000
      6 C6          0.7474    1.1167   -0.2725 C.ar      1 <0>         0.0000
      7 C7          0.7552   -1.2768    0.5869 C.2       1 <0>         0.0000
      8 C8          0.8204    0.4654    2.1025 C.ar      1 <0>         0.0000
      9 C9          0.7638   -1.8030    1.8617 C.2       1 <0>         0.0000
     10 C10         0.6314   -1.8748   -0.7925 C.3       1 <0>         0.0000
     11 C11         0.3199    1.4281   -2.8226 C.3       1 <0>         0.0000
     12 C12         0.7145   -0.7652   -4.0593 C.3       1 <0>         0.0000
     13 C13         0.7757    0.5340   -1.6735 C.3       1 <0>         0.0000
     14 C14         0.6886    0.7711   -4.1776 C.3       1 <0>         0.0000
     15 C15        -0.0477   -0.7861   -1.6457 C.3       1 <0>         0.0000
     16 C16        -2.3938   -4.5040   -2.7647 C.3       1 <0>         0.0000
     17 C17         0.2019   -5.4242    1.6904 C.3       1 <0>         0.0000
     18 C18         2.0632    1.2410   -4.7074 C.3       1 <0>         0.0000
     19 C19         0.7461   -3.2219    2.3404 C.3       1 <0>         0.0000
     20 C20        -2.0512   -3.0213   -2.5721 C.3       1 <0>         0.0000
     21 C21        -0.7384   -2.6764   -3.2716 C.3       1 <0>         0.0000
     22 N1          2.0117    3.8237   -5.1922 N.1       1 <0>         0.0000
     23 N2          0.8171   -0.7488    2.7762 N.pl3     1 <0>         0.0000
     24 N3         -0.3591   -1.2198   -3.1018 N.4       1 <0>         0.0000
     25 O1          0.2036   -4.0462    1.3204 O.3       1 <0>         0.0000
     26 H1          0.7927    3.8241    1.7870 H         1 <0>         0.0000
     27 H2          0.7211    3.2560   -0.6044 H         1 <0>         0.0000
     28 H3          0.8624    2.0984    3.5548 H         1 <0>         0.0000
     29 H4          1.6146   -2.1236   -1.2157 H         1 <0>         0.0000
     30 H5          0.0518   -2.7947   -0.7431 H         1 <0>         0.0000
     31 H6         -0.7598    1.6106   -2.7564 H         1 <0>         0.0000
     32 H7          0.7869    2.4130   -2.7577 H         1 <0>         0.0000
     33 H8          0.5276   -1.2419   -5.0230 H         1 <0>         0.0000
     34 H9          1.6626   -1.1439   -3.6732 H         1 <0>         0.0000
     35 H10         1.8220    0.2547   -1.8638 H         1 <0>         0.0000
     36 H11        -0.0622    1.0456   -4.9260 H         1 <0>         0.0000
     37 H12        -1.0302   -0.5719   -1.2183 H         1 <0>         0.0000
     38 H13        -2.4858   -4.7617   -3.8245 H         1 <0>         0.0000
     39 H14        -1.6253   -5.1462   -2.3228 H         1 <0>         0.0000
     40 H15        -3.3443   -4.7387   -2.2800 H         1 <0>         0.0000
     41 H16        -0.2259   -5.9788    0.8532 H         1 <0>         0.0000
     42 H17        -0.4122   -5.5931    2.5852 H         1 <0>         0.0000
     43 H18         1.2214   -5.7856    1.8816 H         1 <0>         0.0000
     44 H19         2.3324    0.7047   -5.6241 H         1 <0>         0.0000
     45 H20         2.8492    1.0377   -3.9710 H         1 <0>         0.0000
     46 H21         1.7666   -3.5548    2.5930 H         1 <0>         0.0000
     47 H22         0.1430   -3.3021    3.2600 H         1 <0>         0.0000
     48 H23        -1.9914   -2.7968   -1.5038 H         1 <0>         0.0000
     49 H24        -2.8555   -2.3998   -2.9874 H         1 <0>         0.0000
     50 H25         0.0975   -3.2739   -2.9077 H         1 <0>         0.0000
     51 H26        -0.8303   -2.8434   -4.3479 H         1 <0>         0.0000
     52 H27         0.8147   -0.8606    3.7815 H         1 <0>         0.0000
     53 H28        -1.1989   -0.6925   -3.3587 H         1 <0>         0.0000
@<TRIPOS>BOND
     1    1   18 1
     2    1   22 3
     3    2    3 ar
     4    2    4 ar
     5    2   26 1
     6    3    6 ar
     7    3   27 1
     8    4    8 ar
     9    4   28 1
    10    5    6 ar
    11    5    7 1
    12    5    8 ar
    13    6   13 1
    14    7    9 2
    15    7   10 1
    16    8   23 1
    17    9   19 1
    18    9   23 1
    19   10   15 1
    20   10   29 1
    21   10   30 1
    22   11   13 1
    23   11   14 1
    24   11   31 1
    25   11   32 1
    26   12   14 1
    27   12   24 1
    28   12   33 1
    29   12   34 1
    30   13   15 1
    31   13   35 1
    32   14   18 1
    33   14   36 1
    34   15   24 1
    35   15   37 1
    36   16   20 1
    37   16   38 1
    38   16   39 1
    39   16   40 1
    40   17   25 1
    41   17   41 1
    42   17   42 1
    43   17   43 1
    44   18   44 1
    45   18   45 1
    46   19   25 1
    47   19   46 1
    48   19   47 1
    49   20   21 1
    50   20   48 1
    51   20   49 1
    52   21   24 1
    53   21   50 1
    54   21   51 1
    55   23   52 1
    56   24   53 1
