@<TRIPOS>MOLECULE
*****
   60    63     0     0     0
SMALL
NO_CHARGES

@<TRIPOS>ATOM
      1 C1         10.3338   -0.4333   -5.2418 C.1       1 <0>         0.0000
      2 C2          7.9650   -1.0867   -5.0631 C.ar      1 <0>         0.0000
      3 C3          8.9130    0.4422   -3.4297 C.ar      1 <0>         0.0000
      4 C4          6.7375   -1.0105   -4.4122 C.ar      1 <0>         0.0000
      5 C5          7.6801    0.5096   -2.7882 C.ar      1 <0>         0.0000
      6 C6          4.8072    1.0711   -2.0164 C.ar      1 <0>         0.0000
      7 C7          4.4367   -1.2690   -2.4613 C.ar      1 <0>         0.0000
      8 C8          3.5740    1.1449   -1.3729 C.ar      1 <0>         0.0000
      9 C9          3.2107   -1.1985   -1.8025 C.ar      1 <0>         0.0000
     10 C10         2.2324   -1.4072    1.1560 C.ar      1 <0>         0.0000
     11 C11        -0.2513   -2.0872    2.1039 C.ar      1 <0>         0.0000
     12 C12         9.0644   -0.3589   -4.5750 C.ar      1 <0>         0.0000
     13 C13         6.5701   -0.2132   -3.2644 C.ar      1 <0>         0.0000
     14 C14         5.2613   -0.1364   -2.5767 C.ar      1 <0>         0.0000
     15 C15         2.7594    0.0103   -1.2514 C.ar      1 <0>         0.0000
     16 C16         1.0985   -0.8729    0.4935 C.ar      1 <0>         0.0000
     17 C17        -0.1802   -1.2142    1.0075 C.ar      1 <0>         0.0000
     18 C18         2.1437   -2.2473    2.2549 C.ar      1 <0>         0.0000
     19 C19         0.8706   -2.6186    2.7299 C.ar      1 <0>         0.0000
     20 C20         1.4187    0.1022   -0.5927 C.2       1 <0>         0.0000
     21 C21        -1.1015    2.5437   -0.5198 C.2       1 <0>         0.0000
     22 C22        -1.5183   -0.7634    0.4603 C.3       1 <0>         0.0000
     23 C23        -1.4362    0.0490   -0.8186 C.3       1 <0>         0.0000
     24 C24        -2.8146    0.3285   -1.4230 C.3       1 <0>         0.0000
     25 C25        -0.6355    4.9170   -0.8971 C.3       1 <0>         0.0000
     26 C26         3.5647   -2.1789    4.1448 C.3       1 <0>         0.0000
     27 C27         1.1897   -4.7840    3.6545 C.3       1 <0>         0.0000
     28 N1         11.3647   -0.4937   -5.7830 N.1       1 <0>         0.0000
     29 N2          0.7317    1.1224   -1.0054 N.2       1 <0>         0.0000
     30 N3         -0.5826    1.2382   -0.5874 N.am      1 <0>         0.0000
     31 N4         -0.2058    3.5299   -0.8287 N.am      1 <0>         0.0000
     32 O1         -2.2542    2.7581   -0.1416 O.2       1 <0>         0.0000
     33 O2          3.3048   -2.7161    2.8358 O.3       1 <0>         0.0000
     34 O3          0.6983   -3.4404    3.8178 O.3       1 <0>         0.0000
     35 H1          8.0783   -1.6977   -5.9534 H         1 <0>         0.0000
     36 H2          9.7638    0.9971   -3.0461 H         1 <0>         0.0000
     37 H3          5.8887   -1.5548   -4.8156 H         1 <0>         0.0000
     38 H4          7.5831    1.1095   -1.8881 H         1 <0>         0.0000
     39 H5          5.4129    1.9684   -2.1093 H         1 <0>         0.0000
     40 H6          4.7707   -2.2225   -2.8608 H         1 <0>         0.0000
     41 H7          3.2317    2.0875   -0.9567 H         1 <0>         0.0000
     42 H8          2.6007   -2.0925   -1.7076 H         1 <0>         0.0000
     43 H9          3.2314   -1.1401    0.8339 H         1 <0>         0.0000
     44 H10        -1.2240   -2.3777    2.4934 H         1 <0>         0.0000
     45 H11        -2.1437   -1.6486    0.2873 H         1 <0>         0.0000
     46 H12        -2.0344   -0.1601    1.2157 H         1 <0>         0.0000
     47 H13        -0.8781   -0.5324   -1.5619 H         1 <0>         0.0000
     48 H14        -3.4941    0.7894   -0.7077 H         1 <0>         0.0000
     49 H15        -3.2333   -0.6269   -1.7583 H         1 <0>         0.0000
     50 H16        -2.7375    0.9878   -2.2916 H         1 <0>         0.0000
     51 H17        -1.1428    5.1525   -1.8420 H         1 <0>         0.0000
     52 H18         0.2366    5.5676   -0.7897 H         1 <0>         0.0000
     53 H19        -1.3308    5.1148   -0.0801 H         1 <0>         0.0000
     54 H20         4.5044   -2.6253    4.4752 H         1 <0>         0.0000
     55 H21         2.7632   -2.4351    4.8449 H         1 <0>         0.0000
     56 H22         3.6735   -1.0889    4.0929 H         1 <0>         0.0000
     57 H23         0.9668   -5.2998    4.5900 H         1 <0>         0.0000
     58 H24         2.2666   -4.7947    3.4660 H         1 <0>         0.0000
     59 H25         0.6648   -5.2787    2.8287 H         1 <0>         0.0000
     60 H26         0.6416    3.2339   -1.2978 H         1 <0>         0.0000
@<TRIPOS>BOND
     1    1   12 1
     2    1   28 3
     3    2    4 ar
     4    2   12 ar
     5    2   35 1
     6    3    5 ar
     7    3   12 ar
     8    3   36 1
     9    4   13 ar
    10    4   37 1
    11    5   13 ar
    12    5   38 1
    13    6    8 ar
    14    6   14 ar
    15    6   39 1
    16    7    9 ar
    17    7   14 ar
    18    7   40 1
    19    8   15 ar
    20    8   41 1
    21    9   15 ar
    22    9   42 1
    23   10   16 ar
    24   10   18 ar
    25   10   43 1
    26   11   17 ar
    27   11   19 ar
    28   11   44 1
    29   13   14 1
    30   15   20 1
    31   16   17 ar
    32   16   20 1
    33   17   22 1
    34   18   19 ar
    35   18   33 1
    36   19   34 1
    37   20   29 2
    38   21   30 am
    39   21   31 am
    40   21   32 2
    41   22   23 1
    42   22   45 1
    43   22   46 1
    44   23   24 1
    45   23   30 1
    46   23   47 1
    47   24   48 1
    48   24   49 1
    49   24   50 1
    50   25   31 1
    51   25   51 1
    52   25   52 1
    53   25   53 1
    54   26   33 1
    55   26   54 1
    56   26   55 1
    57   26   56 1
    58   27   34 1
    59   27   57 1
    60   27   58 1
    61   27   59 1
    62   29   30 1
    63   31   60 1
