@<TRIPOS>MOLECULE
*****
   66    68     0     0     0
SMALL
NO_CHARGES

@<TRIPOS>ATOM
      1 C1         -4.3150   -0.8355   -9.0425 C.1       1 <0>         0.0000
      2 C2         -4.2371   -0.9709   -6.6105 C.ar      1 <0>         0.0000
      3 C3         -4.3031   -1.6890   -5.4199 C.ar      1 <0>         0.0000
      4 C4         -4.6788   -3.7299   -6.6790 C.ar      1 <0>         0.0000
      5 C5         -4.3931   -1.6240   -7.8437 C.ar      1 <0>         0.0000
      6 C6         -4.6202   -3.0147   -7.8710 C.ar      1 <0>         0.0000
      7 C7         -4.5142   -3.0664   -5.4625 C.ar      1 <0>         0.0000
      8 C8         -5.7328   -4.5524   -3.8785 C.2       1 <0>         0.0000
      9 C9         -3.5626   -3.9684   -3.3197 C.2       1 <0>         0.0000
     10 C10         1.9232    0.4818    0.9903 C.2       1 <0>         0.0000
     11 C11         1.0086   -1.6661    1.9811 C.3       1 <0>         0.0000
     12 C12        -0.3250   -0.3351    0.4390 C.3       1 <0>         0.0000
     13 C13         0.5697   -2.9515    1.2787 C.3       1 <0>         0.0000
     14 C14        -0.7640   -1.5827   -0.3106 C.3       1 <0>         0.0000
     15 C15        -5.3985   -5.2484   -2.5563 C.3       1 <0>         0.0000
     16 C16        -5.4421   -6.7702   -2.7655 C.3       1 <0>         0.0000
     17 C17        -6.3677   -4.7898   -1.4597 C.3       1 <0>         0.0000
     18 C18         5.5000    1.2281    2.3501 C.3       1 <0>         0.0000
     19 C19         3.2160    0.2906    1.7684 C.3       1 <0>         0.0000
     20 C20         4.2094    1.4369    1.5523 C.3       1 <0>         0.0000
     21 C21        -2.7804   -4.0575   -0.2574 C.3       1 <0>         0.0000
     22 C22        -3.1824   -5.2047   -1.2245 C.3       1 <0>         0.0000
     23 C23        -1.2687   -4.0466   -0.0404 C.3       1 <0>         0.0000
     24 C24        -4.7922   -3.7397   -9.1916 C.3       1 <0>         0.0000
     25 N1         -4.2407   -0.1549   -9.9836 N.1       1 <0>         0.0000
     26 N2         -4.5954   -3.8213   -4.2511 N.am      1 <0>         0.0000
     27 N3         -4.0264   -4.7561   -2.3184 N.pl3     1 <0>         0.0000
     28 N4          0.9713   -0.5475    1.0615 N.am      1 <0>         0.0000
     29 N5         -0.7893   -2.7755    0.6341 N.4       1 <0>         0.0000
     30 O1         -6.7728   -4.6213   -4.4921 O.2       1 <0>         0.0000
     31 O2          1.6954    1.4666    0.3038 O.2       1 <0>         0.0000
     32 F1         -4.9922   -5.0643   -9.0040 F         1 <0>         0.0000
     33 F2         -5.8492   -3.2626   -9.8809 F         1 <0>         0.0000
     34 F3         -3.6971   -3.6025   -9.9707 F         1 <0>         0.0000
     35 S1         -2.0374   -3.3040   -3.4457 S.2       1 <0>         0.0000
     36 H1         -4.0701    0.1009   -6.5970 H         1 <0>         0.0000
     37 H2         -4.1861   -1.1840   -4.4675 H         1 <0>         0.0000
     38 H3         -4.8548   -4.7987   -6.6973 H         1 <0>         0.0000
     39 H4          0.3602   -1.4840    2.8544 H         1 <0>         0.0000
     40 H5          2.0168   -1.8269    2.3603 H         1 <0>         0.0000
     41 H6         -0.2372    0.4966   -0.2615 H         1 <0>         0.0000
     42 H7         -1.0803   -0.0538    1.1909 H         1 <0>         0.0000
     43 H8          1.2584   -3.2202    0.4751 H         1 <0>         0.0000
     44 H9          0.4922   -3.7810    1.9849 H         1 <0>         0.0000
     45 H10        -1.7591   -1.4732   -0.7397 H         1 <0>         0.0000
     46 H11        -0.0655   -1.8396   -1.1079 H         1 <0>         0.0000
     47 H12        -5.2427   -7.3003   -1.8298 H         1 <0>         0.0000
     48 H13        -4.7095   -7.0867   -3.5133 H         1 <0>         0.0000
     49 H14        -6.4385   -7.0536   -3.1122 H         1 <0>         0.0000
     50 H15        -6.1335   -5.2811   -0.5100 H         1 <0>         0.0000
     51 H16        -7.3885   -5.0578   -1.7416 H         1 <0>         0.0000
     52 H17        -6.3200   -3.7061   -1.3195 H         1 <0>         0.0000
     53 H18         6.0101    0.3035    2.0562 H         1 <0>         0.0000
     54 H19         5.3027    1.1736    3.4269 H         1 <0>         0.0000
     55 H20         6.1956    2.0556    2.1838 H         1 <0>         0.0000
     56 H21         3.6776   -0.6623    1.4762 H         1 <0>         0.0000
     57 H22         2.9790    0.2005    2.8374 H         1 <0>         0.0000
     58 H23         3.7335    2.3795    1.8372 H         1 <0>         0.0000
     59 H24         4.4315    1.5208    0.4843 H         1 <0>         0.0000
     60 H25        -3.3023   -4.1679    0.6997 H         1 <0>         0.0000
     61 H26        -3.1029   -3.1158   -0.7019 H         1 <0>         0.0000
     62 H27        -2.2876   -5.6756   -1.6459 H         1 <0>         0.0000
     63 H28        -3.7290   -5.9780   -0.6850 H         1 <0>         0.0000
     64 H29        -0.9507   -4.8784    0.5926 H         1 <0>         0.0000
     65 H30        -0.7485   -4.1014   -0.9982 H         1 <0>         0.0000
     66 H31        -1.4531   -2.5514    1.3852 H         1 <0>         0.0000
@<TRIPOS>BOND
     1    1    5 1
     2    1   25 3
     3    2    3 ar
     4    2    5 ar
     5    2   36 1
     6    3    7 ar
     7    3   37 1
     8    4    6 ar
     9    4    7 ar
    10    4   38 1
    11    5    6 ar
    12    6   24 1
    13    7   26 1
    14    8   15 1
    15    8   26 am
    16    8   30 2
    17    9   26 1
    18    9   27 1
    19    9   35 2
    20   10   19 1
    21   10   28 am
    22   10   31 2
    23   11   13 1
    24   11   28 1
    25   11   39 1
    26   11   40 1
    27   12   14 1
    28   12   28 1
    29   12   41 1
    30   12   42 1
    31   13   29 1
    32   13   43 1
    33   13   44 1
    34   14   29 1
    35   14   45 1
    36   14   46 1
    37   15   16 1
    38   15   17 1
    39   15   27 1
    40   16   47 1
    41   16   48 1
    42   16   49 1
    43   17   50 1
    44   17   51 1
    45   17   52 1
    46   18   20 1
    47   18   53 1
    48   18   54 1
    49   18   55 1
    50   19   20 1
    51   19   56 1
    52   19   57 1
    53   20   58 1
    54   20   59 1
    55   21   22 1
    56   21   23 1
    57   21   60 1
    58   21   61 1
    59   22   27 1
    60   22   62 1
    61   22   63 1
    62   23   29 1
    63   23   64 1
    64   23   65 1
    65   24   32 1
    66   24   33 1
    67   24   34 1
    68   29   66 1
