@<TRIPOS>MOLECULE
*****
   69    71     0     0     0
SMALL
NO_CHARGES

@<TRIPOS>ATOM
      1 C1        -11.6031   -2.0890   -2.1503 C.1       1 <0>         0.0000
      2 C2        -10.7502   -3.6308   -0.4634 C.ar      1 <0>         0.0000
      3 C3         -9.7220   -4.1341    0.3310 C.ar      1 <0>         0.0000
      4 C4         -8.2064   -2.4870   -0.6054 C.ar      1 <0>         0.0000
      5 C5        -10.5138   -2.5631   -1.3425 C.ar      1 <0>         0.0000
      6 C6         -9.2264   -1.9899   -1.4074 C.ar      1 <0>         0.0000
      7 C7         -8.4529   -3.5627    0.2508 C.ar      1 <0>         0.0000
      8 C8         -7.5038   -4.1429    2.4730 C.2       1 <0>         0.0000
      9 C9         -6.1460   -4.4960    0.6253 C.2       1 <0>         0.0000
     10 C10         1.7573    0.7184    0.9241 C.2       1 <0>         0.0000
     11 C11         0.1817   -0.9627    2.0046 C.3       1 <0>         0.0000
     12 C12        -0.1211   -0.2830   -0.3115 C.3       1 <0>         0.0000
     13 C13         0.1001   -2.4396    1.6103 C.3       1 <0>         0.0000
     14 C14        -0.1953   -1.7346   -0.7664 C.3       1 <0>         0.0000
     15 C15        -6.1718   -4.6989    2.9824 C.3       1 <0>         0.0000
     16 C16        -6.4178   -6.0643    3.6446 C.3       1 <0>         0.0000
     17 C17        -5.5262   -3.7018    3.9528 C.3       1 <0>         0.0000
     18 C18         4.4110    1.9896    3.4819 C.3       1 <0>         0.0000
     19 C19         2.5138    0.8574    2.2368 C.3       1 <0>         0.0000
     20 C20         3.6607    1.8699    2.1523 C.3       1 <0>         0.0000
     21 C21        -3.0361   -4.2996    1.2463 C.3       1 <0>         0.0000
     22 C22        -1.6649   -4.9074    0.9103 C.3       1 <0>         0.0000
     23 C23        -4.0733   -5.3689    1.6309 C.3       1 <0>         0.0000
     24 C24        -0.8624   -4.0591   -0.0744 C.3       1 <0>         0.0000
     25 C25        -8.9443   -0.8315   -2.3409 C.3       1 <0>         0.0000
     26 N1        -12.5104   -1.7353   -2.7879 N.1       1 <0>         0.0000
     27 N2         -7.4020   -4.0578    1.0807 N.am      1 <0>         0.0000
     28 N3         -5.4146   -4.8202    1.7246 N.pl3     1 <0>         0.0000
     29 N4          0.6737   -0.1706    0.8983 N.am      1 <0>         0.0000
     30 N5         -0.7265   -2.6105    0.3554 N.4       1 <0>         0.0000
     31 O1         -8.4642   -3.8390    3.1465 O.2       1 <0>         0.0000
     32 O2          2.0560    1.3340   -0.0885 O.2       1 <0>         0.0000
     33 F1         -7.6549   -0.4183   -2.2401 F         1 <0>         0.0000
     34 F2         -9.1553   -1.1700   -3.6304 F         1 <0>         0.0000
     35 F3         -9.7267    0.2331   -2.0630 F         1 <0>         0.0000
     36 S1         -5.6702   -4.6169   -0.9630 S.2       1 <0>         0.0000
     37 H1        -11.7428   -4.0656   -0.4126 H         1 <0>         0.0000
     38 H2         -9.9089   -4.9589    1.0098 H         1 <0>         0.0000
     39 H3         -7.2201   -2.0452   -0.6520 H         1 <0>         0.0000
     40 H4         -0.8123   -0.6105    2.3242 H         1 <0>         0.0000
     41 H5          0.8401   -0.8838    2.8680 H         1 <0>         0.0000
     42 H6          0.3507    0.3180   -1.0904 H         1 <0>         0.0000
     43 H7         -1.1341    0.1154   -0.1467 H         1 <0>         0.0000
     44 H8          1.0901   -2.8419    1.3851 H         1 <0>         0.0000
     45 H9         -0.3641   -3.0348    2.3974 H         1 <0>         0.0000
     46 H10        -0.8688   -1.8582   -1.6170 H         1 <0>         0.0000
     47 H11         0.7926   -2.1217   -1.0244 H         1 <0>         0.0000
     48 H12        -5.4891   -6.4756    4.0506 H         1 <0>         0.0000
     49 H13        -6.8337   -6.7780    2.9280 H         1 <0>         0.0000
     50 H14        -7.1261   -5.9414    4.4673 H         1 <0>         0.0000
     51 H15        -4.5720   -4.0909    4.3228 H         1 <0>         0.0000
     52 H16        -6.1876   -3.5453    4.8080 H         1 <0>         0.0000
     53 H17        -5.3546   -2.7365    3.4674 H         1 <0>         0.0000
     54 H18         4.8527    1.0323    3.7825 H         1 <0>         0.0000
     55 H19         3.7484    2.3207    4.2898 H         1 <0>         0.0000
     56 H20         5.2238    2.7173    3.4032 H         1 <0>         0.0000
     57 H21         2.9087   -0.1249    2.5311 H         1 <0>         0.0000
     58 H22         1.8115    1.1542    3.0271 H         1 <0>         0.0000
     59 H23         3.2566    2.8418    1.8542 H         1 <0>         0.0000
     60 H24         4.3454    1.5693    1.3539 H         1 <0>         0.0000
     61 H25        -3.4377   -3.7868    0.3649 H         1 <0>         0.0000
     62 H26        -2.9620   -3.5676    2.0613 H         1 <0>         0.0000
     63 H27        -1.0869   -5.1229    1.8146 H         1 <0>         0.0000
     64 H28        -1.8050   -5.8705    0.4073 H         1 <0>         0.0000
     65 H29        -3.8227   -5.8267    2.5904 H         1 <0>         0.0000
     66 H30        -4.0723   -6.1569    0.8711 H         1 <0>         0.0000
     67 H31        -1.3689   -4.0334   -1.0420 H         1 <0>         0.0000
     68 H32         0.1517   -4.4372   -0.2222 H         1 <0>         0.0000
     69 H33        -1.6750   -2.2780    0.5686 H         1 <0>         0.0000
@<TRIPOS>BOND
     1    1    5 1
     2    1   26 3
     3    2    3 ar
     4    2    5 ar
     5    2   37 1
     6    3    7 ar
     7    3   38 1
     8    4    6 ar
     9    4    7 ar
    10    4   39 1
    11    5    6 ar
    12    6   25 1
    13    7   27 1
    14    8   15 1
    15    8   27 am
    16    8   31 2
    17    9   27 1
    18    9   28 1
    19    9   36 2
    20   10   19 1
    21   10   29 am
    22   10   32 2
    23   11   13 1
    24   11   29 1
    25   11   40 1
    26   11   41 1
    27   12   14 1
    28   12   29 1
    29   12   42 1
    30   12   43 1
    31   13   30 1
    32   13   44 1
    33   13   45 1
    34   14   30 1
    35   14   46 1
    36   14   47 1
    37   15   16 1
    38   15   17 1
    39   15   28 1
    40   16   48 1
    41   16   49 1
    42   16   50 1
    43   17   51 1
    44   17   52 1
    45   17   53 1
    46   18   20 1
    47   18   54 1
    48   18   55 1
    49   18   56 1
    50   19   20 1
    51   19   57 1
    52   19   58 1
    53   20   59 1
    54   20   60 1
    55   21   22 1
    56   21   23 1
    57   21   61 1
    58   21   62 1
    59   22   24 1
    60   22   63 1
    61   22   64 1
    62   23   28 1
    63   23   65 1
    64   23   66 1
    65   24   30 1
    66   24   67 1
    67   24   68 1
    68   25   33 1
    69   25   34 1
    70   25   35 1
    71   30   69 1
