@<TRIPOS>MOLECULE
*****
   65    70     0     0     0
SMALL
NO_CHARGES

@<TRIPOS>ATOM
      1 C1         -1.0003  -10.3096   -1.1491 C.ar      1 <0>         0.0000
      2 C2         -1.1294   -8.9185   -1.2229 C.ar      1 <0>         0.0000
      3 C3         -0.6851  -10.9147    0.0730 C.ar      1 <0>         0.0000
      4 C4         -0.9497   -8.1362   -0.0792 C.ar      1 <0>         0.0000
      5 C5         -0.4962  -10.1335    1.2150 C.ar      1 <0>         0.0000
      6 C6         -2.5118   -8.6178    5.4612 C.ar      1 <0>         0.0000
      7 C7         -3.1204   -9.2906    3.2152 C.ar      1 <0>         0.0000
      8 C8         -3.6175   -9.2950    5.9643 C.ar      1 <0>         0.0000
      9 C9         -4.2292   -9.9653    3.7206 C.ar      1 <0>         0.0000
     10 C10         2.4670   -5.6630    1.9684 C.2       1 <0>         0.0000
     11 C11         1.5730   -6.6093    1.5765 C.2       1 <0>         0.0000
     12 C12        -2.2391   -8.6073    4.0770 C.ar      1 <0>         0.0000
     13 C13        -0.6337   -8.7359    1.1529 C.ar      1 <0>         0.0000
     14 C14        -4.4893   -9.9785    5.1001 C.ar      1 <0>         0.0000
     15 C15        -1.0679   -7.8659    3.6025 C.2       1 <0>         0.0000
     16 C16        -0.4383   -7.9160    2.3602 C.2       1 <0>         0.0000
     17 C17         2.3288   -5.1054    3.2887 C.2       1 <0>         0.0000
     18 C18         0.5265   -6.4146    3.7520 C.2       1 <0>         0.0000
     19 C19         6.4839   -3.1192    3.9282 C.2       1 <0>         0.0000
     20 C20         7.7938   -3.7943    4.3270 C.3       1 <0>         0.0000
     21 C21         7.4353   -4.6236    5.5706 C.3       1 <0>         0.0000
     22 C22        -6.7130  -12.4100    6.4153 C.3       1 <0>         0.0000
     23 C23        -5.7521  -11.3430    7.0137 C.3       1 <0>         0.0000
     24 C24        -6.3411  -11.8991    4.9936 C.3       1 <0>         0.0000
     25 C25         6.1985   -3.9065    6.1516 C.3       1 <0>         0.0000
     26 C26        -5.7240  -10.6285    5.6359 C.3       1 <0>         0.0000
     27 C27         4.3238   -2.5964    5.0140 C.3       1 <0>         0.0000
     28 C28         3.1533   -3.5642    4.9093 C.3       1 <0>         0.0000
     29 N1         -0.4651   -6.9499    4.4434 N.2       1 <0>         0.0000
     30 N2          1.4039   -5.4660    4.1482 N.2       1 <0>         0.0000
     31 N3          0.5845   -6.9773    2.4562 N.pl3     1 <0>         0.0000
     32 N4          5.6100   -3.2588    4.9832 N.am      1 <0>         0.0000
     33 N5         -6.8247   -9.5174    5.6527 N.4       1 <0>         0.0000
     34 O1          6.2434   -2.5315    2.8803 O.2       1 <0>         0.0000
     35 O2          3.2312   -4.1688    3.6003 O.3       1 <0>         0.0000
     36 H1         -1.1389  -10.9175   -2.0389 H         1 <0>         0.0000
     37 H2         -1.3748   -8.4433   -2.1688 H         1 <0>         0.0000
     38 H3         -0.5721  -11.9939    0.1328 H         1 <0>         0.0000
     39 H4         -1.0725   -7.0573   -0.1350 H         1 <0>         0.0000
     40 H5         -0.2376  -10.5999    2.1618 H         1 <0>         0.0000
     41 H6         -1.8370   -8.0840    6.1216 H         1 <0>         0.0000
     42 H7         -2.9448   -9.2893    2.1460 H         1 <0>         0.0000
     43 H8         -3.7906   -9.3062    7.0392 H         1 <0>         0.0000
     44 H9         -4.8868  -10.4933    3.0326 H         1 <0>         0.0000
     45 H10         3.2665   -5.3274    1.3194 H         1 <0>         0.0000
     46 H11         1.5871   -7.1000    0.6101 H         1 <0>         0.0000
     47 H12         8.1903   -4.3783    3.4946 H         1 <0>         0.0000
     48 H13         8.5200   -3.0040    4.5490 H         1 <0>         0.0000
     49 H14         7.1605   -5.6405    5.2754 H         1 <0>         0.0000
     50 H15         8.2465   -4.6925    6.2985 H         1 <0>         0.0000
     51 H16        -7.7627  -12.2409    6.6746 H         1 <0>         0.0000
     52 H17        -6.4759  -13.4516    6.6329 H         1 <0>         0.0000
     53 H18        -6.0883  -10.7669    7.8816 H         1 <0>         0.0000
     54 H19        -4.7640  -11.7501    7.2338 H         1 <0>         0.0000
     55 H20        -5.5522  -12.4952    4.5322 H         1 <0>         0.0000
     56 H21        -7.1437  -11.7637    4.2616 H         1 <0>         0.0000
     57 H22         5.4931   -4.6044    6.6151 H         1 <0>         0.0000
     58 H23         6.4749   -3.1579    6.9089 H         1 <0>         0.0000
     59 H24         4.2976   -1.8970    4.1745 H         1 <0>         0.0000
     60 H25         4.2178   -2.0248    5.9455 H         1 <0>         0.0000
     61 H26         2.1984   -3.0388    5.0095 H         1 <0>         0.0000
     62 H27         3.1902   -4.3492    5.6699 H         1 <0>         0.0000
     63 H28        -7.7299   -9.8487    6.0113 H         1 <0>         0.0000
     64 H29        -6.9623   -9.1535    4.7019 H         1 <0>         0.0000
     65 H30        -6.5104   -8.7305    6.2339 H         1 <0>         0.0000
@<TRIPOS>BOND
     1    1    3 ar
     2    1    2 ar
     3    1   36 1
     4    2    4 ar
     5    2   37 1
     6    3    5 ar
     7    3   38 1
     8    4   13 ar
     9    4   39 1
    10    5   13 ar
    11    5   40 1
    12    6    8 ar
    13    6   12 ar
    14    6   41 1
    15    7    9 ar
    16    7   12 ar
    17    7   42 1
    18    8   14 ar
    19    8   43 1
    20    9   14 ar
    21    9   44 1
    22   10   11 2
    23   10   17 1
    24   10   45 1
    25   11   31 1
    26   11   46 1
    27   12   15 1
    28   13   16 1
    29   14   26 1
    30   15   16 2
    31   15   29 1
    32   16   31 1
    33   17   30 2
    34   17   35 1
    35   18   29 2
    36   18   30 1
    37   18   31 1
    38   19   20 1
    39   19   32 am
    40   19   34 2
    41   20   21 1
    42   20   47 1
    43   20   48 1
    44   21   25 1
    45   21   49 1
    46   21   50 1
    47   22   24 1
    48   22   23 1
    49   22   51 1
    50   22   52 1
    51   23   26 1
    52   23   53 1
    53   23   54 1
    54   24   26 1
    55   24   55 1
    56   24   56 1
    57   25   32 1
    58   25   57 1
    59   25   58 1
    60   26   33 1
    61   27   28 1
    62   27   32 1
    63   27   59 1
    64   27   60 1
    65   28   35 1
    66   28   61 1
    67   28   62 1
    68   33   63 1
    69   33   64 1
    70   33   65 1
