@<TRIPOS>MOLECULE
*****
   62    64     0     0     0
SMALL
NO_CHARGES

@<TRIPOS>ATOM
      1 C1          1.0913    6.9677    5.8354 C.ar      1 <0>         0.0000
      2 C2          3.4403    7.5689    5.8393 C.ar      1 <0>         0.0000
      3 C3          0.8256    8.0310    6.7076 C.ar      1 <0>         0.0000
      4 C4          3.1754    8.6252    6.7061 C.ar      1 <0>         0.0000
      5 C5          2.4010    6.7364    5.4005 C.ar      1 <0>         0.0000
      6 C6          1.8638    8.8531    7.1380 C.ar      1 <0>         0.0000
      7 C7          2.0491    0.4454   -2.3428 C.3       1 <0>         0.0000
      8 C8          0.6993    0.4594   -3.0692 C.3       1 <0>         0.0000
      9 C9          1.9445   -0.2398   -0.9850 C.3       1 <0>         0.0000
     10 C10        -0.4753    0.3577   -0.8582 C.3       1 <0>         0.0000
     11 C11         1.6087    0.3947    3.5945 C.3       1 <0>         0.0000
     12 C12         1.9062    0.5035    2.0994 C.3       1 <0>         0.0000
     13 C13        -0.4325    1.0745   -2.2173 C.3       1 <0>         0.0000
     14 C14         1.3334    2.8346    2.6032 C.3       1 <0>         0.0000
     15 C15        -0.2264    2.5899   -2.0182 C.3       1 <0>         0.0000
     16 C16        -1.7900    0.8375   -2.9009 C.3       1 <0>         0.0000
     17 C17         0.2145    3.5009    1.7964 C.3       1 <0>         0.0000
     18 C18         3.5057    3.0741    3.9294 C.3       1 <0>         0.0000
     19 C19         3.0953    4.5470    1.9464 C.3       1 <0>         0.0000
     20 C20         0.7980   -0.1497    1.2517 C.3       1 <0>         0.0000
     21 C21         1.7515    4.8651    4.0521 C.3       1 <0>         0.0000
     22 C22         2.4220    3.8238    3.1334 C.3       1 <0>         0.0000
     23 N1          0.8573    0.3984   -0.1482 N.4       1 <0>         0.0000
     24 O1          2.0065    1.8797    1.7278 O.3       1 <0>         0.0000
     25 O2          2.7704    5.7219    4.5474 O.3       1 <0>         0.0000
     26 S1          0.5198    1.8120    3.9394 S.3       1 <0>         0.0000
     27 Cl1         1.5278   10.1836    8.2296 Cl        1 <0>         0.0000
     28 H1          0.2681    6.3388    5.5168 H         1 <0>         0.0000
     29 H2          4.4514    7.3763    5.4934 H         1 <0>         0.0000
     30 H3         -0.1887    8.2128    7.0484 H         1 <0>         0.0000
     31 H4          3.9798    9.2696    7.0461 H         1 <0>         0.0000
     32 H5          2.7943   -0.0973   -2.9319 H         1 <0>         0.0000
     33 H6          2.4406    1.4599   -2.2133 H         1 <0>         0.0000
     34 H7          0.7890    1.0119   -4.0091 H         1 <0>         0.0000
     35 H8          0.4251   -0.5691   -3.3362 H         1 <0>         0.0000
     36 H9          1.6725   -1.2942   -1.0844 H         1 <0>         0.0000
     37 H10         2.8748   -0.1674   -0.4201 H         1 <0>         0.0000
     38 H11        -1.2049    0.8222   -0.1903 H         1 <0>         0.0000
     39 H12        -0.7329   -0.6995   -0.9706 H         1 <0>         0.0000
     40 H13         1.0808   -0.5297    3.8434 H         1 <0>         0.0000
     41 H14         2.5281    0.4452    4.1778 H         1 <0>         0.0000
     42 H15         2.8775    0.0531    1.8732 H         1 <0>         0.0000
     43 H16        -1.0318    3.0192   -1.4138 H         1 <0>         0.0000
     44 H17        -0.2326    3.0986   -2.9862 H         1 <0>         0.0000
     45 H18         0.7236    2.8458   -1.5362 H         1 <0>         0.0000
     46 H19        -2.6140    1.2538   -2.3117 H         1 <0>         0.0000
     47 H20        -1.9829   -0.2296   -3.0530 H         1 <0>         0.0000
     48 H21        -1.8064    1.3222   -3.8813 H         1 <0>         0.0000
     49 H22        -0.4665    2.7413    1.4045 H         1 <0>         0.0000
     50 H23         0.6216    4.0784    0.9639 H         1 <0>         0.0000
     51 H24        -0.3816    4.1726    2.4177 H         1 <0>         0.0000
     52 H25         4.2694    3.7809    4.2560 H         1 <0>         0.0000
     53 H26         3.0955    2.6003    4.8254 H         1 <0>         0.0000
     54 H27         3.9927    2.3172    3.3085 H         1 <0>         0.0000
     55 H28         3.9002    5.1806    2.3231 H         1 <0>         0.0000
     56 H29         2.4027    5.1975    1.4047 H         1 <0>         0.0000
     57 H30         3.5254    3.8279    1.2445 H         1 <0>         0.0000
     58 H31        -0.1788    0.1119    1.6630 H         1 <0>         0.0000
     59 H32         0.8947   -1.2364    1.2075 H         1 <0>         0.0000
     60 H33         1.2416    4.3640    4.8852 H         1 <0>         0.0000
     61 H34         1.0155    5.4612    3.4979 H         1 <0>         0.0000
     62 H35         1.1235    1.3862   -0.0039 H         1 <0>         0.0000
@<TRIPOS>BOND
     1    1    3 ar
     2    1    5 ar
     3    1   28 1
     4    2    4 ar
     5    2    5 ar
     6    2   29 1
     7    3    6 ar
     8    3   30 1
     9    4    6 ar
    10    4   31 1
    11    5   25 1
    12    6   27 1
    13    7    8 1
    14    7    9 1
    15    7   32 1
    16    7   33 1
    17    8   13 1
    18    8   34 1
    19    8   35 1
    20    9   23 1
    21    9   36 1
    22    9   37 1
    23   10   13 1
    24   10   23 1
    25   10   38 1
    26   10   39 1
    27   11   12 1
    28   11   26 1
    29   11   40 1
    30   11   41 1
    31   12   20 1
    32   12   24 1
    33   12   42 1
    34   13   15 1
    35   13   16 1
    36   14   17 1
    37   14   22 1
    38   14   24 1
    39   14   26 1
    40   15   43 1
    41   15   44 1
    42   15   45 1
    43   16   46 1
    44   16   47 1
    45   16   48 1
    46   17   49 1
    47   17   50 1
    48   17   51 1
    49   18   22 1
    50   18   52 1
    51   18   53 1
    52   18   54 1
    53   19   22 1
    54   19   55 1
    55   19   56 1
    56   19   57 1
    57   20   23 1
    58   20   58 1
    59   20   59 1
    60   21   22 1
    61   21   25 1
    62   21   60 1
    63   21   61 1
    64   23   62 1
