@<TRIPOS>MOLECULE
*****
   23    24     0     0     0
SMALL
NO_CHARGES

@<TRIPOS>ATOM
      1 C1         -2.8808   -7.7270   -0.5985 C.1       1 <0>         0.0000
      2 C2          0.9129   -5.2207    2.9823 C.2       1 <0>         0.0000
      3 C3         -2.1750   -5.2982   -0.5494 C.2       1 <0>         0.0000
      4 C4          1.5738   -4.6957    1.9479 C.2       1 <0>         0.0000
      5 C5         -4.3277   -5.8647    0.1192 C.2       1 <0>         0.0000
      6 C6         -3.1238   -6.3422   -0.3499 C.2       1 <0>         0.0000
      7 C7         -2.6901   -4.0622   -0.2255 C.2       1 <0>         0.0000
      8 C8         -0.5045   -4.7903    3.1925 C.2       1 <0>         0.0000
      9 C9         -0.3178   -3.4121    1.3139 C.2       1 <0>         0.0000
     10 C10        -2.0321   -2.7457   -0.2931 C.2       1 <0>         0.0000
     11 C11        -0.9549   -2.4364    0.3998 C.2       1 <0>         0.0000
     12 N1         -2.6832   -8.8525   -0.8006 N.1       1 <0>         0.0000
     13 N2         -1.0462   -3.8732    2.3019 N.2       1 <0>         0.0000
     14 N3          0.9889   -3.7985    1.1067 N.pl3     1 <0>         0.0000
     15 O1         -1.1288   -5.2626    4.1394 O.2       1 <0>         0.0000
     16 S1         -4.3111   -4.1638    0.3170 S.3       1 <0>         0.0000
     17 H1          1.3576   -5.9347    3.6631 H         1 <0>         0.0000
     18 H2         -1.1647   -5.4469   -0.9129 H         1 <0>         0.0000
     19 H3          2.6006   -4.9433    1.7127 H         1 <0>         0.0000
     20 H4         -5.2214   -6.4255    0.3578 H         1 <0>         0.0000
     21 H5         -2.5070   -2.0183   -0.9490 H         1 <0>         0.0000
     22 H6         -0.4462   -1.4987    0.3663 H         1 <0>         0.0000
     23 H7          1.5455   -3.4371    0.3399 H         1 <0>         0.0000
@<TRIPOS>BOND
     1    1    6 1
     2    1   12 3
     3    2    4 2
     4    2    8 1
     5    2   17 1
     6    3    6 1
     7    3    7 2
     8    3   18 1
     9    4   14 1
    10    4   19 1
    11    5    6 2
    12    5   16 1
    13    5   20 1
    14    7   10 1
    15    7   16 1
    16    8   13 1
    17    8   15 2
    18    9   11 1
    19    9   13 2
    20    9   14 1
    21   10   11 2
    22   10   21 1
    23   11   22 1
    24   14   23 1
