@<TRIPOS>MOLECULE
*****
   40    43     0     0     0
SMALL
NO_CHARGES

@<TRIPOS>ATOM
      1 C1         -1.5771   -1.2983    2.7192 C.ar      1 <0>         0.0000
      2 C2         -2.7661   -0.6558    2.3421 C.ar      1 <0>         0.0000
      3 C3         -0.4170   -1.1739    1.9447 C.ar      1 <0>         0.0000
      4 C4         -2.8148    0.1139    1.1828 C.ar      1 <0>         0.0000
      5 C5         -0.4474   -0.3996    0.7900 C.ar      1 <0>         0.0000
      6 C6         -1.6547    0.2109    0.4380 C.ar      1 <0>         0.0000
      7 C7          4.1214   -1.6333    2.5550 C.3       1 <0>         0.0000
      8 C8          5.5139   -2.0398    2.1595 C.3       1 <0>         0.0000
      9 C9          1.0798   -1.4023   -0.9482 C.3       1 <0>         0.0000
     10 C10         2.5580   -1.2463   -1.2949 C.3       1 <0>         0.0000
     11 C11         2.0004    0.2723    0.5180 C.3       1 <0>         0.0000
     12 C12         4.4585   -1.8551    1.1120 C.3       1 <0>         0.0000
     13 C13         0.6976   -0.1381   -0.1764 C.3       1 <0>         0.0000
     14 C14         0.9121    1.3319   -2.3132 C.3       1 <0>         0.0000
     15 N1          3.0774   -0.1720   -0.4077 N.pl3     1 <0>         0.0000
     16 N2          0.2034    0.9818   -1.0733 N.pl3     1 <0>         0.0000
     17 O1         -1.8929    2.4874   -0.7978 O.2       1 <0>         0.0000
     18 O2         -2.0954    0.3080   -2.0948 O.2       1 <0>         0.0000
     19 O3          4.8917    0.7206    1.1819 O.2       1 <0>         0.0000
     20 O4          5.5737   -0.5777   -0.8760 O.2       1 <0>         0.0000
     21 S1         -1.5110    1.1136   -1.0433 S.o2      1 <0>         0.0000
     22 S2          4.6479   -0.3335    0.2147 S.o2      1 <0>         0.0000
     23 H1         -1.5557   -1.8956    3.6266 H         1 <0>         0.0000
     24 H2         -3.6523   -0.7573    2.9624 H         1 <0>         0.0000
     25 H3          0.4880   -1.6772    2.2646 H         1 <0>         0.0000
     26 H4         -3.7301    0.6115    0.8843 H         1 <0>         0.0000
     27 H5          3.5034   -2.3751    3.0469 H         1 <0>         0.0000
     28 H6          3.9754   -0.6249    2.9217 H         1 <0>         0.0000
     29 H7          6.3021   -1.3040    2.2607 H         1 <0>         0.0000
     30 H8          5.8244   -3.0526    2.3874 H         1 <0>         0.0000
     31 H9          0.5233   -1.4934   -1.8952 H         1 <0>         0.0000
     32 H10         0.8922   -2.3369   -0.3930 H         1 <0>         0.0000
     33 H11         3.1055   -2.1861   -1.1237 H         1 <0>         0.0000
     34 H12         2.6891   -0.9652   -2.3510 H         1 <0>         0.0000
     35 H13         2.0973    1.3539    0.6356 H         1 <0>         0.0000
     36 H14         2.1128   -0.1825    1.5054 H         1 <0>         0.0000
     37 H15         4.0614   -2.7231    0.6059 H         1 <0>         0.0000
     38 H16         0.4037    2.1588   -2.8159 H         1 <0>         0.0000
     39 H17         0.9390    0.4726   -2.9887 H         1 <0>         0.0000
     40 H18         1.9387    1.6341   -2.0893 H         1 <0>         0.0000
@<TRIPOS>BOND
     1    1    2 ar
     2    1    3 ar
     3    1   23 1
     4    2    4 ar
     5    2   24 1
     6    3    5 ar
     7    3   25 1
     8    4    6 ar
     9    4   26 1
    10    5    6 ar
    11    5   13 1
    12    6   21 1
    13    7    8 1
    14    7   12 1
    15    7   27 1
    16    7   28 1
    17    8   12 1
    18    8   29 1
    19    8   30 1
    20    9   10 1
    21    9   13 1
    22    9   31 1
    23    9   32 1
    24   10   15 1
    25   10   33 1
    26   10   34 1
    27   11   13 1
    28   11   15 1
    29   11   35 1
    30   11   36 1
    31   12   22 1
    32   12   37 1
    33   13   16 1
    34   14   16 1
    35   14   38 1
    36   14   39 1
    37   14   40 1
    38   15   22 1
    39   16   21 1
    40   17   21 2
    41   18   21 2
    42   19   22 2
    43   20   22 2
