@<TRIPOS>MOLECULE
*****
   29    30     0     0     0
SMALL
NO_CHARGES

@<TRIPOS>ATOM
      1 C1          1.1343    2.5809   -1.6016 C.ar      1 <0>         0.0000
      2 C2          1.2449    3.9628   -1.7552 C.ar      1 <0>         0.0000
      3 C3          0.8100    2.8709    0.7749 C.ar      1 <0>         0.0000
      4 C4          0.9167    2.0349   -0.3366 C.ar      1 <0>         0.0000
      5 C5          0.9207    4.2529    0.6213 C.ar      1 <0>         0.0000
      6 C6          1.1382    4.7988   -0.6437 C.ar      1 <0>         0.0000
      7 C7         -0.2178   -1.5997   -0.7776 C.3       1 <0>         0.0000
      8 C8          0.2031   -0.2474   -1.3540 C.3       1 <0>         0.0000
      9 C9         -0.2183   -1.4403    0.7437 C.3       1 <0>         0.0000
     10 C10         0.7967    0.5337   -0.1702 C.3       1 <0>         0.0000
     11 C11        -0.0950    0.0603    0.9908 C.3       1 <0>         0.0000
     12 C12         0.7997    5.1142    1.8368 C.3       1 <0>         0.0000
     13 O1         -1.3854    0.6584    0.9039 O.3       1 <0>         0.0000
     14 Cl1         1.2801    6.5038   -0.8717 Cl        1 <0>         0.0000
     15 H1          1.2191    1.9372   -2.4730 H         1 <0>         0.0000
     16 H2          1.4147    4.3722   -2.7478 H         1 <0>         0.0000
     17 H3          0.6396    2.4431    1.7602 H         1 <0>         0.0000
     18 H4         -1.2097   -1.8804   -1.1482 H         1 <0>         0.0000
     19 H5          0.4789   -2.3902   -1.0773 H         1 <0>         0.0000
     20 H6          0.9244   -0.3593   -2.1707 H         1 <0>         0.0000
     21 H7         -0.6743    0.2669   -1.7674 H         1 <0>         0.0000
     22 H8         -1.1217   -1.8717    1.1860 H         1 <0>         0.0000
     23 H9          0.6524   -1.9606    1.1599 H         1 <0>         0.0000
     24 H10         1.8363    0.1485    0.0188 H         1 <0>         0.0000
     25 H11         0.3308    0.2913    1.9721 H         1 <0>         0.0000
     26 H12         1.7846    5.2674    2.2920 H         1 <0>         0.0000
     27 H13         0.3729    6.0929    1.5869 H         1 <0>         0.0000
     28 H14         0.1368    4.6565    2.5811 H         1 <0>         0.0000
     29 H15        -1.9312    0.2373    1.5859 H         1 <0>         0.0000
@<TRIPOS>BOND
     1    1    2 ar
     2    1    4 ar
     3    1   15 1
     4    2    6 ar
     5    2   16 1
     6    3    4 ar
     7    3    5 ar
     8    3   17 1
     9    4   10 1
    10    5    6 ar
    11    5   12 1
    12    6   14 1
    13    7    8 1
    14    7    9 1
    15    7   18 1
    16    7   19 1
    17    8   10 1
    18    8   20 1
    19    8   21 1
    20    9   11 1
    21    9   22 1
    22    9   23 1
    23   10   11 1
    24   10   24 1
    25   11   13 1
    26   11   25 1
    27   12   26 1
    28   12   27 1
    29   12   28 1
    30   13   29 1
