@<TRIPOS>MOLECULE
*****
   35    35     0     0     0
SMALL
NO_CHARGES

@<TRIPOS>ATOM
      1 C1          3.3773    1.0484   -3.9028 C.ar      1 <0>         0.0000
      2 C2          4.5677    1.5853   -4.4262 C.ar      1 <0>         0.0000
      3 C3          3.5988    2.4533   -1.9499 C.ar      1 <0>         0.0000
      4 C4          2.8804    1.4752   -2.6681 C.ar      1 <0>         0.0000
      5 C5          5.2765    2.5576   -3.7218 C.ar      1 <0>         0.0000
      6 C6          4.7835    2.9907   -2.4518 C.ar      1 <0>         0.0000
      7 C7          8.3104    3.4871   -5.5429 C.3       1 <0>         0.0000
      8 C8          0.3211    3.2133   -1.9887 C.3       1 <0>         0.0000
      9 C9          5.1518    4.3506   -0.5219 C.3       1 <0>         0.0000
     10 C10         1.5649    0.9430   -2.1440 C.3       1 <0>         0.0000
     11 C11         7.0254    2.7017   -5.3605 C.3       1 <0>         0.0000
     12 C12         0.3548    1.8050   -2.5706 C.3       1 <0>         0.0000
     13 N1          0.4048    1.9240   -4.0987 N.4       1 <0>         0.0000
     14 O1          5.5431    3.9151   -1.8255 O.3       1 <0>         0.0000
     15 O2          6.4269    3.1337   -4.1222 O.3       1 <0>         0.0000
     16 H1          2.8957    0.2309   -4.4383 H         1 <0>         0.0000
     17 H2          4.9420    1.2168   -5.3737 H         1 <0>         0.0000
     18 H3          3.2361    2.7697   -0.9782 H         1 <0>         0.0000
     19 H4          8.1055    4.5599   -5.5898 H         1 <0>         0.0000
     20 H5          8.9984    3.2991   -4.7146 H         1 <0>         0.0000
     21 H6          8.7971    3.1847   -6.4750 H         1 <0>         0.0000
     22 H7          1.2120    3.7841   -2.2630 H         1 <0>         0.0000
     23 H8         -0.5707    3.7611   -2.3110 H         1 <0>         0.0000
     24 H9          0.2863    3.1458   -0.8987 H         1 <0>         0.0000
     25 H10         5.9135    5.0643   -0.2103 H         1 <0>         0.0000
     26 H11         5.1258    3.5115    0.1827 H         1 <0>         0.0000
     27 H12         4.1751    4.8488   -0.5476 H         1 <0>         0.0000
     28 H13         1.5548    0.9064   -1.0507 H         1 <0>         0.0000
     29 H14         1.4065   -0.0852   -2.4893 H         1 <0>         0.0000
     30 H15         7.2227    1.6237   -5.3071 H         1 <0>         0.0000
     31 H16         6.3249    2.8897   -6.1845 H         1 <0>         0.0000
     32 H17        -0.5780    1.2801   -2.3495 H         1 <0>         0.0000
     33 H18         0.1622    1.0394   -4.5590 H         1 <0>         0.0000
     34 H19         1.3840    2.1464   -4.3694 H         1 <0>         0.0000
     35 H20        -0.2233    2.6529   -4.4552 H         1 <0>         0.0000
@<TRIPOS>BOND
     1    1    2 ar
     2    1    4 ar
     3    1   16 1
     4    2    5 ar
     5    2   17 1
     6    3    4 ar
     7    3    6 ar
     8    3   18 1
     9    4   10 1
    10    5    6 ar
    11    5   15 1
    12    6   14 1
    13    7   11 1
    14    7   19 1
    15    7   20 1
    16    7   21 1
    17    8   12 1
    18    8   22 1
    19    8   23 1
    20    8   24 1
    21    9   14 1
    22    9   25 1
    23    9   26 1
    24    9   27 1
    25   10   12 1
    26   10   28 1
    27   10   29 1
    28   11   15 1
    29   11   30 1
    30   11   31 1
    31   12   13 1
    32   12   32 1
    33   13   33 1
    34   13   34 1
    35   13   35 1
