@<TRIPOS>MOLECULE
*****
   34    34     0     0     0
SMALL
NO_CHARGES

@<TRIPOS>ATOM
      1 C1         -1.2506   -2.5692    2.6998 C.ar      1 <0>         0.0000
      2 C2         -1.4569   -3.9048    3.0717 C.ar      1 <0>         0.0000
      3 C3          0.7227   -2.4894    4.0625 C.ar      1 <0>         0.0000
      4 C4         -0.1595   -1.8413    3.1815 C.ar      1 <0>         0.0000
      5 C5         -0.5656   -4.5439    3.9395 C.ar      1 <0>         0.0000
      6 C6          0.5361   -3.8144    4.4439 C.ar      1 <0>         0.0000
      7 C7         -1.5820   -8.0445    4.3702 C.3       1 <0>         0.0000
      8 C8         -0.1621    2.0336    3.5222 C.3       1 <0>         0.0000
      9 C9          1.0132   -4.7444    6.5750 C.3       1 <0>         0.0000
     10 C10         0.0450   -0.3879    2.8197 C.3       1 <0>         0.0000
     11 C11        -1.7240   -6.6440    3.7992 C.3       1 <0>         0.0000
     12 C12        -0.4475    0.5825    3.9114 C.3       1 <0>         0.0000
     13 N1         -1.8993    0.4084    4.0898 N.3       1 <0>         0.0000
     14 O1          1.4751   -4.4090    5.2596 O.3       1 <0>         0.0000
     15 O2         -0.6644   -5.8494    4.3409 O.3       1 <0>         0.0000
     16 H1         -1.9547   -2.0935    2.0218 H         1 <0>         0.0000
     17 H2         -2.3094   -4.4390    2.6675 H         1 <0>         0.0000
     18 H3          1.5905   -1.9695    4.4621 H         1 <0>         0.0000
     19 H4         -0.6125   -8.4732    4.1010 H         1 <0>         0.0000
     20 H5         -1.6623   -8.0278    5.4612 H         1 <0>         0.0000
     21 H6         -2.3718   -8.6913    3.9745 H         1 <0>         0.0000
     22 H7         -0.6837    2.2870    2.5933 H         1 <0>         0.0000
     23 H8          0.9114    2.1974    3.3790 H         1 <0>         0.0000
     24 H9         -0.5047    2.7254    4.3009 H         1 <0>         0.0000
     25 H10         1.8754   -5.1578    7.1027 H         1 <0>         0.0000
     26 H11         0.2124   -5.4886    6.5381 H         1 <0>         0.0000
     27 H12         0.6616   -3.8460    7.0989 H         1 <0>         0.0000
     28 H13         1.1096   -0.1957    2.6429 H         1 <0>         0.0000
     29 H14        -0.4903   -0.1541    1.8930 H         1 <0>         0.0000
     30 H15        -2.6941   -6.2068    4.0719 H         1 <0>         0.0000
     31 H16        -1.6507   -6.6580    2.7036 H         1 <0>         0.0000
     32 H17         0.1150    0.3541    4.8341 H         1 <0>         0.0000
     33 H18        -2.2248    1.0129    4.8429 H         1 <0>         0.0000
     34 H19        -2.0928   -0.5491    4.3817 H         1 <0>         0.0000
@<TRIPOS>BOND
     1    1    2 ar
     2    1    4 ar
     3    1   16 1
     4    2    5 ar
     5    2   17 1
     6    3    4 ar
     7    3    6 ar
     8    3   18 1
     9    4   10 1
    10    5    6 ar
    11    5   15 1
    12    6   14 1
    13    7   11 1
    14    7   19 1
    15    7   20 1
    16    7   21 1
    17    8   12 1
    18    8   22 1
    19    8   23 1
    20    8   24 1
    21    9   14 1
    22    9   25 1
    23    9   26 1
    24    9   27 1
    25   10   12 1
    26   10   28 1
    27   10   29 1
    28   11   15 1
    29   11   30 1
    30   11   31 1
    31   12   13 1
    32   12   32 1
    33   13   33 1
    34   13   34 1
