@<TRIPOS>MOLECULE
*****
   35    35     0     0     0
SMALL
NO_CHARGES

@<TRIPOS>ATOM
      1 C1          2.8767    1.0125   -3.6842 C.ar      1 <0>         0.0000
      2 C2          4.0937    1.5226   -4.1579 C.ar      1 <0>         0.0000
      3 C3          3.2444    2.1165   -1.5747 C.ar      1 <0>         0.0000
      4 C4          2.4381    1.3008   -2.3873 C.ar      1 <0>         0.0000
      5 C5          4.9057    2.3174   -3.3396 C.ar      1 <0>         0.0000
      6 C6          4.4599    2.6311   -2.0242 C.ar      1 <0>         0.0000
      7 C7          7.9395    3.2682   -5.1684 C.3       1 <0>         0.0000
      8 C8          0.2393   -1.1840   -0.3288 C.3       1 <0>         0.0000
      9 C9          5.7460    4.6262   -1.5547 C.3       1 <0>         0.0000
     10 C10         1.1643    0.6966   -1.8367 C.3       1 <0>         0.0000
     11 C11         6.5994    2.5692   -5.0368 C.3       1 <0>         0.0000
     12 C12         1.4543   -0.3930   -0.7905 C.3       1 <0>         0.0000
     13 N1          2.4843   -1.3484   -1.4048 N.4       1 <0>         0.0000
     14 O1          5.1866    3.3596   -1.1356 O.3       1 <0>         0.0000
     15 O2          6.1144    2.8098   -3.6992 O.3       1 <0>         0.0000
     16 H1          2.2588    0.4183   -4.3545 H         1 <0>         0.0000
     17 H2          4.4054    1.2847   -5.1679 H         1 <0>         0.0000
     18 H3          2.9355    2.3927   -0.5689 H         1 <0>         0.0000
     19 H4          7.8318    4.3462   -5.0205 H         1 <0>         0.0000
     20 H5          8.6525    2.8824   -4.4349 H         1 <0>         0.0000
     21 H6          8.3463    3.0969   -6.1695 H         1 <0>         0.0000
     22 H7         -0.2687   -1.6659   -1.1713 H         1 <0>         0.0000
     23 H8          0.4972   -1.9453    0.4141 H         1 <0>         0.0000
     24 H9         -0.4729   -0.4981    0.1363 H         1 <0>         0.0000
     25 H10         5.9121    5.1844   -0.6327 H         1 <0>         0.0000
     26 H11         5.0366    5.1667   -2.1891 H         1 <0>         0.0000
     27 H12         6.6862    4.4809   -2.0862 H         1 <0>         0.0000
     28 H13         0.5568    0.2734   -2.6454 H         1 <0>         0.0000
     29 H14         0.5446    1.4510   -1.3412 H         1 <0>         0.0000
     30 H15         6.7000    1.4878   -5.1928 H         1 <0>         0.0000
     31 H16         5.8736    2.9627   -5.7587 H         1 <0>         0.0000
     32 H17         1.9804    0.0484    0.0596 H         1 <0>         0.0000
     33 H18         3.2237   -0.7827   -1.8595 H         1 <0>         0.0000
     34 H19         2.0572   -1.9323   -2.1335 H         1 <0>         0.0000
     35 H20         2.9075   -1.9710   -0.7078 H         1 <0>         0.0000
@<TRIPOS>BOND
     1    1    2 ar
     2    1    4 ar
     3    1   16 1
     4    2    5 ar
     5    2   17 1
     6    3    4 ar
     7    3    6 ar
     8    3   18 1
     9    4   10 1
    10    5    6 ar
    11    5   15 1
    12    6   14 1
    13    7   11 1
    14    7   19 1
    15    7   20 1
    16    7   21 1
    17    8   12 1
    18    8   22 1
    19    8   23 1
    20    8   24 1
    21    9   14 1
    22    9   25 1
    23    9   26 1
    24    9   27 1
    25   10   12 1
    26   10   28 1
    27   10   29 1
    28   11   15 1
    29   11   30 1
    30   11   31 1
    31   12   13 1
    32   12   32 1
    33   13   33 1
    34   13   34 1
    35   13   35 1
