@<TRIPOS>MOLECULE
*****
   18    18     0     0     0
SMALL
NO_CHARGES

@<TRIPOS>ATOM
      1 C1          1.8851   -1.0363   -0.1124 C.ar      1 <0>         0.0000
      2 C2          2.9210   -1.6309    0.6081 C.ar      1 <0>         0.0000
      3 C3          0.8066   -0.4630    0.5610 C.ar      1 <0>         0.0000
      4 C4          2.8783   -1.6520    2.0022 C.ar      1 <0>         0.0000
      5 C5          0.7638   -0.4841    1.9551 C.ar      1 <0>         0.0000
      6 C6          1.7997   -1.0786    2.6757 C.ar      1 <0>         0.0000
      7 C7          2.4198    0.1274    4.7831 C.3       1 <0>         0.0000
      8 C8          1.7548   -1.1014    4.1663 C.3       1 <0>         0.0000
      9 F1          2.3800   -2.1930    4.7152 F         1 <0>         0.0000
     10 H1          1.9176   -1.0210   -1.1980 H         1 <0>         0.0000
     11 H2          3.7604   -2.0783    0.0841 H         1 <0>         0.0000
     12 H3         -0.0006   -0.0010    0.0001 H         1 <0>         0.0000
     13 H4          3.6899   -2.1173    2.5553 H         1 <0>         0.0000
     14 H5         -0.0804   -0.0348    2.4713 H         1 <0>         0.0000
     15 H6          3.4627    0.2073    4.4564 H         1 <0>         0.0000
     16 H7          1.9123    1.0426    4.4617 H         1 <0>         0.0000
     17 H8          2.4043    0.0862    5.8769 H         1 <0>         0.0000
     18 H9          0.7105   -1.1559    4.5114 H         1 <0>         0.0000
@<TRIPOS>BOND
     1    1    3 ar
     2    1    2 ar
     3    1   10 1
     4    2    4 ar
     5    2   11 1
     6    3    5 ar
     7    3   12 1
     8    4    6 ar
     9    4   13 1
    10    5    6 ar
    11    5   14 1
    12    6    8 1
    13    7    8 1
    14    7   15 1
    15    7   16 1
    16    7   17 1
    17    8    9 1
    18    8   18 1
