@<TRIPOS>MOLECULE
*****
   66    70     0     0     0
SMALL
NO_CHARGES

@<TRIPOS>ATOM
      1 C1          1.4606    2.8158   -9.3780 C.ar      1 <0>         0.0000
      2 C2         -0.5368    1.4946   -9.8051 C.ar      1 <0>         0.0000
      3 C3          0.9815    3.7968  -10.2447 C.ar      1 <0>         0.0000
      4 C4         -0.9927    2.4671  -10.6914 C.ar      1 <0>         0.0000
      5 C5          0.0618    6.8658   -7.9124 C.ar      1 <0>         0.0000
      6 C6         -0.6700    6.8795   -9.0938 C.ar      1 <0>         0.0000
      7 C7         -1.7568    4.8068   -8.4200 C.ar      1 <0>         0.0000
      8 C8         -1.0099    4.7675   -7.2420 C.ar      1 <0>         0.0000
      9 C9          0.6845    1.6755   -9.1445 C.ar      1 <0>         0.0000
     10 C10        -0.2499    3.6390  -10.8962 C.ar      1 <0>         0.0000
     11 C11        -0.0617    5.7851   -7.0237 C.ar      1 <0>         0.0000
     12 C12        -1.5574    5.8258   -9.3504 C.ar      1 <0>         0.0000
     13 C13         1.9179    0.8463   -7.0967 C.2       1 <0>         0.0000
     14 C14         2.0788    4.4583   -4.3778 C.2       1 <0>         0.0000
     15 C15        -1.1684    3.6147   -6.2716 C.3       1 <0>         0.0000
     16 C16        -0.2507    3.7676   -5.0530 C.3       1 <0>         0.0000
     17 C17         8.5269   -2.1031   -6.2448 C.3       1 <0>         0.0000
     18 C18         8.5994   -1.2784   -7.5656 C.3       1 <0>         0.0000
     19 C19         7.1213   -1.8379   -5.6575 C.3       1 <0>         0.0000
     20 C20         7.2377   -0.5588   -7.6840 C.3       1 <0>         0.0000
     21 C21         1.0585    4.4156   -5.5114 C.3       1 <0>         0.0000
     22 C22         6.2619   -1.4244   -6.8670 C.3       1 <0>         0.0000
     23 C23         4.9511   -0.7139   -6.5234 C.3       1 <0>         0.0000
     24 C24         3.9587   -1.5967   -5.7582 C.3       1 <0>         0.0000
     25 C25         2.6556   -0.8807   -5.3928 C.3       1 <0>         0.0000
     26 N1          0.7056   -0.6168   -8.3227 N.2       1 <0>         0.0000
     27 N2          1.1862   -1.2711   -7.3378 N.2       1 <0>         0.0000
     28 N3          1.1266    0.6850   -8.2217 N.am      1 <0>         0.0000
     29 N4          1.9189   -0.4209   -6.5695 N.am      1 <0>         0.0000
     30 N5         -0.7927    4.6769  -11.7055 N.pl3     1 <0>         0.0000
     31 O1          2.4782    1.8632   -6.6679 O.2       1 <0>         0.0000
     32 O2          2.1530    5.3465   -3.5636 O.2       1 <0>         0.0000
     33 O3         -2.1612    6.8060  -11.7644 O.2       1 <0>         0.0000
     34 O4         -3.2567    4.6220  -10.9756 O.2       1 <0>         0.0000
     35 O5          0.8028    5.7525   -5.9659 O.3       1 <0>         0.0000
     36 O6          2.8646    3.3549   -4.3135 O.3       1 <0>         0.0000
     37 S1         -2.1307    5.5517  -11.0136 S.o2      1 <0>         0.0000
     38 H1          2.4059    2.9498   -8.8658 H         1 <0>         0.0000
     39 H2         -1.1186    0.5967   -9.6280 H         1 <0>         0.0000
     40 H3          1.5555    4.7090  -10.3849 H         1 <0>         0.0000
     41 H4         -1.9440    2.3497  -11.1988 H         1 <0>         0.0000
     42 H5          0.7768    7.6496   -7.6813 H         1 <0>         0.0000
     43 H6         -0.5424    7.6752   -9.8216 H         1 <0>         0.0000
     44 H7         -2.4658    4.0145   -8.6388 H         1 <0>         0.0000
     45 H8         -2.2143    3.5385   -5.9558 H         1 <0>         0.0000
     46 H9         -0.9347    2.6831   -6.8008 H         1 <0>         0.0000
     47 H10        -0.6955    4.4209   -4.2965 H         1 <0>         0.0000
     48 H11        -0.0587    2.7973   -4.5855 H         1 <0>         0.0000
     49 H12         8.6544   -3.1697   -6.4555 H         1 <0>         0.0000
     50 H13         9.3159   -1.8261   -5.5397 H         1 <0>         0.0000
     51 H14         9.4325   -0.5696   -7.5658 H         1 <0>         0.0000
     52 H15         8.7527   -1.9444   -8.4208 H         1 <0>         0.0000
     53 H16         6.7250   -2.7047   -5.1191 H         1 <0>         0.0000
     54 H17         7.1565   -1.0019   -4.9460 H         1 <0>         0.0000
     55 H18         7.2933    0.4387   -7.2289 H         1 <0>         0.0000
     56 H19         6.9160   -0.4229   -8.7219 H         1 <0>         0.0000
     57 H20         1.4692    3.8517   -6.3539 H         1 <0>         0.0000
     58 H21         6.0295   -2.3276   -7.4516 H         1 <0>         0.0000
     59 H22         5.1710    0.1855   -5.9331 H         1 <0>         0.0000
     60 H23         4.4860   -0.3628   -7.4535 H         1 <0>         0.0000
     61 H24         3.7193   -2.4925   -6.3435 H         1 <0>         0.0000
     62 H25         4.4064   -1.9422   -4.8200 H         1 <0>         0.0000
     63 H26         2.8509    0.0109   -4.7917 H         1 <0>         0.0000
     64 H27         1.9857   -1.5362   -4.8315 H         1 <0>         0.0000
     65 H28        -0.0985    5.3700  -11.9830 H         1 <0>         0.0000
     66 H29         2.7459    2.7891   -5.1100 H         1 <0>         0.0000
@<TRIPOS>BOND
     1    1    3 ar
     2    1    9 ar
     3    1   38 1
     4    2    4 ar
     5    2    9 ar
     6    2   39 1
     7    3   10 ar
     8    3   40 1
     9    4   10 ar
    10    4   41 1
    11    5    6 ar
    12    5   11 ar
    13    5   42 1
    14    6   12 ar
    15    6   43 1
    16    7    8 ar
    17    7   12 ar
    18    7   44 1
    19    8   11 ar
    20    8   15 1
    21    9   28 1
    22   10   30 1
    23   11   35 1
    24   12   37 1
    25   13   28 am
    26   13   29 am
    27   13   31 2
    28   14   21 1
    29   14   32 2
    30   14   36 1
    31   15   16 1
    32   15   45 1
    33   15   46 1
    34   16   21 1
    35   16   47 1
    36   16   48 1
    37   17   18 1
    38   17   19 1
    39   17   49 1
    40   17   50 1
    41   18   20 1
    42   18   51 1
    43   18   52 1
    44   19   22 1
    45   19   53 1
    46   19   54 1
    47   20   22 1
    48   20   55 1
    49   20   56 1
    50   21   35 1
    51   21   57 1
    52   22   23 1
    53   22   58 1
    54   23   24 1
    55   23   59 1
    56   23   60 1
    57   24   25 1
    58   24   61 1
    59   24   62 1
    60   25   29 1
    61   25   63 1
    62   25   64 1
    63   26   27 2
    64   26   28 1
    65   27   29 1
    66   30   37 1
    67   30   65 1
    68   33   37 2
    69   34   37 2
    70   36   66 1
