@<TRIPOS>MOLECULE
*****
   46    50     0     0     0
SMALL
NO_CHARGES

@<TRIPOS>ATOM
      1 C1         -0.7861    3.9840    4.0473 C.ar      1 <0>         0.0000
      2 C2          1.4307   -2.3004    0.2171 C.ar      1 <0>         0.0000
      3 C3         -1.4601    3.1694    3.1351 C.ar      1 <0>         0.0000
      4 C4          0.2853   -1.6672    0.6974 C.ar      1 <0>         0.0000
      5 C5         -0.8019    3.6862    5.4134 C.ar      1 <0>         0.0000
      6 C6          1.7385   -0.1888    1.9519 C.ar      1 <0>         0.0000
      7 C7          4.8917   -1.9804   -0.7480 C.ar      1 <0>         0.0000
      8 C8         -2.1654    1.7249    4.9404 C.ar      1 <0>         0.0000
      9 C9          3.8750   -4.0458   -0.0842 C.ar      1 <0>         0.0000
     10 C10         5.7809   -4.1504   -1.3522 C.ar      1 <0>         0.0000
     11 C11         2.7338   -1.9092    0.5695 C.ar      1 <0>         0.0000
     12 C12         2.8973   -0.8273    1.4756 C.ar      1 <0>         0.0000
     13 C13         3.8562   -2.6410   -0.0718 C.ar      1 <0>         0.0000
     14 C14        -2.1534    2.0292    3.5718 C.ar      1 <0>         0.0000
     15 C15         0.4544   -0.5862    1.5748 C.ar      1 <0>         0.0000
     16 C16         5.8404   -2.7589   -1.3855 C.ar      1 <0>         0.0000
     17 C17        -1.5016    2.5573    5.8415 C.ar      1 <0>         0.0000
     18 C18         4.1808   -0.3286    1.9829 C.2       1 <0>         0.0000
     19 C19        -1.9528    0.0909    1.8518 C.2       1 <0>         0.0000
     20 C20        -4.2418    0.6614    2.8382 C.3       1 <0>         0.0000
     21 C21        -3.9658    1.6562    1.7468 C.3       1 <0>         0.0000
     22 C22        -2.8129    1.1135    2.5844 C.3       1 <0>         0.0000
     23 N1          4.2828    0.8516    2.6381 N.2       1 <0>         0.0000
     24 N2          4.8030   -4.7918   -0.7019 N.ar      1 <0>         0.0000
     25 N3          5.3725   -0.9574    1.9115 N.2       1 <0>         0.0000
     26 N4          5.5771    0.9460    2.9703 N.2       1 <0>         0.0000
     27 N5          6.2296   -0.1368    2.5393 N.2       1 <0>         0.0000
     28 N6         -0.6205    0.1554    2.1307 N.am      1 <0>         0.0000
     29 O1         -2.4699   -0.7079    1.0655 O.2       1 <0>         0.0000
     30 F1          6.8548   -2.1619   -2.0738 F         1 <0>         0.0000
     31 Cl1        -1.5420    2.1684    7.5575 Cl        1 <0>         0.0000
     32 H1         -0.2345    4.8523    3.6977 H         1 <0>         0.0000
     33 H2          1.3111   -3.1170   -0.4905 H         1 <0>         0.0000
     34 H3         -1.4390    3.4037    2.0741 H         1 <0>         0.0000
     35 H4         -0.7036   -1.9816    0.3942 H         1 <0>         0.0000
     36 H5         -0.2764    4.3099    6.1292 H         1 <0>         0.0000
     37 H6          1.8823    0.6390    2.6420 H         1 <0>         0.0000
     38 H7          4.9601   -0.8991   -0.7680 H         1 <0>         0.0000
     39 H8         -2.6838    0.8397    5.2953 H         1 <0>         0.0000
     40 H9          3.1028   -4.5941    0.4524 H         1 <0>         0.0000
     41 H10         6.5399   -4.7459   -1.8571 H         1 <0>         0.0000
     42 H11        -4.7152    1.0193    3.7475 H         1 <0>         0.0000
     43 H12        -4.4791   -0.3534    2.5381 H         1 <0>         0.0000
     44 H13        -4.0198    1.3026    0.7227 H         1 <0>         0.0000
     45 H14        -4.2414    2.6931    1.9151 H         1 <0>         0.0000
     46 H15        -0.3319    0.8693    2.7880 H         1 <0>         0.0000
@<TRIPOS>BOND
     1    1    3 ar
     2    1    5 ar
     3    1   32 1
     4    2    4 ar
     5    2   11 ar
     6    2   33 1
     7    3   14 ar
     8    3   34 1
     9    4   15 ar
    10    4   35 1
    11    5   17 ar
    12    5   36 1
    13    6   12 ar
    14    6   15 ar
    15    6   37 1
    16    7   13 ar
    17    7   16 ar
    18    7   38 1
    19    8   14 ar
    20    8   17 ar
    21    8   39 1
    22    9   13 ar
    23    9   24 ar
    24    9   40 1
    25   10   16 ar
    26   10   24 ar
    27   10   41 1
    28   11   12 ar
    29   11   13 1
    30   12   18 1
    31   14   22 1
    32   15   28 1
    33   16   30 1
    34   17   31 1
    35   18   23 1
    36   18   25 2
    37   19   22 1
    38   19   28 am
    39   19   29 2
    40   20   21 1
    41   20   22 1
    42   20   42 1
    43   20   43 1
    44   21   22 1
    45   21   44 1
    46   21   45 1
    47   23   26 1
    48   25   27 1
    49   26   27 2
    50   28   46 1
