@<TRIPOS>MOLECULE
*****
   32    32     0     0     0
SMALL
NO_CHARGES

@<TRIPOS>ATOM
      1 C1         -1.2162   -1.0757   -1.4264 C.3       1 <0>         0.0000
      2 C2         -0.2521   -2.2408   -1.7832 C.3       1 <0>         0.0000
      3 C3         -0.6507   -0.5005   -0.1135 C.3       1 <0>         0.0000
      4 C4          0.7725   -2.2796   -0.6265 C.3       1 <0>         0.0000
      5 C5          1.2566   -3.6796   -0.2412 C.3       1 <0>         0.0000
      6 C6          2.1415   -8.3623   -0.0945 C.3       1 <0>         0.0000
      7 C7          2.0232   -4.3417   -1.3836 C.3       1 <0>         0.0000
      8 C8          1.5300   -7.0044   -0.4374 C.3       1 <0>         0.0000
      9 C9          1.0783   -9.3591    0.3141 C.3       1 <0>         0.0000
     10 N1          0.0359   -1.6565    0.4806 N.3       1 <0>         0.0000
     11 O1          3.6646   -5.5986    0.3221 O.2       1 <0>         0.0000
     12 O2          3.5353   -6.4226   -2.0930 O.2       1 <0>         0.0000
     13 F1          0.3895   -8.9459    1.4098 F         1 <0>         0.0000
     14 F2          0.1655   -9.5598   -0.6725 F         1 <0>         0.0000
     15 F3          1.6219  -10.5612    0.6100 F         1 <0>         0.0000
     16 S1          2.8792   -5.8666   -0.8963 S.o2      1 <0>         0.0000
     17 H1         -1.2675   -0.3166   -2.2112 H         1 <0>         0.0000
     18 H2         -2.2284   -1.4559   -1.2676 H         1 <0>         0.0000
     19 H3         -0.7994   -3.1880   -1.8325 H         1 <0>         0.0000
     20 H4          0.2412   -2.0964   -2.7482 H         1 <0>         0.0000
     21 H5          0.0405    0.3314   -0.3345 H         1 <0>         0.0000
     22 H6         -1.4284   -0.1252    0.5583 H         1 <0>         0.0000
     23 H7          1.6530   -1.6749   -0.9168 H         1 <0>         0.0000
     24 H8          0.3819   -4.2743    0.0422 H         1 <0>         0.0000
     25 H9          1.9102   -3.6159    0.6353 H         1 <0>         0.0000
     26 H10         2.8456   -8.2685    0.7357 H         1 <0>         0.0000
     27 H11         2.6748   -8.7738   -0.9543 H         1 <0>         0.0000
     28 H12         1.3935   -4.6030   -2.2383 H         1 <0>         0.0000
     29 H13         2.8424   -3.7107   -1.7450 H         1 <0>         0.0000
     30 H14         0.8545   -7.0698   -1.2937 H         1 <0>         0.0000
     31 H15         1.0117   -6.5691    0.4188 H         1 <0>         0.0000
     32 H16         0.6625   -1.3773    1.2330 H         1 <0>         0.0000
@<TRIPOS>BOND
     1    1    2 1
     2    1    3 1
     3    1   17 1
     4    1   18 1
     5    2    4 1
     6    2   19 1
     7    2   20 1
     8    3   10 1
     9    3   21 1
    10    3   22 1
    11    4    5 1
    12    4   10 1
    13    4   23 1
    14    5    7 1
    15    5   24 1
    16    5   25 1
    17    6    8 1
    18    6    9 1
    19    6   26 1
    20    6   27 1
    21    7   16 1
    22    7   28 1
    23    7   29 1
    24    8   16 1
    25    8   30 1
    26    8   31 1
    27    9   13 1
    28    9   14 1
    29    9   15 1
    30   10   32 1
    31   11   16 2
    32   12   16 2
