@<TRIPOS>MOLECULE
*****
   30    32     0     0     0
SMALL
NO_CHARGES

@<TRIPOS>ATOM
      1 C1          0.0027   -0.5178    5.9578 C.ar      1 <0>         0.0000
      2 C2         -0.4514   -0.5310    4.6406 C.ar      1 <0>         0.0000
      3 C3          1.3728   -0.5710    6.2118 C.ar      1 <0>         0.0000
      4 C4          0.5515   -0.5983    3.6886 C.ar      1 <0>         0.0000
      5 C5          1.8991   -0.6488    4.0054 C.ar      1 <0>         0.0000
      6 C6          1.7377   -0.6944    1.9097 C.2       1 <0>         0.0000
      7 C7          3.0973   -1.4436    0.0030 C.3       1 <0>         0.0000
      8 C8          0.7537   -0.7086   -0.3650 C.3       1 <0>         0.0000
      9 C9          3.4272   -0.9673   -1.4135 C.3       1 <0>         0.0000
     10 C10         1.1590   -0.2571   -1.7703 C.3       1 <0>         0.0000
     11 C11         2.5985   -0.6737   -3.6556 C.3       1 <0>         0.0000
     12 N1          2.3571   -0.6369    5.2806 N.ar      1 <0>         0.0000
     13 N2          2.6483   -0.7100    2.8599 N.2       1 <0>         0.0000
     14 N3          1.9200   -0.7367    0.5229 N.pl3     1 <0>         0.0000
     15 N4          2.2568   -1.0796   -2.2928 N.3       1 <0>         0.0000
     16 O1          0.4411   -0.6277    2.3301 O.3       1 <0>         0.0000
     17 H1         -0.7045   -0.4666    6.7796 H         1 <0>         0.0000
     18 H2         -1.5019   -0.4917    4.3854 H         1 <0>         0.0000
     19 H3          1.7296   -0.5613    7.2385 H         1 <0>         0.0000
     20 H4          2.9034   -2.5241    0.0015 H         1 <0>         0.0000
     21 H5          3.9663   -1.2647    0.6486 H         1 <0>         0.0000
     22 H6         -0.0063   -0.0189    0.0230 H         1 <0>         0.0000
     23 H7          0.3016   -1.7082   -0.4063 H         1 <0>         0.0000
     24 H8          3.7989    0.0658   -1.3794 H         1 <0>         0.0000
     25 H9          4.2421   -1.5917   -1.8003 H         1 <0>         0.0000
     26 H10         0.2825   -0.3509   -2.4230 H         1 <0>         0.0000
     27 H11         1.4355    0.8059   -1.7515 H         1 <0>         0.0000
     28 H12         3.4162   -1.2904   -4.0375 H         1 <0>         0.0000
     29 H13         2.9111    0.3739   -3.6708 H         1 <0>         0.0000
     30 H14         1.7328   -0.7906   -4.3131 H         1 <0>         0.0000
@<TRIPOS>BOND
     1    1    2 ar
     2    1    3 ar
     3    1   17 1
     4    2    4 ar
     5    2   18 1
     6    3   12 ar
     7    3   19 1
     8    4    5 ar
     9    4   16 1
    10    5   12 ar
    11    5   13 1
    12    6   13 2
    13    6   14 1
    14    6   16 1
    15    7    9 1
    16    7   14 1
    17    7   20 1
    18    7   21 1
    19    8   10 1
    20    8   14 1
    21    8   22 1
    22    8   23 1
    23    9   15 1
    24    9   24 1
    25    9   25 1
    26   10   15 1
    27   10   26 1
    28   10   27 1
    29   11   15 1
    30   11   28 1
    31   11   29 1
    32   11   30 1
