@<TRIPOS>MOLECULE
*****
   40    42     0     0     0
SMALL
NO_CHARGES

@<TRIPOS>ATOM
      1 C1         -2.2168    1.5204   -1.6037 C.ar      1 <0>         0.0000
      2 C2         -3.1409    2.5589   -1.7180 C.ar      1 <0>         0.0000
      3 C3         -4.6568    3.4646    5.0112 C.2       1 <0>         0.0000
      4 C4         -2.0189    0.8952   -0.3726 C.ar      1 <0>         0.0000
      5 C5         -3.6690    2.3473    0.6301 C.ar      1 <0>         0.0000
      6 C6         -3.8670    2.9724   -0.6011 C.ar      1 <0>         0.0000
      7 C7         -2.7449    1.3087    0.7443 C.ar      1 <0>         0.0000
      8 C8         -0.2092   -1.5900   -2.2406 C.2       1 <0>         0.0000
      9 C9         -1.5341   -2.6638   -0.3790 C.2       1 <0>         0.0000
     10 C10        -1.0380   -0.1912   -0.3059 C.2       1 <0>         0.0000
     11 C11        -0.2630   -2.8874   -3.0176 C.3       1 <0>         0.0000
     12 C12        -1.5810   -3.9554   -1.1659 C.3       1 <0>         0.0000
     13 C13        -0.3557   -4.0659   -2.0604 C.3       1 <0>         0.0000
     14 C14        -1.2827   -1.3892   -1.1770 C.3       1 <0>         0.0000
     15 C15        -6.2731    2.6795    3.2128 C.3       1 <0>         0.0000
     16 C16        -5.6284    2.1092    1.9567 C.3       1 <0>         0.0000
     17 N1         -4.0605    2.9024    6.0373 N.2       1 <0>         0.0000
     18 N2         -4.4813    1.5917    6.0388 N.2       1 <0>         0.0000
     19 N3         -5.3179    1.3581    5.0349 N.2       1 <0>         0.0000
     20 N4         -5.4259    2.5303    4.3941 N.pl3     1 <0>         0.0000
     21 O1          0.6073   -0.7170   -2.5339 O.2       1 <0>         0.0000
     22 O2         -1.7822   -2.6543    0.8265 O.2       1 <0>         0.0000
     23 O3         -0.0431   -0.1871    0.4115 O.2       1 <0>         0.0000
     24 O4         -4.3810    2.7561    1.7213 O.3       1 <0>         0.0000
     25 Cl1        -5.0007    4.2619   -0.7764 Cl        1 <0>         0.0000
     26 Cl2        -2.5054    0.5382    2.2776 Cl        1 <0>         0.0000
     27 H1         -1.6578    1.2075   -2.4822 H         1 <0>         0.0000
     28 H2         -3.2829    3.0364   -2.6843 H         1 <0>         0.0000
     29 H3         -4.5704    4.4916    4.6883 H         1 <0>         0.0000
     30 H4         -1.1376   -2.8693   -3.6648 H         1 <0>         0.0000
     31 H5          0.6407   -2.9576   -3.6208 H         1 <0>         0.0000
     32 H6         -1.6119   -4.7825   -0.4584 H         1 <0>         0.0000
     33 H7         -2.4825   -3.9584   -1.7755 H         1 <0>         0.0000
     34 H8          0.5502   -4.1115   -1.4420 H         1 <0>         0.0000
     35 H9         -0.3975   -5.0046   -2.6312 H         1 <0>         0.0000
     36 H10        -2.2196   -1.1872   -1.7267 H         1 <0>         0.0000
     37 H11        -7.2280    2.1853    3.4266 H         1 <0>         0.0000
     38 H12        -6.4691    3.7510    3.0907 H         1 <0>         0.0000
     39 H13        -5.4316    1.0412    2.0936 H         1 <0>         0.0000
     40 H14        -6.2650    2.2414    1.0758 H         1 <0>         0.0000
@<TRIPOS>BOND
     1    1    2 ar
     2    1    4 ar
     3    1   27 1
     4    2    6 ar
     5    2   28 1
     6    3   17 2
     7    3   20 1
     8    3   29 1
     9    4    7 ar
    10    4   10 1
    11    5    6 ar
    12    5    7 ar
    13    5   24 1
    14    6   25 1
    15    7   26 1
    16    8   11 1
    17    8   14 1
    18    8   21 2
    19    9   12 1
    20    9   14 1
    21    9   22 2
    22   10   14 1
    23   10   23 2
    24   11   13 1
    25   11   30 1
    26   11   31 1
    27   12   13 1
    28   12   32 1
    29   12   33 1
    30   13   34 1
    31   13   35 1
    32   14   36 1
    33   15   16 1
    34   15   20 1
    35   15   37 1
    36   15   38 1
    37   16   24 1
    38   16   39 1
    39   16   40 1
    40   17   18 1
    41   18   19 2
    42   19   20 1
