@<TRIPOS>MOLECULE
*****
   21    22     0     0     0
SMALL
NO_CHARGES

@<TRIPOS>ATOM
      1 C1          0.1298    2.0977   -0.4527 C.ar      1 <0>         0.0000
      2 C2         -0.5812    3.2417   -0.8037 C.ar      1 <0>         0.0000
      3 C3         -0.5469    0.8976   -0.2738 C.ar      1 <0>         0.0000
      4 C4         -2.7151    4.3237   -1.3301 C.ar      1 <0>         0.0000
      5 C5         -1.9747    3.1875   -0.9770 C.ar      1 <0>         0.0000
      6 C6         -2.6683    1.9725   -0.7968 C.ar      1 <0>         0.0000
      7 C7         -1.9323    0.8440   -0.4461 C.ar      1 <0>         0.0000
      8 C8         -4.0902    4.2376   -1.4936 C.ar      1 <0>         0.0000
      9 C9         -4.6804    3.0058   -1.2959 C.ar      1 <0>         0.0000
     10 C10        -3.0228   -0.6441    1.0545 C.3       1 <0>         0.0000
     11 N1         -4.0027    1.8858   -0.9548 N.ar      1 <0>         0.0000
     12 O1         -2.5625   -0.3551   -0.2617 O.3       1 <0>         0.0000
     13 Cl1        -6.3729    2.7287   -1.4571 Cl        1 <0>         0.0000
     14 Br1        -5.0520    5.7948   -1.9703 Br        1 <0>         0.0000
     15 H1          1.2064    2.1433   -0.3201 H         1 <0>         0.0000
     16 H2         -0.0416    4.1758   -0.9417 H         1 <0>         0.0000
     17 H3          0.0070    0.0034   -0.0003 H         1 <0>         0.0000
     18 H4         -2.2063    5.2750   -1.4755 H         1 <0>         0.0000
     19 H5         -3.5045   -1.6249    1.0658 H         1 <0>         0.0000
     20 H6         -3.7316    0.1254    1.3708 H         1 <0>         0.0000
     21 H7         -2.1689   -0.6522    1.7360 H         1 <0>         0.0000
@<TRIPOS>BOND
     1    1    2 ar
     2    1    3 ar
     3    1   15 1
     4    2    5 ar
     5    2   16 1
     6    3    7 ar
     7    3   17 1
     8    4    5 ar
     9    4    8 ar
    10    4   18 1
    11    5    6 ar
    12    6    7 ar
    13    6   11 ar
    14    7   12 1
    15    8    9 ar
    16    8   14 1
    17    9   11 ar
    18    9   13 1
    19   10   12 1
    20   10   19 1
    21   10   20 1
    22   10   21 1
