@<TRIPOS>MOLECULE
*****
   48    51     0     0     0
SMALL
NO_CHARGES

@<TRIPOS>ATOM
      1 C1          3.1588   -3.8436   -2.4342 C.ar      1 <0>         0.0000
      2 C2          4.7334   -2.2060   -1.6312 C.ar      1 <0>         0.0000
      3 C3          2.8514   -1.9338    0.7345 C.ar      1 <0>         0.0000
      4 C4          1.0983   -2.2342   -0.8915 C.ar      1 <0>         0.0000
      5 C5          4.0910   -4.2871   -3.3717 C.ar      1 <0>         0.0000
      6 C6          5.6823   -2.6438   -2.5566 C.ar      1 <0>         0.0000
      7 C7          1.9159   -1.4879    1.6675 C.ar      1 <0>         0.0000
      8 C8          0.1494   -1.7824    0.0271 C.ar      1 <0>         0.0000
      9 C9          9.3207   -5.2115   -4.0391 C.ar      1 <0>         0.0000
     10 C10        10.8360   -3.3201   -3.8427 C.ar      1 <0>         0.0000
     11 C11        -4.4917    0.7131    0.8936 C.ar      1 <0>         0.0000
     12 C12        -2.5156    1.4538    2.1013 C.ar      1 <0>         0.0000
     13 C13        10.4008   -6.0847   -3.8846 C.ar      1 <0>         0.0000
     14 C14        11.9129   -4.1934   -3.6789 C.ar      1 <0>         0.0000
     15 C15        -5.0526    1.9852    1.0210 C.ar      1 <0>         0.0000
     16 C16        -3.0822    2.7241    2.2364 C.ar      1 <0>         0.0000
     17 C17         3.4589   -2.7926   -1.5496 C.ar      1 <0>         0.0000
     18 C18         2.4617   -2.3182   -0.5608 C.ar      1 <0>         0.0000
     19 C19         5.3471   -3.6816   -3.4277 C.ar      1 <0>         0.0000
     20 C20         0.5696   -1.4170    1.3071 C.ar      1 <0>         0.0000
     21 C21         9.5506   -3.8341   -4.0236 C.ar      1 <0>         0.0000
     22 C22        -3.2307    0.4562    1.4350 C.ar      1 <0>         0.0000
     23 C23        11.6866   -5.5713   -3.7053 C.ar      1 <0>         0.0000
     24 C24        -4.3432    2.9813    1.6957 C.ar      1 <0>         0.0000
     25 O1          6.2493   -4.2163   -4.3584 O.3       1 <0>         0.0000
     26 O2         -0.3028   -0.9056    2.2782 O.3       1 <0>         0.0000
     27 O3          8.5216   -2.8911   -4.1265 O.3       1 <0>         0.0000
     28 O4         -2.7182   -0.8271    1.2136 O.3       1 <0>         0.0000
     29 S1          7.2603   -3.1756   -5.2026 S.3       1 <0>         0.0000
     30 S2         -1.8342   -1.5756    2.4333 S.3       1 <0>         0.0000
     31 Cl1        13.0397   -6.6737   -3.5066 Cl        1 <0>         0.0000
     32 Cl2        -5.0468    4.5823    1.8622 Cl        1 <0>         0.0000
     33 H1          2.1917   -4.3353   -2.3777 H         1 <0>         0.0000
     34 H2          4.9856   -1.3779   -0.9747 H         1 <0>         0.0000
     35 H3          3.8934   -2.0171    1.0302 H         1 <0>         0.0000
     36 H4          0.7740   -2.4894   -1.8965 H         1 <0>         0.0000
     37 H5          3.8621   -5.1003   -4.0540 H         1 <0>         0.0000
     38 H6          6.6635   -2.1837   -2.6010 H         1 <0>         0.0000
     39 H7          2.2124   -1.2066    2.6736 H         1 <0>         0.0000
     40 H8         -0.8945   -1.6967   -0.2544 H         1 <0>         0.0000
     41 H9          8.3161   -5.6013   -4.1605 H         1 <0>         0.0000
     42 H10        10.9833   -2.2445   -3.8343 H         1 <0>         0.0000
     43 H11        -5.0231   -0.0825    0.3804 H         1 <0>         0.0000
     44 H12        -1.5284    1.2506    2.5015 H         1 <0>         0.0000
     45 H13        10.2398   -7.1580   -3.8938 H         1 <0>         0.0000
     46 H14        12.9177   -3.8072   -3.5410 H         1 <0>         0.0000
     47 H15        -6.0332    2.1975    0.6073 H         1 <0>         0.0000
     48 H16        -2.5397    3.5112    2.7503 H         1 <0>         0.0000
@<TRIPOS>BOND
     1    1    5 ar
     2    1   17 ar
     3    1   33 1
     4    2    6 ar
     5    2   17 ar
     6    2   34 1
     7    3    7 ar
     8    3   18 ar
     9    3   35 1
    10    4    8 ar
    11    4   18 ar
    12    4   36 1
    13    5   19 ar
    14    5   37 1
    15    6   19 ar
    16    6   38 1
    17    7   20 ar
    18    7   39 1
    19    8   20 ar
    20    8   40 1
    21    9   13 ar
    22    9   21 ar
    23    9   41 1
    24   10   14 ar
    25   10   21 ar
    26   10   42 1
    27   11   15 ar
    28   11   22 ar
    29   11   43 1
    30   12   16 ar
    31   12   22 ar
    32   12   44 1
    33   13   23 ar
    34   13   45 1
    35   14   23 ar
    36   14   46 1
    37   15   24 ar
    38   15   47 1
    39   16   24 ar
    40   16   48 1
    41   17   18 1
    42   19   25 1
    43   20   26 1
    44   21   27 1
    45   22   28 1
    46   23   31 1
    47   24   32 1
    48   25   29 1
    49   26   30 1
    50   27   29 1
    51   28   30 1
