@<TRIPOS>MOLECULE
*****
   48    51     0     0     0
SMALL
NO_CHARGES

@<TRIPOS>ATOM
      1 C1          4.4077   -1.0612   -1.6218 C.ar      1 <0>         0.0000
      2 C2          4.5698   -2.6838    0.1579 C.ar      1 <0>         0.0000
      3 C3          2.9382   -0.6846    1.7434 C.ar      1 <0>         0.0000
      4 C4          1.7461   -0.3300   -0.3244 C.ar      1 <0>         0.0000
      5 C5          5.4792   -1.6651   -2.2801 C.ar      1 <0>         0.0000
      6 C6          5.6387   -3.2982   -0.4924 C.ar      1 <0>         0.0000
      7 C7          1.9350   -0.0208    2.4485 C.ar      1 <0>         0.0000
      8 C8          0.7299    0.3273    0.3707 C.ar      1 <0>         0.0000
      9 C9          8.4073   -2.6471    1.6443 C.ar      1 <0>         0.0000
     10 C10         7.7818   -0.7340    0.2872 C.ar      1 <0>         0.0000
     11 C11        -2.9511   -0.7679    1.0700 C.ar      1 <0>         0.0000
     12 C12        -4.0367    0.1943    3.0194 C.ar      1 <0>         0.0000
     13 C13         7.7001   -2.1183    2.7255 C.ar      1 <0>         0.0000
     14 C14         7.0606   -0.2117    1.3622 C.ar      1 <0>         0.0000
     15 C15        -4.0981   -0.5274    0.3088 C.ar      1 <0>         0.0000
     16 C16        -5.1817    0.4421    2.2601 C.ar      1 <0>         0.0000
     17 C17         3.9500   -1.5441   -0.3828 C.ar      1 <0>         0.0000
     18 C18         2.8633   -0.8521    0.3488 C.ar      1 <0>         0.0000
     19 C19         6.1028   -2.7655   -1.6937 C.ar      1 <0>         0.0000
     20 C20         0.8340    0.4802    1.7532 C.ar      1 <0>         0.0000
     21 C21         8.4324   -1.9605    0.4292 C.ar      1 <0>         0.0000
     22 C22        -2.9319   -0.4095    2.4175 C.ar      1 <0>         0.0000
     23 C23         7.0203   -0.9090    2.5708 C.ar      1 <0>         0.0000
     24 C24        -5.2024    0.0787    0.9107 C.ar      1 <0>         0.0000
     25 O1          7.2448   -3.3457   -2.2743 O.3       1 <0>         0.0000
     26 O2         -0.1926    1.2042    2.3767 O.3       1 <0>         0.0000
     27 O3          9.1361   -2.6020   -0.6013 O.3       1 <0>         0.0000
     28 O4         -1.7833   -0.7268    3.1514 O.3       1 <0>         0.0000
     29 S1          8.6316   -2.3910   -2.1931 S.3       1 <0>         0.0000
     30 S2         -0.8871    0.5623    3.7636 S.3       1 <0>         0.0000
     31 Cl1         6.0953   -0.2570    3.9176 Cl        1 <0>         0.0000
     32 Cl2        -6.6440    0.3898   -0.0432 Cl        1 <0>         0.0000
     33 H1          3.9496   -0.1764   -2.0551 H         1 <0>         0.0000
     34 H2          4.2159   -3.0921    1.0999 H         1 <0>         0.0000
     35 H3          3.8093   -1.0430    2.2827 H         1 <0>         0.0000
     36 H4          1.6514   -0.4673   -1.3981 H         1 <0>         0.0000
     37 H5          5.8559   -1.2658   -3.2174 H         1 <0>         0.0000
     38 H6          6.1400   -4.1598   -0.0634 H         1 <0>         0.0000
     39 H7          2.0099    0.1101    3.5235 H         1 <0>         0.0000
     40 H8         -0.1428    0.7232   -0.1402 H         1 <0>         0.0000
     41 H9          8.9237   -3.5986    1.7256 H         1 <0>         0.0000
     42 H10         7.7951   -0.2099   -0.6615 H         1 <0>         0.0000
     43 H11        -2.0741   -1.2351    0.6326 H         1 <0>         0.0000
     44 H12        -4.0001    0.4704    4.0689 H         1 <0>         0.0000
     45 H13         7.6661   -2.6486    3.6718 H         1 <0>         0.0000
     46 H14         6.5262    0.7266    1.2553 H         1 <0>         0.0000
     47 H15        -4.1316   -0.8029   -0.7405 H         1 <0>         0.0000
     48 H16        -6.0517    0.9079    2.7118 H         1 <0>         0.0000
@<TRIPOS>BOND
     1    1    5 ar
     2    1   17 ar
     3    1   33 1
     4    2    6 ar
     5    2   17 ar
     6    2   34 1
     7    3    7 ar
     8    3   18 ar
     9    3   35 1
    10    4    8 ar
    11    4   18 ar
    12    4   36 1
    13    5   19 ar
    14    5   37 1
    15    6   19 ar
    16    6   38 1
    17    7   20 ar
    18    7   39 1
    19    8   20 ar
    20    8   40 1
    21    9   13 ar
    22    9   21 ar
    23    9   41 1
    24   10   14 ar
    25   10   21 ar
    26   10   42 1
    27   11   15 ar
    28   11   22 ar
    29   11   43 1
    30   12   16 ar
    31   12   22 ar
    32   12   44 1
    33   13   23 ar
    34   13   45 1
    35   14   23 ar
    36   14   46 1
    37   15   24 ar
    38   15   47 1
    39   16   24 ar
    40   16   48 1
    41   17   18 1
    42   19   25 1
    43   20   26 1
    44   21   27 1
    45   22   28 1
    46   23   31 1
    47   24   32 1
    48   25   29 1
    49   26   30 1
    50   27   29 1
    51   28   30 1
