@<TRIPOS>MOLECULE
*****
   25    25     0     0     0
SMALL
NO_CHARGES

@<TRIPOS>ATOM
      1 C1          0.1223    0.2845    4.2167 C.2       1 <0>         0.0000
      2 C2          0.0887   -0.1833    2.9501 C.2       1 <0>         0.0000
      3 C3          2.2235   -0.9310    3.5558 C.2       1 <0>         0.0000
      4 C4         -0.6103    0.4131    0.6129 C.2       1 <0>         0.0000
      5 C5         -0.9879    1.9812   -1.1098 C.3       1 <0>         0.0000
      6 C6          4.7778   -3.6234    2.8020 C.3       1 <0>         0.0000
      7 C7         -1.0542   -0.0852    1.9811 C.3       1 <0>         0.0000
      8 N1          3.4098   -1.4733    3.5440 N.2       1 <0>         0.0000
      9 N2          1.2558   -0.8552    2.5913 N.pl3     1 <0>         0.0000
     10 O1          0.2900   -0.0950   -0.0277 O.2       1 <0>         0.0000
     11 O2          2.8999   -2.5671    1.2395 O.2       1 <0>         0.0000
     12 O3          5.0554   -1.2829    1.5865 O.2       1 <0>         0.0000
     13 O4         -1.3419    1.4618    0.1961 O.3       1 <0>         0.0000
     14 S1          1.6392   -0.1122    5.0131 S.3       1 <0>         0.0000
     15 S2          4.0037   -2.1442    2.1357 S.o2      1 <0>         0.0000
     16 H1         -0.6537    0.8310    4.7337 H         1 <0>         0.0000
     17 H2         -1.6707    2.8119   -1.2833 H         1 <0>         0.0000
     18 H3         -1.1147    1.2070   -1.8692 H         1 <0>         0.0000
     19 H4          0.0492    2.3221   -1.1086 H         1 <0>         0.0000
     20 H5          5.2613   -4.1251    1.9621 H         1 <0>         0.0000
     21 H6          5.5123   -3.3152    3.5459 H         1 <0>         0.0000
     22 H7          4.0059   -4.2545    3.2427 H         1 <0>         0.0000
     23 H8         -1.8300    0.5597    2.3928 H         1 <0>         0.0000
     24 H9         -1.4869   -1.0812    1.8218 H         1 <0>         0.0000
     25 H10         1.4191   -1.2596    1.6651 H         1 <0>         0.0000
@<TRIPOS>BOND
     1    1    2 2
     2    1   14 1
     3    1   16 1
     4    2    7 1
     5    2    9 1
     6    3    8 2
     7    3    9 1
     8    3   14 1
     9    4    7 1
    10    4   10 2
    11    4   13 1
    12    5   13 1
    13    5   17 1
    14    5   18 1
    15    5   19 1
    16    6   15 1
    17    6   20 1
    18    6   21 1
    19    6   22 1
    20    7   23 1
    21    7   24 1
    22    8   15 1
    23    9   25 1
    24   11   15 2
    25   12   15 2
