@<TRIPOS>MOLECULE
*****
   48    51     0     0     0
SMALL
NO_CHARGES

@<TRIPOS>ATOM
      1 C1          5.6137   -3.1153   -0.1019 C.ar      1 <0>         0.0000
      2 C2          4.8919   -5.2934    0.6341 C.ar      1 <0>         0.0000
      3 C3          2.7978   -3.7747    2.2223 C.ar      1 <0>         0.0000
      4 C4          2.7220   -2.2974    0.3202 C.ar      1 <0>         0.0000
      5 C5          6.8048   -3.6581   -0.5866 C.ar      1 <0>         0.0000
      6 C6          6.0808   -5.8510    0.1647 C.ar      1 <0>         0.0000
      7 C7          1.6137   -3.2240    2.7154 C.ar      1 <0>         0.0000
      8 C8          1.5341   -1.7412    0.7937 C.ar      1 <0>         0.0000
      9 C9         10.8266   -3.4152   -4.1001 C.ar      1 <0>         0.0000
     10 C10         9.6293   -5.5144   -3.8324 C.ar      1 <0>         0.0000
     11 C11        -1.3583   -1.9393    6.9614 C.ar      1 <0>         0.0000
     12 C12        -0.9002   -0.2325    5.2913 C.ar      1 <0>         0.0000
     13 C13        11.1797   -3.7766   -5.4015 C.ar      1 <0>         0.0000
     14 C14         9.9914   -5.8792   -5.1320 C.ar      1 <0>         0.0000
     15 C15        -1.5257   -0.9509    7.9331 C.ar      1 <0>         0.0000
     16 C16        -1.0774    0.7564    6.2628 C.ar      1 <0>         0.0000
     17 C17         4.6367   -3.9158    0.5146 C.ar      1 <0>         0.0000
     18 C18         3.3751   -3.3259    1.0221 C.ar      1 <0>         0.0000
     19 C19         7.0308   -5.0279   -0.4414 C.ar      1 <0>         0.0000
     20 C20         0.9867   -2.2106    1.9885 C.ar      1 <0>         0.0000
     21 C21        10.0576   -4.2857   -3.3255 C.ar      1 <0>         0.0000
     22 C22        -1.0493   -1.5740    5.6498 C.ar      1 <0>         0.0000
     23 C23        10.7616   -5.0099   -5.9065 C.ar      1 <0>         0.0000
     24 C24        -1.3871    0.3918    7.5743 C.ar      1 <0>         0.0000
     25 O1          8.1757   -5.6668   -0.9383 O.3       1 <0>         0.0000
     26 O2         -0.1772   -1.5649    2.4286 O.3       1 <0>         0.0000
     27 O3          9.7030   -3.8234   -2.0530 O.3       1 <0>         0.0000
     28 O4         -0.8433   -2.6280    4.7524 O.3       1 <0>         0.0000
     29 S1          9.6656   -4.9117   -0.7708 S.3       1 <0>         0.0000
     30 S2         -1.3832   -2.4691    3.1674 S.3       1 <0>         0.0000
     31 Cl1        11.2089   -5.4714   -7.5414 Cl        1 <0>         0.0000
     32 Cl2        -1.6013    1.6392    8.7923 Cl        1 <0>         0.0000
     33 H1          5.4530   -2.0443   -0.1884 H         1 <0>         0.0000
     34 H2          4.1447   -5.9425    1.0817 H         1 <0>         0.0000
     35 H3          3.3003   -4.5421    2.8045 H         1 <0>         0.0000
     36 H4          3.1264   -1.9504   -0.6265 H         1 <0>         0.0000
     37 H5          7.5451   -3.0265   -1.0655 H         1 <0>         0.0000
     38 H6          6.2787   -6.9151    0.2535 H         1 <0>         0.0000
     39 H7          1.1981   -3.5627    3.6581 H         1 <0>         0.0000
     40 H8          1.0191   -0.9587    0.2444 H         1 <0>         0.0000
     41 H9         11.1439   -2.4662   -3.6787 H         1 <0>         0.0000
     42 H10         9.0155   -6.1755   -3.2306 H         1 <0>         0.0000
     43 H11        -1.4670   -2.9906    7.2100 H         1 <0>         0.0000
     44 H12        -0.6406    0.0410    4.2746 H         1 <0>         0.0000
     45 H13        11.7801   -3.1108   -6.0131 H         1 <0>         0.0000
     46 H14         9.6666   -6.8303   -5.5418 H         1 <0>         0.0000
     47 H15        -1.7690   -1.2210    8.9557 H         1 <0>         0.0000
     48 H16        -0.9642    1.8037    6.0016 H         1 <0>         0.0000
@<TRIPOS>BOND
     1    1    5 ar
     2    1   17 ar
     3    1   33 1
     4    2    6 ar
     5    2   17 ar
     6    2   34 1
     7    3    7 ar
     8    3   18 ar
     9    3   35 1
    10    4    8 ar
    11    4   18 ar
    12    4   36 1
    13    5   19 ar
    14    5   37 1
    15    6   19 ar
    16    6   38 1
    17    7   20 ar
    18    7   39 1
    19    8   20 ar
    20    8   40 1
    21    9   13 ar
    22    9   21 ar
    23    9   41 1
    24   10   14 ar
    25   10   21 ar
    26   10   42 1
    27   11   15 ar
    28   11   22 ar
    29   11   43 1
    30   12   16 ar
    31   12   22 ar
    32   12   44 1
    33   13   23 ar
    34   13   45 1
    35   14   23 ar
    36   14   46 1
    37   15   24 ar
    38   15   47 1
    39   16   24 ar
    40   16   48 1
    41   17   18 1
    42   19   25 1
    43   20   26 1
    44   21   27 1
    45   22   28 1
    46   23   31 1
    47   24   32 1
    48   25   29 1
    49   26   30 1
    50   27   29 1
    51   28   30 1
