@<TRIPOS>MOLECULE
*****
   48    51     0     0     0
SMALL
NO_CHARGES

@<TRIPOS>ATOM
      1 C1          4.3999   -1.1099   -1.9931 C.ar      1 <0>         0.0000
      2 C2          4.3434   -2.9808   -0.4640 C.ar      1 <0>         0.0000
      3 C3          2.6848   -0.9950    1.1939 C.ar      1 <0>         0.0000
      4 C4          1.4583   -0.8330   -0.8825 C.ar      1 <0>         0.0000
      5 C5          5.5536   -1.6258   -2.5886 C.ar      1 <0>         0.0000
      6 C6          5.4764   -3.5193   -1.0702 C.ar      1 <0>         0.0000
      7 C7          1.5813   -0.5081    1.8913 C.ar      1 <0>         0.0000
      8 C8          0.3363   -0.3724   -0.1892 C.ar      1 <0>         0.0000
      9 C9          7.7959   -3.7411    1.4505 C.ar      1 <0>         0.0000
     10 C10         7.5568   -1.4647    0.6411 C.ar      1 <0>         0.0000
     11 C11         0.8112   -2.9806    4.1464 C.ar      1 <0>         0.0000
     12 C12         0.0613   -3.5351    1.9049 C.ar      1 <0>         0.0000
     13 C13         6.9288   -3.4643    2.5083 C.ar      1 <0>         0.0000
     14 C14         6.6835   -1.1874    1.6948 C.ar      1 <0>         0.0000
     15 C15         1.9612   -3.7490    3.9601 C.ar      1 <0>         0.0000
     16 C16         1.2145   -4.2989    1.7136 C.ar      1 <0>         0.0000
     17 C17         3.8006   -1.7626   -0.9041 C.ar      1 <0>         0.0000
     18 C18         2.6334   -1.1806   -0.1972 C.ar      1 <0>         0.0000
     19 C19         6.0945   -2.8152   -2.1021 C.ar      1 <0>         0.0000
     20 C20         0.4031   -0.2391    1.1971 C.ar      1 <0>         0.0000
     21 C21         8.0892   -2.7481    0.5138 C.ar      1 <0>         0.0000
     22 C22        -0.1207   -2.8621    3.1135 C.ar      1 <0>         0.0000
     23 C23         6.3695   -2.1904    2.6137 C.ar      1 <0>         0.0000
     24 C24         2.1586   -4.3925    2.7378 C.ar      1 <0>         0.0000
     25 O1          7.3055   -3.3158   -2.6154 O.3       1 <0>         0.0000
     26 O2         -0.7341    0.1330    1.9379 O.3       1 <0>         0.0000
     27 O3          8.9265   -3.1477   -0.5383 O.3       1 <0>         0.0000
     28 O4         -1.2111   -2.0227    3.3857 O.3       1 <0>         0.0000
     29 S1          8.6778   -2.5005   -2.0736 S.3       1 <0>         0.0000
     30 S2         -1.8657   -1.1004    2.1372 S.3       1 <0>         0.0000
     31 Cl1         5.2415   -1.8472    3.9199 Cl        1 <0>         0.0000
     32 Cl2         3.6271   -5.3271    2.4804 Cl        1 <0>         0.0000
     33 H1          3.9880   -0.1682   -2.3464 H         1 <0>         0.0000
     34 H2          3.8861   -3.5046    0.3685 H         1 <0>         0.0000
     35 H3          3.5886   -1.2472    1.7378 H         1 <0>         0.0000
     36 H4          1.4062   -0.9681   -1.9597 H         1 <0>         0.0000
     37 H5          6.0493   -1.0993   -3.3992 H         1 <0>         0.0000
     38 H6          5.9105   -4.4500   -0.7214 H         1 <0>         0.0000
     39 H7          1.6097   -0.3811    2.9681 H         1 <0>         0.0000
     40 H8         -0.5911   -0.1489   -0.7088 H         1 <0>         0.0000
     41 H9          8.2246   -4.7306    1.3243 H         1 <0>         0.0000
     42 H10         7.7785   -0.7009   -0.0960 H         1 <0>         0.0000
     43 H11         0.6426   -2.4442    5.0751 H         1 <0>         0.0000
     44 H12        -0.6598   -3.4297    1.1019 H         1 <0>         0.0000
     45 H13         6.6740   -4.2349    3.2280 H         1 <0>         0.0000
     46 H14         6.2450   -0.1995    1.7922 H         1 <0>         0.0000
     47 H15         2.7043   -3.8283    4.7463 H         1 <0>         0.0000
     48 H16         1.3788   -4.8090    0.7700 H         1 <0>         0.0000
@<TRIPOS>BOND
     1    1    5 ar
     2    1   17 ar
     3    1   33 1
     4    2    6 ar
     5    2   17 ar
     6    2   34 1
     7    3    7 ar
     8    3   18 ar
     9    3   35 1
    10    4    8 ar
    11    4   18 ar
    12    4   36 1
    13    5   19 ar
    14    5   37 1
    15    6   19 ar
    16    6   38 1
    17    7   20 ar
    18    7   39 1
    19    8   20 ar
    20    8   40 1
    21    9   13 ar
    22    9   21 ar
    23    9   41 1
    24   10   14 ar
    25   10   21 ar
    26   10   42 1
    27   11   15 ar
    28   11   22 ar
    29   11   43 1
    30   12   16 ar
    31   12   22 ar
    32   12   44 1
    33   13   23 ar
    34   13   45 1
    35   14   23 ar
    36   14   46 1
    37   15   24 ar
    38   15   47 1
    39   16   24 ar
    40   16   48 1
    41   17   18 1
    42   19   25 1
    43   20   26 1
    44   21   27 1
    45   22   28 1
    46   23   31 1
    47   24   32 1
    48   25   29 1
    49   26   30 1
    50   27   29 1
    51   28   30 1
