@<TRIPOS>MOLECULE
*****
   48    51     0     0     0
SMALL
NO_CHARGES

@<TRIPOS>ATOM
      1 C1          4.8142   -0.3491   -2.3956 C.ar      1 <0>         0.0000
      2 C2          4.7332   -2.4576   -1.2167 C.ar      1 <0>         0.0000
      3 C3          3.0910   -0.7745    0.7611 C.ar      1 <0>         0.0000
      4 C4          1.8734   -0.2359   -1.2561 C.ar      1 <0>         0.0000
      5 C5          5.9638   -0.7658   -3.0712 C.ar      1 <0>         0.0000
      6 C6          5.8619   -2.8943   -1.9069 C.ar      1 <0>         0.0000
      7 C7          1.9910   -0.4042    1.5318 C.ar      1 <0>         0.0000
      8 C8          0.7545    0.1094   -0.4940 C.ar      1 <0>         0.0000
      9 C9          8.1718   -3.5793    0.5384 C.ar      1 <0>         0.0000
     10 C10         7.9598   -1.1939    0.1389 C.ar      1 <0>         0.0000
     11 C11         1.1843   -3.2217    3.3180 C.ar      1 <0>         0.0000
     12 C12         0.4355   -3.3686    1.0132 C.ar      1 <0>         0.0000
     13 C13         7.3050   -3.4818    1.6277 C.ar      1 <0>         0.0000
     14 C14         7.0868   -1.0951    1.2241 C.ar      1 <0>         0.0000
     15 C15         2.3265   -3.9588    3.0019 C.ar      1 <0>         0.0000
     16 C16         1.5808   -4.1002    0.6931 C.ar      1 <0>         0.0000
     17 C17         4.2048   -1.1752   -1.4377 C.ar      1 <0>         0.0000
     18 C18         3.0421   -0.7125   -0.6411 C.ar      1 <0>         0.0000
     19 C19         6.4905   -2.0278   -2.7994 C.ar      1 <0>         0.0000
     20 C20         0.8183   -0.0033    0.8942 C.ar      1 <0>         0.0000
     21 C21         8.4784   -2.4413   -0.2103 C.ar      1 <0>         0.0000
     22 C22         0.2570   -2.9145    2.3205 C.ar      1 <0>         0.0000
     23 C23         6.7594   -2.2395    1.9535 C.ar      1 <0>         0.0000
     24 C24         2.5207   -4.3814    1.6865 C.ar      1 <0>         0.0000
     25 O1          7.6973   -2.4445   -3.3913 O.3       1 <0>         0.0000
     26 O2         -0.3170    0.2469    1.6874 O.3       1 <0>         0.0000
     27 O3          9.3141   -2.6604   -1.3154 O.3       1 <0>         0.0000
     28 O4         -0.8252   -2.1234    2.7337 O.3       1 <0>         0.0000
     29 S1          9.0769   -1.7522   -2.7141 S.3       1 <0>         0.0000
     30 S2         -1.4641   -0.9879    1.6657 S.3       1 <0>         0.0000
     31 Cl1         5.6316   -2.1172    3.2987 Cl        1 <0>         0.0000
     32 Cl2         3.9797   -5.2734    1.2718 Cl        1 <0>         0.0000
     33 H1          4.4134    0.6444   -2.5793 H         1 <0>         0.0000
     34 H2          4.2679   -3.1136   -0.4891 H         1 <0>         0.0000
     35 H3          3.9901   -1.1290    1.2535 H         1 <0>         0.0000
     36 H4          1.8231   -0.1793   -2.3403 H         1 <0>         0.0000
     37 H5          6.4674   -0.1114   -3.7770 H         1 <0>         0.0000
     38 H6          6.2849   -3.8765   -1.7258 H         1 <0>         0.0000
     39 H7          2.0173   -0.4685    2.6142 H         1 <0>         0.0000
     40 H8         -0.1684    0.4318   -0.9676 H         1 <0>         0.0000
     41 H9          8.5901   -4.5362    0.2416 H         1 <0>         0.0000
     42 H10         8.1917   -0.3157   -0.4534 H         1 <0>         0.0000
     43 H11         1.0187   -2.8536    4.3259 H         1 <0>         0.0000
     44 H12        -0.2820   -3.1168    0.2402 H         1 <0>         0.0000
     45 H13         7.0398   -4.3632    2.2016 H         1 <0>         0.0000
     46 H14         6.6588   -0.1345    1.4922 H         1 <0>         0.0000
     47 H15         3.0662   -4.1822    3.7633 H         1 <0>         0.0000
     48 H16         1.7426   -4.4399   -0.3248 H         1 <0>         0.0000
@<TRIPOS>BOND
     1    1    5 ar
     2    1   17 ar
     3    1   33 1
     4    2    6 ar
     5    2   17 ar
     6    2   34 1
     7    3    7 ar
     8    3   18 ar
     9    3   35 1
    10    4    8 ar
    11    4   18 ar
    12    4   36 1
    13    5   19 ar
    14    5   37 1
    15    6   19 ar
    16    6   38 1
    17    7   20 ar
    18    7   39 1
    19    8   20 ar
    20    8   40 1
    21    9   13 ar
    22    9   21 ar
    23    9   41 1
    24   10   14 ar
    25   10   21 ar
    26   10   42 1
    27   11   15 ar
    28   11   22 ar
    29   11   43 1
    30   12   16 ar
    31   12   22 ar
    32   12   44 1
    33   13   23 ar
    34   13   45 1
    35   14   23 ar
    36   14   46 1
    37   15   24 ar
    38   15   47 1
    39   16   24 ar
    40   16   48 1
    41   17   18 1
    42   19   25 1
    43   20   26 1
    44   21   27 1
    45   22   28 1
    46   23   31 1
    47   24   32 1
    48   25   29 1
    49   26   30 1
    50   27   29 1
    51   28   30 1
