@<TRIPOS>MOLECULE
*****
   48    51     0     0     0
SMALL
NO_CHARGES

@<TRIPOS>ATOM
      1 C1          4.1762   -0.3630   -1.8159 C.ar      1 <0>         0.0000
      2 C2          4.8562   -2.0378   -0.2219 C.ar      1 <0>         0.0000
      3 C3          2.7214   -0.8289    1.5650 C.ar      1 <0>         0.0000
      4 C4          1.4621   -0.5561   -0.4740 C.ar      1 <0>         0.0000
      5 C5          5.3334   -0.5939   -2.5592 C.ar      1 <0>         0.0000
      6 C6          6.0155   -2.2876   -0.9578 C.ar      1 <0>         0.0000
      7 C7          1.5680   -0.5911    2.3141 C.ar      1 <0>         0.0000
      8 C8          0.3041   -0.3078    0.2624 C.ar      1 <0>         0.0000
      9 C9          8.6932   -4.4891   -4.1270 C.ar      1 <0>         0.0000
     10 C10         9.9186   -5.6810   -2.3978 C.ar      1 <0>         0.0000
     11 C11        -0.2836   -2.9371    4.8332 C.ar      1 <0>         0.0000
     12 C12        -2.5510   -2.1501    5.2089 C.ar      1 <0>         0.0000
     13 C13         9.0114   -5.4984   -5.0397 C.ar      1 <0>         0.0000
     14 C14        10.2280   -6.6934   -3.3081 C.ar      1 <0>         0.0000
     15 C15        -0.0971   -3.0700    6.2115 C.ar      1 <0>         0.0000
     16 C16        -2.3645   -2.2734    6.5870 C.ar      1 <0>         0.0000
     17 C17         3.9169   -1.0758   -0.6320 C.ar      1 <0>         0.0000
     18 C18         2.6902   -0.8198    0.1599 C.ar      1 <0>         0.0000
     19 C19         6.2471   -1.5539   -2.1226 C.ar      1 <0>         0.0000
     20 C20         0.3678   -0.3269    1.6558 C.ar      1 <0>         0.0000
     21 C21         9.1574   -4.5871   -2.8136 C.ar      1 <0>         0.0000
     22 C22        -1.5083   -2.4840    4.3434 C.ar      1 <0>         0.0000
     23 C23         9.7747   -6.5914   -4.6252 C.ar      1 <0>         0.0000
     24 C24        -1.1393   -2.7335    7.0773 C.ar      1 <0>         0.0000
     25 O1          7.3608   -1.7692   -2.9464 O.3       1 <0>         0.0000
     26 O2         -0.7438   -0.0298    2.4573 O.3       1 <0>         0.0000
     27 O3          8.8481   -3.6430   -1.8274 O.3       1 <0>         0.0000
     28 O4         -1.6504   -2.4368    2.9516 O.3       1 <0>         0.0000
     29 S1          8.8618   -2.0105   -2.2327 S.3       1 <0>         0.0000
     30 S2         -2.1194   -0.9739    2.2632 S.3       1 <0>         0.0000
     31 Cl1        10.1691   -7.8586   -5.7759 Cl        1 <0>         0.0000
     32 Cl2        -0.9083   -2.8907    8.8113 Cl        1 <0>         0.0000
     33 H1          3.4847    0.4087   -2.1421 H         1 <0>         0.0000
     34 H2          4.6632   -2.6294    0.6686 H         1 <0>         0.0000
     35 H3          3.6619   -1.0009    2.0808 H         1 <0>         0.0000
     36 H4          1.4052   -0.5677   -1.5588 H         1 <0>         0.0000
     37 H5          5.5448   -0.0314   -3.4638 H         1 <0>         0.0000
     38 H6          6.7176   -3.0516   -0.6415 H         1 <0>         0.0000
     39 H7          1.5874   -0.5876    3.3999 H         1 <0>         0.0000
     40 H8         -0.6417   -0.1175   -0.2361 H         1 <0>         0.0000
     41 H9          8.0863   -3.6448   -4.4352 H         1 <0>         0.0000
     42 H10        10.2644   -5.7297   -1.3698 H         1 <0>         0.0000
     43 H11         0.5072   -3.1870    4.1326 H         1 <0>         0.0000
     44 H12        -3.4957   -1.7914    4.8120 H         1 <0>         0.0000
     45 H13         8.6588   -5.4382   -6.0643 H         1 <0>         0.0000
     46 H14        10.8222   -7.5475   -2.9993 H         1 <0>         0.0000
     47 H15         0.8489   -3.4247    6.6081 H         1 <0>         0.0000
     48 H16        -3.1652   -2.0204    7.2745 H         1 <0>         0.0000
@<TRIPOS>BOND
     1    1    5 ar
     2    1   17 ar
     3    1   33 1
     4    2    6 ar
     5    2   17 ar
     6    2   34 1
     7    3    7 ar
     8    3   18 ar
     9    3   35 1
    10    4    8 ar
    11    4   18 ar
    12    4   36 1
    13    5   19 ar
    14    5   37 1
    15    6   19 ar
    16    6   38 1
    17    7   20 ar
    18    7   39 1
    19    8   20 ar
    20    8   40 1
    21    9   13 ar
    22    9   21 ar
    23    9   41 1
    24   10   14 ar
    25   10   21 ar
    26   10   42 1
    27   11   15 ar
    28   11   22 ar
    29   11   43 1
    30   12   16 ar
    31   12   22 ar
    32   12   44 1
    33   13   23 ar
    34   13   45 1
    35   14   23 ar
    36   14   46 1
    37   15   24 ar
    38   15   47 1
    39   16   24 ar
    40   16   48 1
    41   17   18 1
    42   19   25 1
    43   20   26 1
    44   21   27 1
    45   22   28 1
    46   23   31 1
    47   24   32 1
    48   25   29 1
    49   26   30 1
    50   27   29 1
    51   28   30 1
