@<TRIPOS>MOLECULE
*****
   48    51     0     0     0
SMALL
NO_CHARGES

@<TRIPOS>ATOM
      1 C1          3.8578   -2.7086   -1.0948 C.ar      1 <0>         0.0000
      2 C2          5.5655   -1.4046    0.0013 C.ar      1 <0>         0.0000
      3 C3          3.8498   -1.8301    2.4867 C.ar      1 <0>         0.0000
      4 C4          1.9933   -1.5075    0.9781 C.ar      1 <0>         0.0000
      5 C5          4.7073   -2.9158   -2.1809 C.ar      1 <0>         0.0000
      6 C6          6.4303   -1.6068   -1.0757 C.ar      1 <0>         0.0000
      7 C7          2.9907   -1.7177    3.5801 C.ar      1 <0>         0.0000
      8 C8          1.1259   -1.3880    2.0628 C.ar      1 <0>         0.0000
      9 C9          9.8723   -3.7204   -3.3947 C.ar      1 <0>         0.0000
     10 C10        11.4345   -1.9459   -2.8268 C.ar      1 <0>         0.0000
     11 C11        -0.9498   -4.2527    1.8393 C.ar      1 <0>         0.0000
     12 C12         1.2503   -4.7433    2.7403 C.ar      1 <0>         0.0000
     13 C13        10.9403   -4.6145   -3.5107 C.ar      1 <0>         0.0000
     14 C14        12.4996   -2.8420   -2.9337 C.ar      1 <0>         0.0000
     15 C15        -0.5347   -4.6813    0.5772 C.ar      1 <0>         0.0000
     16 C16         1.6720   -5.1572    1.4757 C.ar      1 <0>         0.0000
     17 C17         4.2700   -1.9480    0.0134 C.ar      1 <0>         0.0000
     18 C18         3.3643   -1.7506    1.1694 C.ar      1 <0>         0.0000
     19 C19         5.9877   -2.3613   -2.1640 C.ar      1 <0>         0.0000
     20 C20         1.6287   -1.5226    3.3556 C.ar      1 <0>         0.0000
     21 C21        10.1313   -2.3898   -3.0591 C.ar      1 <0>         0.0000
     22 C22        -0.0526   -4.2722    2.9084 C.ar      1 <0>         0.0000
     23 C23        12.2435   -4.1710   -3.2787 C.ar      1 <0>         0.0000
     24 C24         0.7796   -5.1180    0.4030 C.ar      1 <0>         0.0000
     25 O1          6.8080   -2.6604   -3.2612 O.3       1 <0>         0.0000
     26 O2          0.7154   -1.4970    4.4249 O.3       1 <0>         0.0000
     27 O3          9.1198   -1.4409   -2.8739 O.3       1 <0>         0.0000
     28 O4         -0.5600   -3.7791    4.1199 O.3       1 <0>         0.0000
     29 S1          7.7856   -1.4537   -3.8987 S.3       1 <0>         0.0000
     30 S2          0.4802   -2.9855    5.1792 S.3       1 <0>         0.0000
     31 Cl1        13.5814   -5.3008   -3.4181 Cl        1 <0>         0.0000
     32 Cl2         1.3199   -5.6212   -1.1938 Cl        1 <0>         0.0000
     33 H1          2.8735   -3.1664   -1.1012 H         1 <0>         0.0000
     34 H2          5.9009   -0.7978    0.8379 H         1 <0>         0.0000
     35 H3          4.9046   -2.0254    2.6586 H         1 <0>         0.0000
     36 H4          1.5993   -1.4156   -0.0298 H         1 <0>         0.0000
     37 H5          4.3942   -3.5098   -3.0344 H         1 <0>         0.0000
     38 H6          7.4299   -1.1861   -1.0691 H         1 <0>         0.0000
     39 H7          3.3626   -1.8188    4.5957 H         1 <0>         0.0000
     40 H8          0.0620   -1.2297    1.9193 H         1 <0>         0.0000
     41 H9          8.8552   -4.0609   -3.5545 H         1 <0>         0.0000
     42 H10        11.6044   -0.9055   -2.5669 H         1 <0>         0.0000
     43 H11        -1.9573   -3.8817    2.0003 H         1 <0>         0.0000
     44 H12         1.9466   -4.7458    3.5712 H         1 <0>         0.0000
     45 H13        10.7567   -5.6522   -3.7699 H         1 <0>         0.0000
     46 H14        13.5177   -2.5093   -2.7586 H         1 <0>         0.0000
     47 H15        -1.2210   -4.6606   -0.2633 H         1 <0>         0.0000
     48 H16         2.6912   -5.4978    1.3256 H         1 <0>         0.0000
@<TRIPOS>BOND
     1    1    5 ar
     2    1   17 ar
     3    1   33 1
     4    2    6 ar
     5    2   17 ar
     6    2   34 1
     7    3    7 ar
     8    3   18 ar
     9    3   35 1
    10    4    8 ar
    11    4   18 ar
    12    4   36 1
    13    5   19 ar
    14    5   37 1
    15    6   19 ar
    16    6   38 1
    17    7   20 ar
    18    7   39 1
    19    8   20 ar
    20    8   40 1
    21    9   13 ar
    22    9   21 ar
    23    9   41 1
    24   10   14 ar
    25   10   21 ar
    26   10   42 1
    27   11   15 ar
    28   11   22 ar
    29   11   43 1
    30   12   16 ar
    31   12   22 ar
    32   12   44 1
    33   13   23 ar
    34   13   45 1
    35   14   23 ar
    36   14   46 1
    37   15   24 ar
    38   15   47 1
    39   16   24 ar
    40   16   48 1
    41   17   18 1
    42   19   25 1
    43   20   26 1
    44   21   27 1
    45   22   28 1
    46   23   31 1
    47   24   32 1
    48   25   29 1
    49   26   30 1
    50   27   29 1
    51   28   30 1
