@<TRIPOS>MOLECULE
*****
   48    51     0     0     0
SMALL
NO_CHARGES

@<TRIPOS>ATOM
      1 C1          2.9887   -3.1256   -1.4865 C.ar      1 <0>         0.0000
      2 C2          5.0108   -1.9978   -0.8130 C.ar      1 <0>         0.0000
      3 C3          3.5173   -1.5439    1.8068 C.ar      1 <0>         0.0000
      4 C4          1.5947   -1.1987    0.3954 C.ar      1 <0>         0.0000
      5 C5          3.6670   -3.7137   -2.5532 C.ar      1 <0>         0.0000
      6 C6          5.7068   -2.5841   -1.8718 C.ar      1 <0>         0.0000
      7 C7          2.8052   -1.0539    2.9020 C.ar      1 <0>         0.0000
      8 C8          0.8769   -0.6911    1.4763 C.ar      1 <0>         0.0000
      9 C9          8.3363   -5.9161   -3.8721 C.ar      1 <0>         0.0000
     10 C10        10.3269   -4.5276   -3.7246 C.ar      1 <0>         0.0000
     11 C11         0.7171   -3.8441    2.8862 C.ar      1 <0>         0.0000
     12 C12        -1.5465   -3.2685    2.2206 C.ar      1 <0>         0.0000
     13 C13         9.1412   -7.0587   -3.8718 C.ar      1 <0>         0.0000
     14 C14        11.1293   -5.6701   -3.7148 C.ar      1 <0>         0.0000
     15 C15         0.8871   -4.5636    1.7020 C.ar      1 <0>         0.0000
     16 C16        -1.3827   -3.9903    1.0364 C.ar      1 <0>         0.0000
     17 C17         3.6461   -2.2548   -0.5995 C.ar      1 <0>         0.0000
     18 C18         2.9181   -1.6513    0.5408 C.ar      1 <0>         0.0000
     19 C19         5.0221   -3.4368   -2.7396 C.ar      1 <0>         0.0000
     20 C20         1.4801   -0.6539    2.7341 C.ar      1 <0>         0.0000
     21 C21         8.9391   -4.6581   -3.8050 C.ar      1 <0>         0.0000
     22 C22        -0.4895   -3.1884    3.1275 C.ar      1 <0>         0.0000
     23 C23        10.5288   -6.9288   -3.7922 C.ar      1 <0>         0.0000
     24 C24        -0.1631   -4.6225    0.7841 C.ar      1 <0>         0.0000
     25 O1          5.6477   -4.1107   -3.7985 O.3       1 <0>         0.0000
     26 O2          0.8089   -0.2579    3.9035 O.3       1 <0>         0.0000
     27 O3          8.2079   -3.4661   -3.7532 O.3       1 <0>         0.0000
     28 O4         -0.6058   -2.4403    4.3096 O.3       1 <0>         0.0000
     29 S1          6.8222   -3.3156   -4.6950 S.3       1 <0>         0.0000
     30 S2         -0.7797   -0.7738    4.0998 S.3       1 <0>         0.0000
     31 Cl1        11.5348   -8.3689   -3.7849 Cl        1 <0>         0.0000
     32 Cl2         0.0521   -5.5053   -0.7217 Cl        1 <0>         0.0000
     33 H1          1.9424   -3.3686   -1.3303 H         1 <0>         0.0000
     34 H2          5.5379   -1.3148   -0.1525 H         1 <0>         0.0000
     35 H3          4.5337   -1.8992    1.9530 H         1 <0>         0.0000
     36 H4          1.1196   -1.2379   -0.5805 H         1 <0>         0.0000
     37 H5          3.1626   -4.3922   -3.2347 H         1 <0>         0.0000
     38 H6          6.7622   -2.3816   -2.0178 H         1 <0>         0.0000
     39 H7          3.2464   -1.0181    3.8936 H         1 <0>         0.0000
     40 H8         -0.1519   -0.3707    1.3523 H         1 <0>         0.0000
     41 H9          7.2568   -6.0089   -3.9143 H         1 <0>         0.0000
     42 H10        10.7666   -3.5363   -3.6729 H         1 <0>         0.0000
     43 H11         1.5257   -3.7557    3.6037 H         1 <0>         0.0000
     44 H12        -2.4816   -2.7577    2.4292 H         1 <0>         0.0000
     45 H13         8.6890   -8.0440   -3.9226 H         1 <0>         0.0000
     46 H14        12.2094   -5.5825   -3.6559 H         1 <0>         0.0000
     47 H15         1.8312   -5.0530    1.4867 H         1 <0>         0.0000
     48 H16        -2.1921   -4.0591    0.3167 H         1 <0>         0.0000
@<TRIPOS>BOND
     1    1    5 ar
     2    1   17 ar
     3    1   33 1
     4    2    6 ar
     5    2   17 ar
     6    2   34 1
     7    3    7 ar
     8    3   18 ar
     9    3   35 1
    10    4    8 ar
    11    4   18 ar
    12    4   36 1
    13    5   19 ar
    14    5   37 1
    15    6   19 ar
    16    6   38 1
    17    7   20 ar
    18    7   39 1
    19    8   20 ar
    20    8   40 1
    21    9   13 ar
    22    9   21 ar
    23    9   41 1
    24   10   14 ar
    25   10   21 ar
    26   10   42 1
    27   11   15 ar
    28   11   22 ar
    29   11   43 1
    30   12   16 ar
    31   12   22 ar
    32   12   44 1
    33   13   23 ar
    34   13   45 1
    35   14   23 ar
    36   14   46 1
    37   15   24 ar
    38   15   47 1
    39   16   24 ar
    40   16   48 1
    41   17   18 1
    42   19   25 1
    43   20   26 1
    44   21   27 1
    45   22   28 1
    46   23   31 1
    47   24   32 1
    48   25   29 1
    49   26   30 1
    50   27   29 1
    51   28   30 1
