@<TRIPOS>MOLECULE
*****
   48    51     0     0     0
SMALL
NO_CHARGES

@<TRIPOS>ATOM
      1 C1          3.9781   -3.3374   -1.5483 C.ar      1 <0>         0.0000
      2 C2          5.5369   -2.2248   -0.0850 C.ar      1 <0>         0.0000
      3 C3          3.3129   -2.4329    1.9631 C.ar      1 <0>         0.0000
      4 C4          1.8470   -1.9170    0.1143 C.ar      1 <0>         0.0000
      5 C5          5.0271   -3.7045   -2.3919 C.ar      1 <0>         0.0000
      6 C6          6.5917   -2.5680   -0.9278 C.ar      1 <0>         0.0000
      7 C7          2.2807   -2.1643    2.8628 C.ar      1 <0>         0.0000
      8 C8          0.8068   -1.6483    1.0039 C.ar      1 <0>         0.0000
      9 C9          8.4336   -5.0606    0.9234 C.ar      1 <0>         0.0000
     10 C10         6.3212   -5.8687    0.0385 C.ar      1 <0>         0.0000
     11 C11         2.2993    0.2172    5.8686 C.ar      1 <0>         0.0000
     12 C12        -0.0186    0.4797    6.5457 C.ar      1 <0>         0.0000
     13 C13         7.8271   -4.8255    2.1591 C.ar      1 <0>         0.0000
     14 C14         5.7094   -5.6322    1.2709 C.ar      1 <0>         0.0000
     15 C15         2.6620   -0.0402    7.1929 C.ar      1 <0>         0.0000
     16 C16         0.3403    0.2144    7.8689 C.ar      1 <0>         0.0000
     17 C17         4.2162   -2.6172   -0.3661 C.ar      1 <0>         0.0000
     18 C18         3.1155   -2.3113    0.5769 C.ar      1 <0>         0.0000
     19 C19         6.3315   -3.3388   -2.0616 C.ar      1 <0>         0.0000
     20 C20         1.0339   -1.7767    2.3744 C.ar      1 <0>         0.0000
     21 C21         7.6714   -5.5648   -0.1307 C.ar      1 <0>         0.0000
     22 C22         0.9651    0.4785    5.5557 C.ar      1 <0>         0.0000
     23 C23         6.4677   -5.1043    2.3176 C.ar      1 <0>         0.0000
     24 C24         1.6773   -0.0431    8.1826 C.ar      1 <0>         0.0000
     25 O1          7.3360   -3.8258   -2.9147 O.3       1 <0>         0.0000
     26 O2          0.0081   -1.5743    3.3087 O.3       1 <0>         0.0000
     27 O3          8.2393   -5.7775   -1.3966 O.3       1 <0>         0.0000
     28 O4          0.6924    0.7856    4.2173 O.3       1 <0>         0.0000
     29 S1          8.7537   -4.3871   -2.2054 S.3       1 <0>         0.0000
     30 S2         -0.5851   -0.0086    3.4636 S.3       1 <0>         0.0000
     31 Cl1         5.6985   -4.7793    3.8655 Cl        1 <0>         0.0000
     32 Cl2         2.1249   -0.3772    9.8479 Cl        1 <0>         0.0000
     33 H1          2.9696   -3.6657   -1.7844 H         1 <0>         0.0000
     34 H2          5.7428   -1.6364    0.8044 H         1 <0>         0.0000
     35 H3          4.2724   -2.7676    2.3445 H         1 <0>         0.0000
     36 H4          1.6781   -1.7966   -0.9522 H         1 <0>         0.0000
     37 H5          4.8558   -4.3075   -3.2785 H         1 <0>         0.0000
     38 H6          7.6082   -2.2799   -0.6826 H         1 <0>         0.0000
     39 H7          2.4223   -2.2703    3.9341 H         1 <0>         0.0000
     40 H8         -0.1677   -1.3310    0.6440 H         1 <0>         0.0000
     41 H9          9.4859   -4.8377    0.7752 H         1 <0>         0.0000
     42 H10         5.7501   -6.2495   -0.8014 H         1 <0>         0.0000
     43 H11         3.0400    0.2230    5.0750 H         1 <0>         0.0000
     44 H12        -1.0543    0.6756    6.2871 H         1 <0>         0.0000
     45 H13         8.4032   -4.4289    2.9889 H         1 <0>         0.0000
     46 H14         4.6525   -5.8356    1.4083 H         1 <0>         0.0000
     47 H15         3.6964   -0.2437    7.4509 H         1 <0>         0.0000
     48 H16        -0.4121    0.2125    8.6511 H         1 <0>         0.0000
@<TRIPOS>BOND
     1    1    5 ar
     2    1   17 ar
     3    1   33 1
     4    2    6 ar
     5    2   17 ar
     6    2   34 1
     7    3    7 ar
     8    3   18 ar
     9    3   35 1
    10    4    8 ar
    11    4   18 ar
    12    4   36 1
    13    5   19 ar
    14    5   37 1
    15    6   19 ar
    16    6   38 1
    17    7   20 ar
    18    7   39 1
    19    8   20 ar
    20    8   40 1
    21    9   13 ar
    22    9   21 ar
    23    9   41 1
    24   10   14 ar
    25   10   21 ar
    26   10   42 1
    27   11   15 ar
    28   11   22 ar
    29   11   43 1
    30   12   16 ar
    31   12   22 ar
    32   12   44 1
    33   13   23 ar
    34   13   45 1
    35   14   23 ar
    36   14   46 1
    37   15   24 ar
    38   15   47 1
    39   16   24 ar
    40   16   48 1
    41   17   18 1
    42   19   25 1
    43   20   26 1
    44   21   27 1
    45   22   28 1
    46   23   31 1
    47   24   32 1
    48   25   29 1
    49   26   30 1
    50   27   29 1
    51   28   30 1
