@<TRIPOS>MOLECULE
*****
   48    51     0     0     0
SMALL
NO_CHARGES

@<TRIPOS>ATOM
      1 C1          5.9339   -0.9798    0.6443 C.ar      1 <0>         0.0000
      2 C2          5.4380   -3.2955    0.1984 C.ar      1 <0>         0.0000
      3 C3          3.3531   -2.9987    2.3869 C.ar      1 <0>         0.0000
      4 C4          3.0223   -0.7904    1.4806 C.ar      1 <0>         0.0000
      5 C5          7.1248   -1.0921   -0.0724 C.ar      1 <0>         0.0000
      6 C6          6.6220   -3.4237   -0.5297 C.ar      1 <0>         0.0000
      7 C7          2.1605   -2.8888    3.1014 C.ar      1 <0>         0.0000
      8 C8          1.8310   -0.6596    2.1961 C.ar      1 <0>         0.0000
      9 C9          9.2112   -3.3396   -4.4308 C.ar      1 <0>         0.0000
     10 C10         9.2304   -5.7676   -4.5592 C.ar      1 <0>         0.0000
     11 C11        -0.8095    0.6253    5.8311 C.ar      1 <0>         0.0000
     12 C12        -1.7143    2.5317    4.6230 C.ar      1 <0>         0.0000
     13 C13         9.4103   -3.2715   -5.8124 C.ar      1 <0>         0.0000
     14 C14         9.4198   -5.6983   -5.9407 C.ar      1 <0>         0.0000
     15 C15        -1.0670    1.2773    7.0401 C.ar      1 <0>         0.0000
     16 C16        -1.9624    3.1859    5.8312 C.ar      1 <0>         0.0000
     17 C17         5.0694   -2.0783    0.7965 C.ar      1 <0>         0.0000
     18 C18         3.8050   -1.9550    1.5601 C.ar      1 <0>         0.0000
     19 C19         7.4615   -2.3154   -0.6537 C.ar      1 <0>         0.0000
     20 C20         1.4061   -1.7193    2.9992 C.ar      1 <0>         0.0000
     21 C21         9.1296   -4.5905   -3.8152 C.ar      1 <0>         0.0000
     22 C22        -1.1427    1.2580    4.6315 C.ar      1 <0>         0.0000
     23 C23         9.5121   -4.4482   -6.5566 C.ar      1 <0>         0.0000
     24 C24        -1.6395    2.5505    7.0323 C.ar      1 <0>         0.0000
     25 O1          8.6447   -2.3350   -1.4054 O.3       1 <0>         0.0000
     26 O2          0.2491   -1.6586    3.7888 O.3       1 <0>         0.0000
     27 O3          8.8847   -4.7496   -2.4465 O.3       1 <0>         0.0000
     28 O4         -0.8759    0.6957    3.3780 O.3       1 <0>         0.0000
     29 S1          9.6206   -3.6999   -1.3575 S.3       1 <0>         0.0000
     30 S2         -1.1341   -0.9514    3.1524 S.3       1 <0>         0.0000
     31 Cl1         9.7554   -4.3556   -8.2938 Cl        1 <0>         0.0000
     32 Cl2        -1.9551    3.3675    8.5551 Cl        1 <0>         0.0000
     33 H1          5.6919   -0.0342    1.1211 H         1 <0>         0.0000
     34 H2          4.7714   -4.1505    0.2686 H         1 <0>         0.0000
     35 H3          3.9494   -3.9008    2.4897 H         1 <0>         0.0000
     36 H4          3.3362    0.0233    0.8327 H         1 <0>         0.0000
     37 H5          7.8021   -0.2497   -0.1768 H         1 <0>         0.0000
     38 H6          6.8762   -4.3627   -1.0092 H         1 <0>         0.0000
     39 H7          1.8109   -3.6923    3.7429 H         1 <0>         0.0000
     40 H8          1.2426    0.2490    2.1280 H         1 <0>         0.0000
     41 H9          9.1118   -2.4306   -3.8479 H         1 <0>         0.0000
     42 H10         9.1621   -6.7255   -4.0526 H         1 <0>         0.0000
     43 H11        -0.3483   -0.3561    5.8267 H         1 <0>         0.0000
     44 H12        -1.9619    2.9983    3.6744 H         1 <0>         0.0000
     45 H13         9.4751   -2.3076   -6.3070 H         1 <0>         0.0000
     46 H14         9.5027   -6.6056   -6.5303 H         1 <0>         0.0000
     47 H15        -0.8137    0.8004    7.9815 H         1 <0>         0.0000
     48 H16        -2.4094    4.1748    5.8391 H         1 <0>         0.0000
@<TRIPOS>BOND
     1    1    5 ar
     2    1   17 ar
     3    1   33 1
     4    2    6 ar
     5    2   17 ar
     6    2   34 1
     7    3    7 ar
     8    3   18 ar
     9    3   35 1
    10    4    8 ar
    11    4   18 ar
    12    4   36 1
    13    5   19 ar
    14    5   37 1
    15    6   19 ar
    16    6   38 1
    17    7   20 ar
    18    7   39 1
    19    8   20 ar
    20    8   40 1
    21    9   13 ar
    22    9   21 ar
    23    9   41 1
    24   10   14 ar
    25   10   21 ar
    26   10   42 1
    27   11   15 ar
    28   11   22 ar
    29   11   43 1
    30   12   16 ar
    31   12   22 ar
    32   12   44 1
    33   13   23 ar
    34   13   45 1
    35   14   23 ar
    36   14   46 1
    37   15   24 ar
    38   15   47 1
    39   16   24 ar
    40   16   48 1
    41   17   18 1
    42   19   25 1
    43   20   26 1
    44   21   27 1
    45   22   28 1
    46   23   31 1
    47   24   32 1
    48   25   29 1
    49   26   30 1
    50   27   29 1
    51   28   30 1
