@<TRIPOS>MOLECULE
*****
   48    51     0     0     0
SMALL
NO_CHARGES

@<TRIPOS>ATOM
      1 C1          5.0930   -1.3445   -1.5715 C.ar      1 <0>         0.0000
      2 C2          5.1719   -3.2385   -0.0772 C.ar      1 <0>         0.0000
      3 C3          3.6630   -1.4339    1.8307 C.ar      1 <0>         0.0000
      4 C4          2.4836   -0.6859   -0.1369 C.ar      1 <0>         0.0000
      5 C5          6.1250   -1.8931   -2.3333 C.ar      1 <0>         0.0000
      6 C6          6.2006   -3.7986   -0.8327 C.ar      1 <0>         0.0000
      7 C7          2.7018   -0.8386    2.6469 C.ar      1 <0>         0.0000
      8 C8          1.5090   -0.0947    0.6684 C.ar      1 <0>         0.0000
      9 C9          9.0145   -3.6544    1.3391 C.ar      1 <0>         0.0000
     10 C10         8.4910   -1.5163    0.3158 C.ar      1 <0>         0.0000
     11 C11        -2.2124   -1.1063    1.2457 C.ar      1 <0>         0.0000
     12 C12        -3.2426   -0.4185    3.3362 C.ar      1 <0>         0.0000
     13 C13         8.3441   -3.2685    2.5012 C.ar      1 <0>         0.0000
     14 C14         7.8063   -1.1350    1.4708 C.ar      1 <0>         0.0000
     15 C15        -3.3500   -0.6950    0.5462 C.ar      1 <0>         0.0000
     16 C16        -4.3780   -0.0004    2.6397 C.ar      1 <0>         0.0000
     17 C17         4.6150   -1.9942   -0.4195 C.ar      1 <0>         0.0000
     18 C18         3.5726   -1.3702    0.4285 C.ar      1 <0>         0.0000
     19 C19         6.6880   -3.1063   -1.9398 C.ar      1 <0>         0.0000
     20 C20         1.6277   -0.1727    2.0561 C.ar      1 <0>         0.0000
     21 C21         9.0719   -2.7836    0.2496 C.ar      1 <0>         0.0000
     22 C22        -2.1703   -0.9688    2.6327 C.ar      1 <0>         0.0000
     23 C23         7.7330   -2.0146    2.5523 C.ar      1 <0>         0.0000
     24 C24        -4.4218   -0.1426    1.2499 C.ar      1 <0>         0.0000
     25 O1          7.7917   -3.6481   -2.6224 O.3       1 <0>         0.0000
     26 O2          0.6451    0.4960    2.8006 O.3       1 <0>         0.0000
     27 O3          9.7324   -3.2886   -0.8806 O.3       1 <0>         0.0000
     28 O4         -1.0351   -1.4516    3.2936 O.3       1 <0>         0.0000
     29 S1          9.2311   -2.7970   -2.4103 S.3       1 <0>         0.0000
     30 S2         -0.0706   -0.3171    4.0829 S.3       1 <0>         0.0000
     31 Cl1         6.8534   -1.5382    3.9993 Cl        1 <0>         0.0000
     32 Cl2        -5.8514    0.3825    0.3749 Cl        1 <0>         0.0000
     33 H1          4.6838   -0.3776   -1.8509 H         1 <0>         0.0000
     34 H2          4.8002   -3.7727    0.7922 H         1 <0>         0.0000
     35 H3          4.5150   -1.9218    2.2938 H         1 <0>         0.0000
     36 H4          2.3765   -0.6429   -1.2173 H         1 <0>         0.0000
     37 H5          6.5188   -1.3697   -3.1998 H         1 <0>         0.0000
     38 H6          6.6543   -4.7444   -0.5545 H         1 <0>         0.0000
     39 H7          2.7888   -0.8873    3.7278 H         1 <0>         0.0000
     40 H8          0.6578    0.4255    0.2395 H         1 <0>         0.0000
     41 H9          9.4766   -4.6335    1.2592 H         1 <0>         0.0000
     42 H10         8.5289   -0.8478   -0.5367 H         1 <0>         0.0000
     43 H11        -1.3604   -1.5376    0.7291 H         1 <0>         0.0000
     44 H12        -3.1882   -0.3154    4.4158 H         1 <0>         0.0000
     45 H13         8.2852   -3.9415    3.3505 H         1 <0>         0.0000
     46 H14         7.3252   -0.1638    1.5235 H         1 <0>         0.0000
     47 H15        -3.4012   -0.7977   -0.5331 H         1 <0>         0.0000
     48 H16        -5.2230    0.4269    3.1700 H         1 <0>         0.0000
@<TRIPOS>BOND
     1    1    5 ar
     2    1   17 ar
     3    1   33 1
     4    2    6 ar
     5    2   17 ar
     6    2   34 1
     7    3    7 ar
     8    3   18 ar
     9    3   35 1
    10    4    8 ar
    11    4   18 ar
    12    4   36 1
    13    5   19 ar
    14    5   37 1
    15    6   19 ar
    16    6   38 1
    17    7   20 ar
    18    7   39 1
    19    8   20 ar
    20    8   40 1
    21    9   13 ar
    22    9   21 ar
    23    9   41 1
    24   10   14 ar
    25   10   21 ar
    26   10   42 1
    27   11   15 ar
    28   11   22 ar
    29   11   43 1
    30   12   16 ar
    31   12   22 ar
    32   12   44 1
    33   13   23 ar
    34   13   45 1
    35   14   23 ar
    36   14   46 1
    37   15   24 ar
    38   15   47 1
    39   16   24 ar
    40   16   48 1
    41   17   18 1
    42   19   25 1
    43   20   26 1
    44   21   27 1
    45   22   28 1
    46   23   31 1
    47   24   32 1
    48   25   29 1
    49   26   30 1
    50   27   29 1
    51   28   30 1
