@<TRIPOS>MOLECULE
*****
   48    51     0     0     0
SMALL
NO_CHARGES

@<TRIPOS>ATOM
      1 C1          4.4508   -1.5494   -0.7689 C.ar      1 <0>         0.0000
      2 C2          5.2809   -3.0495    0.9245 C.ar      1 <0>         0.0000
      3 C3          2.4266   -3.0546    1.9545 C.ar      1 <0>         0.0000
      4 C4          2.4107   -0.7297    1.3212 C.ar      1 <0>         0.0000
      5 C5          5.6107   -1.7352   -1.5227 C.ar      1 <0>         0.0000
      6 C6          6.4498   -3.2407    0.1884 C.ar      1 <0>         0.0000
      7 C7          1.2592   -2.8662    2.6936 C.ar      1 <0>         0.0000
      8 C8          1.2465   -0.5209    2.0624 C.ar      1 <0>         0.0000
      9 C9          7.9617   -1.9433   -6.3441 C.ar      1 <0>         0.0000
     10 C10         8.2498   -3.8020   -4.8032 C.ar      1 <0>         0.0000
     11 C11        -1.7622    2.8014    4.9988 C.ar      1 <0>         0.0000
     12 C12        -1.1756    0.6237    5.9074 C.ar      1 <0>         0.0000
     13 C13         8.2022   -2.7944   -7.4245 C.ar      1 <0>         0.0000
     14 C14         8.4997   -4.6510   -5.8847 C.ar      1 <0>         0.0000
     15 C15        -1.9149    3.3057    6.2918 C.ar      1 <0>         0.0000
     16 C16        -1.3380    1.1270    7.2010 C.ar      1 <0>         0.0000
     17 C17         4.2611   -2.1983    0.4634 C.ar      1 <0>         0.0000
     18 C18         3.0230   -1.9929    1.2515 C.ar      1 <0>         0.0000
     19 C19         6.6075   -2.5791   -1.0302 C.ar      1 <0>         0.0000
     20 C20         0.6755   -1.5995    2.7400 C.ar      1 <0>         0.0000
     21 C21         7.9895   -2.4512   -5.0441 C.ar      1 <0>         0.0000
     22 C22        -1.3968    1.4664    4.8160 C.ar      1 <0>         0.0000
     23 C23         8.4740   -4.1433   -7.1849 C.ar      1 <0>         0.0000
     24 C24        -1.7052    2.4613    7.3844 C.ar      1 <0>         0.0000
     25 O1          7.7849   -2.8618   -1.7367 O.3       1 <0>         0.0000
     26 O2         -0.4650   -1.4760    3.5458 O.3       1 <0>         0.0000
     27 O3          7.6855   -1.5441   -4.0225 O.3       1 <0>         0.0000
     28 O4         -1.2125    1.0556    3.4908 O.3       1 <0>         0.0000
     29 S1          8.5465   -1.6258   -2.5795 S.3       1 <0>         0.0000
     30 S2         -1.7193   -0.4830    3.0371 S.3       1 <0>         0.0000
     31 Cl1         8.7850   -5.2171   -8.5398 Cl        1 <0>         0.0000
     32 Cl2        -1.9031    3.0886    9.0132 Cl        1 <0>         0.0000
     33 H1          3.6633   -0.9158   -1.1672 H         1 <0>         0.0000
     34 H2          5.1777   -3.5407    1.8879 H         1 <0>         0.0000
     35 H3          2.8584   -4.0497    1.8946 H         1 <0>         0.0000
     36 H4          2.8704    0.1168    0.8189 H         1 <0>         0.0000
     37 H5          5.7280   -1.2481   -2.4846 H         1 <0>         0.0000
     38 H6          7.2465   -3.8834    0.5511 H         1 <0>         0.0000
     39 H7          0.7870   -3.6888    3.2225 H         1 <0>         0.0000
     40 H8          0.8034    0.4668    2.1279 H         1 <0>         0.0000
     41 H9          7.7553   -0.8888   -6.4997 H         1 <0>         0.0000
     42 H10         8.2502   -4.1911   -3.7910 H         1 <0>         0.0000
     43 H11        -1.9259    3.4325    4.1307 H         1 <0>         0.0000
     44 H12        -0.8729   -0.4065    5.7558 H         1 <0>         0.0000
     45 H13         8.1871   -2.4118   -8.4400 H         1 <0>         0.0000
     46 H14         8.7034   -5.7036   -5.7158 H         1 <0>         0.0000
     47 H15        -2.2018    4.3406    6.4479 H         1 <0>         0.0000
     48 H16        -1.1697    0.4861    8.0605 H         1 <0>         0.0000
@<TRIPOS>BOND
     1    1    5 ar
     2    1   17 ar
     3    1   33 1
     4    2    6 ar
     5    2   17 ar
     6    2   34 1
     7    3    7 ar
     8    3   18 ar
     9    3   35 1
    10    4    8 ar
    11    4   18 ar
    12    4   36 1
    13    5   19 ar
    14    5   37 1
    15    6   19 ar
    16    6   38 1
    17    7   20 ar
    18    7   39 1
    19    8   20 ar
    20    8   40 1
    21    9   13 ar
    22    9   21 ar
    23    9   41 1
    24   10   14 ar
    25   10   21 ar
    26   10   42 1
    27   11   15 ar
    28   11   22 ar
    29   11   43 1
    30   12   16 ar
    31   12   22 ar
    32   12   44 1
    33   13   23 ar
    34   13   45 1
    35   14   23 ar
    36   14   46 1
    37   15   24 ar
    38   15   47 1
    39   16   24 ar
    40   16   48 1
    41   17   18 1
    42   19   25 1
    43   20   26 1
    44   21   27 1
    45   22   28 1
    46   23   31 1
    47   24   32 1
    48   25   29 1
    49   26   30 1
    50   27   29 1
    51   28   30 1
