@<TRIPOS>MOLECULE
*****
   48    51     0     0     0
SMALL
NO_CHARGES

@<TRIPOS>ATOM
      1 C1          4.3782   -2.6370   -1.1458 C.ar      1 <0>         0.0000
      2 C2          5.6511   -1.6404    0.6393 C.ar      1 <0>         0.0000
      3 C3          2.9819   -1.4706    2.0799 C.ar      1 <0>         0.0000
      4 C4          2.0488   -1.0369   -0.1024 C.ar      1 <0>         0.0000
      5 C5          5.5512   -3.1021   -1.7425 C.ar      1 <0>         0.0000
      6 C6          6.8315   -2.0934    0.0538 C.ar      1 <0>         0.0000
      7 C7          1.7656   -1.1360    2.6751 C.ar      1 <0>         0.0000
      8 C8          0.8277   -0.7026    0.4802 C.ar      1 <0>         0.0000
      9 C9          6.0651   -6.5505   -3.0157 C.ar      1 <0>         0.0000
     10 C10         6.1218   -5.1558   -5.0038 C.ar      1 <0>         0.0000
     11 C11        -1.1975   -3.4584   -0.5332 C.ar      1 <0>         0.0000
     12 C12         0.2524   -3.9976    1.3370 C.ar      1 <0>         0.0000
     13 C13         4.8236   -7.0588   -3.4051 C.ar      1 <0>         0.0000
     14 C14         4.8768   -5.6558   -5.3908 C.ar      1 <0>         0.0000
     15 C15        -0.3064   -4.0803   -1.4097 C.ar      1 <0>         0.0000
     16 C16         1.1531   -4.6034    0.4594 C.ar      1 <0>         0.0000
     17 C17         4.4009   -1.9032    0.0516 C.ar      1 <0>         0.0000
     18 C18         3.1385   -1.4534    0.6820 C.ar      1 <0>         0.0000
     19 C19         6.7756   -2.8264   -1.1350 C.ar      1 <0>         0.0000
     20 C20         0.6874   -0.7844    1.8642 C.ar      1 <0>         0.0000
     21 C21         6.7079   -5.6086   -3.8198 C.ar      1 <0>         0.0000
     22 C22        -0.9069   -3.4081    0.8313 C.ar      1 <0>         0.0000
     23 C23         4.2405   -6.6096   -4.5923 C.ar      1 <0>         0.0000
     24 C24         0.8711   -4.6373   -0.9071 C.ar      1 <0>         0.0000
     25 O1          8.0156   -3.2774   -1.6057 O.3       1 <0>         0.0000
     26 O2         -0.5881   -0.5541    2.4097 O.3       1 <0>         0.0000
     27 O3          7.9812   -5.1884   -3.4290 O.3       1 <0>         0.0000
     28 O4         -1.8503   -2.7240    1.6146 O.3       1 <0>         0.0000
     29 S1          8.2765   -3.5385   -3.2393 S.3       1 <0>         0.0000
     30 S2         -1.3437   -1.9363    3.0123 S.3       1 <0>         0.0000
     31 Cl1         2.6899   -7.2577   -5.0960 Cl        1 <0>         0.0000
     32 Cl2         2.0142   -5.3866   -2.0123 Cl        1 <0>         0.0000
     33 H1          3.4287   -2.8921   -1.6043 H         1 <0>         0.0000
     34 H2          5.7073   -1.0491    1.5491 H         1 <0>         0.0000
     35 H3          3.8058   -1.7960    2.7087 H         1 <0>         0.0000
     36 H4          2.1521   -0.9838   -1.1820 H         1 <0>         0.0000
     37 H5          5.4960   -3.6803   -2.6571 H         1 <0>         0.0000
     38 H6          7.7993   -1.8823    0.4986 H         1 <0>         0.0000
     39 H7          1.6367   -1.1927    3.7521 H         1 <0>         0.0000
     40 H8         -0.0273   -0.4188   -0.1250 H         1 <0>         0.0000
     41 H9          6.5383   -6.8746   -2.0942 H         1 <0>         0.0000
     42 H10         6.6336   -4.4224   -5.6196 H         1 <0>         0.0000
     43 H11        -2.1078   -2.9931   -0.8985 H         1 <0>         0.0000
     44 H12         0.4788   -3.9480    2.3957 H         1 <0>         0.0000
     45 H13         4.3112   -7.7908   -2.7893 H         1 <0>         0.0000
     46 H14         4.4110   -5.3180   -6.3110 H         1 <0>         0.0000
     47 H15        -0.5185   -4.1185   -2.4735 H         1 <0>         0.0000
     48 H16         2.0736   -5.0365    0.8370 H         1 <0>         0.0000
@<TRIPOS>BOND
     1    1    5 ar
     2    1   17 ar
     3    1   33 1
     4    2    6 ar
     5    2   17 ar
     6    2   34 1
     7    3    7 ar
     8    3   18 ar
     9    3   35 1
    10    4    8 ar
    11    4   18 ar
    12    4   36 1
    13    5   19 ar
    14    5   37 1
    15    6   19 ar
    16    6   38 1
    17    7   20 ar
    18    7   39 1
    19    8   20 ar
    20    8   40 1
    21    9   13 ar
    22    9   21 ar
    23    9   41 1
    24   10   14 ar
    25   10   21 ar
    26   10   42 1
    27   11   15 ar
    28   11   22 ar
    29   11   43 1
    30   12   16 ar
    31   12   22 ar
    32   12   44 1
    33   13   23 ar
    34   13   45 1
    35   14   23 ar
    36   14   46 1
    37   15   24 ar
    38   15   47 1
    39   16   24 ar
    40   16   48 1
    41   17   18 1
    42   19   25 1
    43   20   26 1
    44   21   27 1
    45   22   28 1
    46   23   31 1
    47   24   32 1
    48   25   29 1
    49   26   30 1
    50   27   29 1
    51   28   30 1
