@<TRIPOS>MOLECULE
*****
   48    51     0     0     0
SMALL
NO_CHARGES

@<TRIPOS>ATOM
      1 C1          4.4720   -1.5887   -2.6111 C.ar      1 <0>         0.0000
      2 C2          5.2101   -2.7622   -0.6395 C.ar      1 <0>         0.0000
      3 C3          3.7484   -0.5790    0.8672 C.ar      1 <0>         0.0000
      4 C4          2.1009   -0.7513   -0.8875 C.ar      1 <0>         0.0000
      5 C5          5.4401   -2.2477   -3.3694 C.ar      1 <0>         0.0000
      6 C6          6.1697   -3.4406   -1.3875 C.ar      1 <0>         0.0000
      7 C7          2.8577    0.1588    1.6460 C.ar      1 <0>         0.0000
      8 C8          1.1965   -0.0221   -0.1142 C.ar      1 <0>         0.0000
      9 C9          7.9960   -0.5256   -1.7352 C.ar      1 <0>         0.0000
     10 C10         9.3035   -2.0017   -0.3175 C.ar      1 <0>         0.0000
     11 C11        -2.1373   -1.1664    1.5459 C.ar      1 <0>         0.0000
     12 C12        -2.8691    0.1704    3.4383 C.ar      1 <0>         0.0000
     13 C13         7.4926    0.1213   -0.6051 C.ar      1 <0>         0.0000
     14 C14         8.8056   -1.3553    0.8158 C.ar      1 <0>         0.0000
     15 C15        -3.4327   -1.1404    1.0224 C.ar      1 <0>         0.0000
     16 C16        -4.1626    0.2046    2.9142 C.ar      1 <0>         0.0000
     17 C17         4.3569   -1.8122   -1.2290 C.ar      1 <0>         0.0000
     18 C18         3.3887   -1.0475   -0.4096 C.ar      1 <0>         0.0000
     19 C19         6.2999   -3.1517   -2.7466 C.ar      1 <0>         0.0000
     20 C20         1.5837    0.4308    1.1468 C.ar      1 <0>         0.0000
     21 C21         8.8815   -1.5917   -1.5824 C.ar      1 <0>         0.0000
     22 C22        -1.8679   -0.5159    2.7497 C.ar      1 <0>         0.0000
     23 C23         7.8966   -0.3064    0.6609 C.ar      1 <0>         0.0000
     24 C24        -4.4335   -0.4518    1.7104 C.ar      1 <0>         0.0000
     25 O1          7.3014   -3.7035   -3.5628 O.3       1 <0>         0.0000
     26 O2          0.6485    1.2088    1.8449 O.3       1 <0>         0.0000
     27 O3          9.3315   -2.2432   -2.7416 O.3       1 <0>         0.0000
     28 O4         -0.5698   -0.6272    3.2607 O.3       1 <0>         0.0000
     29 S1          8.8434   -3.8511   -2.9072 S.3       1 <0>         0.0000
     30 S2          0.3124    0.7972    3.4375 S.3       1 <0>         0.0000
     31 Cl1         7.2470    0.4855    2.0906 Cl        1 <0>         0.0000
     32 Cl2        -6.0619   -0.4094    1.0535 Cl        1 <0>         0.0000
     33 H1          3.8371   -0.8493   -3.0914 H         1 <0>         0.0000
     34 H2          5.1176   -2.9802    0.4205 H         1 <0>         0.0000
     35 H3          4.7501   -0.7595    1.2445 H         1 <0>         0.0000
     36 H4          1.7889   -1.1227   -1.8599 H         1 <0>         0.0000
     37 H5          5.5686   -2.0394   -4.4273 H         1 <0>         0.0000
     38 H6          6.8373   -4.1510   -0.9120 H         1 <0>         0.0000
     39 H7          3.1507    0.5230    2.6258 H         1 <0>         0.0000
     40 H8          0.1953    0.2006   -0.4711 H         1 <0>         0.0000
     41 H9          7.6769   -0.2349   -2.7302 H         1 <0>         0.0000
     42 H10        10.0000   -2.8287   -0.2183 H         1 <0>         0.0000
     43 H11        -1.3353   -1.6904    1.0352 H         1 <0>         0.0000
     44 H12        -2.6388    0.6758    4.3714 H         1 <0>         0.0000
     45 H13         6.7792    0.9323   -0.7079 H         1 <0>         0.0000
     46 H14         9.1183   -1.6642    1.8081 H         1 <0>         0.0000
     47 H15        -3.6603   -1.6444    0.0886 H         1 <0>         0.0000
     48 H16        -4.9547    0.7307    3.4374 H         1 <0>         0.0000
@<TRIPOS>BOND
     1    1    5 ar
     2    1   17 ar
     3    1   33 1
     4    2    6 ar
     5    2   17 ar
     6    2   34 1
     7    3    7 ar
     8    3   18 ar
     9    3   35 1
    10    4    8 ar
    11    4   18 ar
    12    4   36 1
    13    5   19 ar
    14    5   37 1
    15    6   19 ar
    16    6   38 1
    17    7   20 ar
    18    7   39 1
    19    8   20 ar
    20    8   40 1
    21    9   13 ar
    22    9   21 ar
    23    9   41 1
    24   10   14 ar
    25   10   21 ar
    26   10   42 1
    27   11   15 ar
    28   11   22 ar
    29   11   43 1
    30   12   16 ar
    31   12   22 ar
    32   12   44 1
    33   13   23 ar
    34   13   45 1
    35   14   23 ar
    36   14   46 1
    37   15   24 ar
    38   15   47 1
    39   16   24 ar
    40   16   48 1
    41   17   18 1
    42   19   25 1
    43   20   26 1
    44   21   27 1
    45   22   28 1
    46   23   31 1
    47   24   32 1
    48   25   29 1
    49   26   30 1
    50   27   29 1
    51   28   30 1
