@<TRIPOS>MOLECULE
*****
   48    51     0     0     0
SMALL
NO_CHARGES

@<TRIPOS>ATOM
      1 C1          4.2047   -3.0861   -0.9909 C.ar      1 <0>         0.0000
      2 C2          5.6757   -2.0515    0.6209 C.ar      1 <0>         0.0000
      3 C3          3.1234   -1.7720    2.2760 C.ar      1 <0>         0.0000
      4 C4          2.0900   -1.2432    0.1594 C.ar      1 <0>         0.0000
      5 C5          5.3067   -3.6149   -1.6639 C.ar      1 <0>         0.0000
      6 C6          6.7851   -2.5762   -0.0421 C.ar      1 <0>         0.0000
      7 C7          1.9807   -1.3402    2.9499 C.ar      1 <0>         0.0000
      8 C8          0.9453   -0.8031    0.8218 C.ar      1 <0>         0.0000
      9 C9          6.2635   -3.2158   -5.3538 C.ar      1 <0>         0.0000
     10 C10         8.5728   -3.9267   -5.6040 C.ar      1 <0>         0.0000
     11 C11        -1.5462   -3.1577   -0.1046 C.ar      1 <0>         0.0000
     12 C12        -0.0200   -3.9957    1.5871 C.ar      1 <0>         0.0000
     13 C13         5.8966   -4.0073   -6.4449 C.ar      1 <0>         0.0000
     14 C14         8.2071   -4.7251   -6.6895 C.ar      1 <0>         0.0000
     15 C15        -0.8197   -3.8200   -1.0957 C.ar      1 <0>         0.0000
     16 C16         0.7170   -4.6455    0.5955 C.ar      1 <0>         0.0000
     17 C17         4.3700   -2.2947    0.1585 C.ar      1 <0>         0.0000
     18 C18         3.1885   -1.7548    0.8715 C.ar      1 <0>         0.0000
     19 C19         6.5889   -3.3572   -1.1815 C.ar      1 <0>         0.0000
     20 C20         0.8894   -0.8836    2.2120 C.ar      1 <0>         0.0000
     21 C21         7.5966   -3.1783   -4.9447 C.ar      1 <0>         0.0000
     22 C22        -1.1347   -3.2371    1.2269 C.ar      1 <0>         0.0000
     23 C23         6.8724   -4.7591   -7.1019 C.ar      1 <0>         0.0000
     24 C24         0.3158   -4.5486   -0.7381 C.ar      1 <0>         0.0000
     25 O1          7.6622   -3.9578   -1.8549 O.3       1 <0>         0.0000
     26 O2         -0.3153   -0.5304    2.8456 O.3       1 <0>         0.0000
     27 O3          7.8974   -2.3165   -3.8832 O.3       1 <0>         0.0000
     28 O4         -1.9110   -2.4995    2.1335 O.3       1 <0>         0.0000
     29 S1          8.7764   -2.9347   -2.5882 S.3       1 <0>         0.0000
     30 S2         -1.1724   -1.8309    3.4901 S.3       1 <0>         0.0000
     31 Cl1         6.4161   -5.7649   -8.4676 Cl        1 <0>         0.0000
     32 Cl2         1.2574   -5.3521   -1.9883 Cl        1 <0>         0.0000
     33 H1          3.2063   -3.3163   -1.3492 H         1 <0>         0.0000
     34 H2          5.8275   -1.4257    1.4962 H         1 <0>         0.0000
     35 H3          3.9581   -2.1694    2.8468 H         1 <0>         0.0000
     36 H4          2.1284   -1.1946   -0.9248 H         1 <0>         0.0000
     37 H5          5.1856   -4.2392   -2.5439 H         1 <0>         0.0000
     38 H6          7.7926   -2.3744    0.3099 H         1 <0>         0.0000
     39 H7          1.9173   -1.3926    4.0330 H         1 <0>         0.0000
     40 H8          0.0830   -0.4360    0.2747 H         1 <0>         0.0000
     41 H9          5.5287   -2.6222   -4.8188 H         1 <0>         0.0000
     42 H10         9.6048   -3.8944   -5.2692 H         1 <0>         0.0000
     43 H11        -2.4182   -2.5613   -0.3547 H         1 <0>         0.0000
     44 H12         0.3019   -4.0451    2.6210 H         1 <0>         0.0000
     45 H13         4.8635   -4.0450   -6.7754 H         1 <0>         0.0000
     46 H14         8.9537   -5.3124   -7.2145 H         1 <0>         0.0000
     47 H15        -1.1253   -3.7572   -2.1353 H         1 <0>         0.0000
     48 H16         1.6024   -5.2146    0.8593 H         1 <0>         0.0000
@<TRIPOS>BOND
     1    1    5 ar
     2    1   17 ar
     3    1   33 1
     4    2    6 ar
     5    2   17 ar
     6    2   34 1
     7    3    7 ar
     8    3   18 ar
     9    3   35 1
    10    4    8 ar
    11    4   18 ar
    12    4   36 1
    13    5   19 ar
    14    5   37 1
    15    6   19 ar
    16    6   38 1
    17    7   20 ar
    18    7   39 1
    19    8   20 ar
    20    8   40 1
    21    9   13 ar
    22    9   21 ar
    23    9   41 1
    24   10   14 ar
    25   10   21 ar
    26   10   42 1
    27   11   15 ar
    28   11   22 ar
    29   11   43 1
    30   12   16 ar
    31   12   22 ar
    32   12   44 1
    33   13   23 ar
    34   13   45 1
    35   14   23 ar
    36   14   46 1
    37   15   24 ar
    38   15   47 1
    39   16   24 ar
    40   16   48 1
    41   17   18 1
    42   19   25 1
    43   20   26 1
    44   21   27 1
    45   22   28 1
    46   23   31 1
    47   24   32 1
    48   25   29 1
    49   26   30 1
    50   27   29 1
    51   28   30 1
