@<TRIPOS>MOLECULE
*****
   48    51     0     0     0
SMALL
NO_CHARGES

@<TRIPOS>ATOM
      1 C1          3.3953   -1.9015   -2.5134 C.ar      1 <0>         0.0000
      2 C2          3.3387   -4.0075   -1.3399 C.ar      1 <0>         0.0000
      3 C3          1.7775   -2.4963    0.7696 C.ar      1 <0>         0.0000
      4 C4          0.7287   -1.4084   -1.1126 C.ar      1 <0>         0.0000
      5 C5          4.3879   -2.3952   -3.3595 C.ar      1 <0>         0.0000
      6 C6          4.3360   -4.5150   -2.1738 C.ar      1 <0>         0.0000
      7 C7          0.7359   -2.0807    1.5973 C.ar      1 <0>         0.0000
      8 C8         -0.3216   -0.9902   -0.2950 C.ar      1 <0>         0.0000
      9 C9          8.5477   -7.7434   -2.7229 C.ar      1 <0>         0.0000
     10 C10         8.7744   -5.4197   -3.4016 C.ar      1 <0>         0.0000
     11 C11        -0.8990   -5.1211    2.4540 C.ar      1 <0>         0.0000
     12 C12        -1.4427   -4.3432    0.2199 C.ar      1 <0>         0.0000
     13 C13         9.9228   -7.8158   -2.4931 C.ar      1 <0>         0.0000
     14 C14        10.1522   -5.4963   -3.1804 C.ar      1 <0>         0.0000
     15 C15         0.0390   -6.0082    1.9228 C.ar      1 <0>         0.0000
     16 C16        -0.4936   -5.2180   -0.3118 C.ar      1 <0>         0.0000
     17 C17         2.8516   -2.6981   -1.4909 C.ar      1 <0>         0.0000
     18 C18         1.7820   -2.1877   -0.6017 C.ar      1 <0>         0.0000
     19 C19         4.8496   -3.7010   -3.1847 C.ar      1 <0>         0.0000
     20 C20        -0.3208   -1.3549    1.0506 C.ar      1 <0>         0.0000
     21 C21         7.9845   -6.5492   -3.1767 C.ar      1 <0>         0.0000
     22 C22        -1.6231   -4.2849    1.6026 C.ar      1 <0>         0.0000
     23 C23        10.7160   -6.6904   -2.7279 C.ar      1 <0>         0.0000
     24 C24         0.2435   -6.0399    0.5424 C.ar      1 <0>         0.0000
     25 O1          5.8843   -4.1062   -4.0396 O.3       1 <0>         0.0000
     26 O2         -1.4068   -1.0400    1.8870 O.3       1 <0>         0.0000
     27 O3          6.5933   -6.5478   -3.3281 O.3       1 <0>         0.0000
     28 O4         -2.5068   -3.4045    2.2453 O.3       1 <0>         0.0000
     29 S1          5.9095   -5.6879   -4.6008 S.3       1 <0>         0.0000
     30 S2         -2.8165   -1.9019    1.5537 S.3       1 <0>         0.0000
     31 Cl1        12.4476   -6.7781   -2.4454 Cl        1 <0>         0.0000
     32 Cl2         1.4519   -7.1274   -0.1292 Cl        1 <0>         0.0000
     33 H1          3.0540   -0.8776   -2.6386 H         1 <0>         0.0000
     34 H2          2.9187   -4.6539   -0.5758 H         1 <0>         0.0000
     35 H3          2.5944   -3.0728    1.1933 H         1 <0>         0.0000
     36 H4          0.7071   -1.1635   -2.1709 H         1 <0>         0.0000
     37 H5          4.8144   -1.7821   -4.1478 H         1 <0>         0.0000
     38 H6          4.7022   -5.5269   -2.0393 H         1 <0>         0.0000
     39 H7          0.7125   -2.3437    2.6498 H         1 <0>         0.0000
     40 H8         -1.1540   -0.4229   -0.7012 H         1 <0>         0.0000
     41 H9          7.9076   -8.6043   -2.5555 H         1 <0>         0.0000
     42 H10         8.3259   -4.4901   -3.7340 H         1 <0>         0.0000
     43 H11        -1.0611   -5.0544    3.5254 H         1 <0>         0.0000
     44 H12        -1.9992   -3.6841   -0.4365 H         1 <0>         0.0000
     45 H13        10.3736   -8.7389   -2.1433 H         1 <0>         0.0000
     46 H14        10.7805   -4.6276   -3.3493 H         1 <0>         0.0000
     47 H15         0.6143   -6.6558    2.5767 H         1 <0>         0.0000
     48 H16        -0.3230   -5.2514   -1.3829 H         1 <0>         0.0000
@<TRIPOS>BOND
     1    1    5 ar
     2    1   17 ar
     3    1   33 1
     4    2    6 ar
     5    2   17 ar
     6    2   34 1
     7    3    7 ar
     8    3   18 ar
     9    3   35 1
    10    4    8 ar
    11    4   18 ar
    12    4   36 1
    13    5   19 ar
    14    5   37 1
    15    6   19 ar
    16    6   38 1
    17    7   20 ar
    18    7   39 1
    19    8   20 ar
    20    8   40 1
    21    9   13 ar
    22    9   21 ar
    23    9   41 1
    24   10   14 ar
    25   10   21 ar
    26   10   42 1
    27   11   15 ar
    28   11   22 ar
    29   11   43 1
    30   12   16 ar
    31   12   22 ar
    32   12   44 1
    33   13   23 ar
    34   13   45 1
    35   14   23 ar
    36   14   46 1
    37   15   24 ar
    38   15   47 1
    39   16   24 ar
    40   16   48 1
    41   17   18 1
    42   19   25 1
    43   20   26 1
    44   21   27 1
    45   22   28 1
    46   23   31 1
    47   24   32 1
    48   25   29 1
    49   26   30 1
    50   27   29 1
    51   28   30 1
