@<TRIPOS>MOLECULE
*****
   25    25     0     0     0
SMALL
NO_CHARGES

@<TRIPOS>ATOM
      1 C1          4.1269    0.2406   -5.6381 C.2       1 <0>         0.0000
      2 C2          3.9884   -0.1397   -4.3332 C.2       1 <0>         0.0000
      3 C3          6.0913   -0.7740   -4.6170 C.2       1 <0>         0.0000
      4 C4          2.9981    1.1125   -2.4222 C.2       1 <0>         0.0000
      5 C5          3.2682    1.5265   -0.1141 C.3       1 <0>         0.0000
      6 C6          7.0826   -2.4830   -1.8499 C.3       1 <0>         0.0000
      7 C7          2.7614    0.0463   -3.4846 C.3       1 <0>         0.0000
      8 N1          5.1140   -0.7027   -3.7592 N.2       1 <0>         0.0000
      9 N2          7.3355   -1.3223   -4.2985 N.pl3     1 <0>         0.0000
     10 O1          3.1518    2.2938   -2.6598 O.2       1 <0>         0.0000
     11 O2          6.3159   -3.7362   -4.0615 O.2       1 <0>         0.0000
     12 O3          8.8052   -3.2822   -3.7447 O.2       1 <0>         0.0000
     13 O4          3.0200    0.5830   -1.1793 O.3       1 <0>         0.0000
     14 S1          5.7176   -0.1622   -6.2201 S.3       1 <0>         0.0000
     15 S2          7.4040   -2.8961   -3.5677 S.o2      1 <0>         0.0000
     16 H1          3.4144    0.7531   -6.2703 H         1 <0>         0.0000
     17 H2          3.2565    0.9382    0.8032 H         1 <0>         0.0000
     18 H3          2.4879    2.2907   -0.0935 H         1 <0>         0.0000
     19 H4          4.2390    2.0072   -0.2542 H         1 <0>         0.0000
     20 H5          7.0790   -3.4281   -1.3036 H         1 <0>         0.0000
     21 H6          7.8839   -1.8296   -1.5056 H         1 <0>         0.0000
     22 H7          6.1109   -1.9905   -1.8077 H         1 <0>         0.0000
     23 H8          1.9296    0.3831   -4.1073 H         1 <0>         0.0000
     24 H9          2.4931   -0.8992   -3.0084 H         1 <0>         0.0000
     25 H10         8.0633   -1.2559   -5.0072 H         1 <0>         0.0000
@<TRIPOS>BOND
     1    1    2 2
     2    1   14 1
     3    1   16 1
     4    2    7 1
     5    2    8 1
     6    3    8 2
     7    3    9 1
     8    3   14 1
     9    4    7 1
    10    4   10 2
    11    4   13 1
    12    5   13 1
    13    5   17 1
    14    5   18 1
    15    5   19 1
    16    6   15 1
    17    6   20 1
    18    6   21 1
    19    6   22 1
    20    7   23 1
    21    7   24 1
    22    9   15 1
    23    9   25 1
    24   11   15 2
    25   12   15 2
