@<TRIPOS>MOLECULE
*****
   48    51     0     0     0
SMALL
NO_CHARGES

@<TRIPOS>ATOM
      1 C1          5.7087   -1.3118   -0.6954 C.ar      1 <0>         0.0000
      2 C2          4.1672   -2.7919   -1.8076 C.ar      1 <0>         0.0000
      3 C3          2.2338   -2.0278    0.4017 C.ar      1 <0>         0.0000
      4 C4          3.2252    0.1617    0.2370 C.ar      1 <0>         0.0000
      5 C5          6.7605   -1.8360   -1.4455 C.ar      1 <0>         0.0000
      6 C6          5.2099   -3.3363   -2.5594 C.ar      1 <0>         0.0000
      7 C7          1.1745   -1.5077    1.1475 C.ar      1 <0>         0.0000
      8 C8          2.1807    0.6965    0.9900 C.ar      1 <0>         0.0000
      9 C9          8.7251   -6.3838   -3.3476 C.ar      1 <0>         0.0000
     10 C10         7.3567   -7.6663   -4.8949 C.ar      1 <0>         0.0000
     11 C11        -4.0570   -1.6560    2.3424 C.ar      1 <0>         0.0000
     12 C12        -3.0801    0.4661    1.6685 C.ar      1 <0>         0.0000
     13 C13         9.5000   -7.5202   -3.1010 C.ar      1 <0>         0.0000
     14 C14         8.1257   -8.8034   -4.6403 C.ar      1 <0>         0.0000
     15 C15        -5.3114   -1.2216    1.9098 C.ar      1 <0>         0.0000
     16 C16        -4.3380    0.9034    1.2449 C.ar      1 <0>         0.0000
     17 C17         4.3916   -1.7749   -0.8641 C.ar      1 <0>         0.0000
     18 C18         3.2757   -1.2101   -0.0682 C.ar      1 <0>         0.0000
     19 C19         6.5031   -2.8447   -2.3753 C.ar      1 <0>         0.0000
     20 C20         1.1622   -0.1437    1.4425 C.ar      1 <0>         0.0000
     21 C21         7.6625   -6.4663   -4.2501 C.ar      1 <0>         0.0000
     22 C22        -2.9529   -0.8101    2.2213 C.ar      1 <0>         0.0000
     23 C23         9.1958   -8.7199   -3.7466 C.ar      1 <0>         0.0000
     24 C24        -5.4426    0.0588    1.3674 C.ar      1 <0>         0.0000
     25 O1          7.6213   -3.3551   -3.0498 O.3       1 <0>         0.0000
     26 O2          0.1220    0.4795    2.1466 O.3       1 <0>         0.0000
     27 O3          6.8105   -5.3897   -4.5214 O.3       1 <0>         0.0000
     28 O4         -1.7247   -1.3423    2.6300 O.3       1 <0>         0.0000
     29 S1          7.4638   -3.8449   -4.6467 S.3       1 <0>         0.0000
     30 S2         -0.6209   -0.3398    3.4082 S.3       1 <0>         0.0000
     31 Cl1        10.1707  -10.1460   -3.4278 Cl        1 <0>         0.0000
     32 Cl2        -7.0199    0.6128    0.8280 Cl        1 <0>         0.0000
     33 H1          5.9197   -0.5457    0.0453 H         1 <0>         0.0000
     34 H2          3.1572   -3.1554   -1.9746 H         1 <0>         0.0000
     35 H3          2.2564   -3.0949    0.1994 H         1 <0>         0.0000
     36 H4          4.0008    0.8252   -0.1347 H         1 <0>         0.0000
     37 H5          7.7786   -1.4815   -1.3146 H         1 <0>         0.0000
     38 H6          5.0176   -4.1272   -3.2761 H         1 <0>         0.0000
     39 H7          0.3750   -2.1538    1.4933 H         1 <0>         0.0000
     40 H8          2.1388    1.7560    1.2242 H         1 <0>         0.0000
     41 H9          8.9428   -5.4529   -2.8358 H         1 <0>         0.0000
     42 H10         6.5238   -7.7001   -5.5906 H         1 <0>         0.0000
     43 H11        -3.9269   -2.6432    2.7751 H         1 <0>         0.0000
     44 H12        -2.2135    1.1087    1.5595 H         1 <0>         0.0000
     45 H13        10.3292   -7.4735   -2.4022 H         1 <0>         0.0000
     46 H14         7.9007   -9.7415   -5.1374 H         1 <0>         0.0000
     47 H15        -6.1784   -1.8679    2.0014 H         1 <0>         0.0000
     48 H16        -4.4543    1.8922    0.8128 H         1 <0>         0.0000
@<TRIPOS>BOND
     1    1    5 ar
     2    1   17 ar
     3    1   33 1
     4    2    6 ar
     5    2   17 ar
     6    2   34 1
     7    3    7 ar
     8    3   18 ar
     9    3   35 1
    10    4    8 ar
    11    4   18 ar
    12    4   36 1
    13    5   19 ar
    14    5   37 1
    15    6   19 ar
    16    6   38 1
    17    7   20 ar
    18    7   39 1
    19    8   20 ar
    20    8   40 1
    21    9   13 ar
    22    9   21 ar
    23    9   41 1
    24   10   14 ar
    25   10   21 ar
    26   10   42 1
    27   11   15 ar
    28   11   22 ar
    29   11   43 1
    30   12   16 ar
    31   12   22 ar
    32   12   44 1
    33   13   23 ar
    34   13   45 1
    35   14   23 ar
    36   14   46 1
    37   15   24 ar
    38   15   47 1
    39   16   24 ar
    40   16   48 1
    41   17   18 1
    42   19   25 1
    43   20   26 1
    44   21   27 1
    45   22   28 1
    46   23   31 1
    47   24   32 1
    48   25   29 1
    49   26   30 1
    50   27   29 1
    51   28   30 1
