@<TRIPOS>MOLECULE
*****
   48    51     0     0     0
SMALL
NO_CHARGES

@<TRIPOS>ATOM
      1 C1          5.0292   -1.7149   -1.3735 C.ar      1 <0>         0.0000
      2 C2          4.6740   -3.8473   -0.3089 C.ar      1 <0>         0.0000
      3 C3          2.9539   -2.3155    1.6390 C.ar      1 <0>         0.0000
      4 C4          2.2263   -1.0865   -0.3067 C.ar      1 <0>         0.0000
      5 C5          6.0959   -2.2509   -2.0955 C.ar      1 <0>         0.0000
      6 C6          5.7401   -4.3956   -1.0197 C.ar      1 <0>         0.0000
      7 C7          1.8366   -1.8725    2.3439 C.ar      1 <0>         0.0000
      8 C8          1.1017   -0.6389    0.3876 C.ar      1 <0>         0.0000
      9 C9          4.6795   -6.9675   -3.6609 C.ar      1 <0>         0.0000
     10 C10         4.4066   -4.6888   -4.4582 C.ar      1 <0>         0.0000
     11 C11         0.0061   -4.9397    2.7029 C.ar      1 <0>         0.0000
     12 C12        -0.1968   -3.9149    0.5125 C.ar      1 <0>         0.0000
     13 C13         3.3063   -7.0516   -3.4240 C.ar      1 <0>         0.0000
     14 C14         3.0317   -4.7709   -4.2288 C.ar      1 <0>         0.0000
     15 C15         0.9375   -5.8487    2.1967 C.ar      1 <0>         0.0000
     16 C16         0.7485   -4.8096    0.0093 C.ar      1 <0>         0.0000
     17 C17         4.2987   -2.5024   -0.4681 C.ar      1 <0>         0.0000
     18 C18         3.1554   -1.9527    0.2962 C.ar      1 <0>         0.0000
     19 C19         6.4440   -3.5904   -1.9147 C.ar      1 <0>         0.0000
     20 C20         0.9026   -1.0623    1.7011 C.ar      1 <0>         0.0000
     21 C21         5.2169   -5.7882   -4.1782 C.ar      1 <0>         0.0000
     22 C22        -0.5461   -3.9715    1.8621 C.ar      1 <0>         0.0000
     23 C23         2.4946   -5.9538   -3.7182 C.ar      1 <0>         0.0000
     24 C24         1.3089   -5.7682    0.8535 C.ar      1 <0>         0.0000
     25 O1          7.5420   -4.0314   -2.6726 O.3       1 <0>         0.0000
     26 O2         -0.2705   -0.7309    2.4013 O.3       1 <0>         0.0000
     27 O3          6.5840   -5.6833   -4.4661 O.3       1 <0>         0.0000
     28 O4         -1.4423   -3.0877    2.4853 O.3       1 <0>         0.0000
     29 S1          7.6256   -5.6383   -3.1411 S.3       1 <0>         0.0000
     30 S2         -1.6495   -1.5396    1.8616 S.3       1 <0>         0.0000
     31 Cl1         0.7612   -6.0707   -3.4538 Cl        1 <0>         0.0000
     32 Cl2         2.5044   -6.8910    0.2127 Cl        1 <0>         0.0000
     33 H1          4.7779   -0.6654   -1.5010 H         1 <0>         0.0000
     34 H2          4.1067   -4.4890    0.3570 H         1 <0>         0.0000
     35 H3          3.6741   -2.9590    2.1353 H         1 <0>         0.0000
     36 H4          2.3590   -0.7965   -1.3455 H         1 <0>         0.0000
     37 H5          6.6672   -1.6460   -2.7933 H         1 <0>         0.0000
     38 H6          5.9956   -5.4425   -0.8992 H         1 <0>         0.0000
     39 H7          1.6577   -2.1794    3.3694 H         1 <0>         0.0000
     40 H8          0.3618   -0.0062   -0.0942 H         1 <0>         0.0000
     41 H9          5.3291   -7.8106   -3.4452 H         1 <0>         0.0000
     42 H10         4.8559   -3.7797   -4.8448 H         1 <0>         0.0000
     43 H11        -0.2844   -4.9617    3.7488 H         1 <0>         0.0000
     44 H12        -0.6204   -3.1571   -0.1361 H         1 <0>         0.0000
     45 H13         2.8690   -7.9594   -3.0218 H         1 <0>         0.0000
     46 H14         2.3863   -3.9251   -4.4431 H         1 <0>         0.0000
     47 H15         1.3769   -6.6015    2.8433 H         1 <0>         0.0000
     48 H16         1.0433   -4.7596   -1.0321 H         1 <0>         0.0000
@<TRIPOS>BOND
     1    1    5 ar
     2    1   17 ar
     3    1   33 1
     4    2    6 ar
     5    2   17 ar
     6    2   34 1
     7    3    7 ar
     8    3   18 ar
     9    3   35 1
    10    4    8 ar
    11    4   18 ar
    12    4   36 1
    13    5   19 ar
    14    5   37 1
    15    6   19 ar
    16    6   38 1
    17    7   20 ar
    18    7   39 1
    19    8   20 ar
    20    8   40 1
    21    9   13 ar
    22    9   21 ar
    23    9   41 1
    24   10   14 ar
    25   10   21 ar
    26   10   42 1
    27   11   15 ar
    28   11   22 ar
    29   11   43 1
    30   12   16 ar
    31   12   22 ar
    32   12   44 1
    33   13   23 ar
    34   13   45 1
    35   14   23 ar
    36   14   46 1
    37   15   24 ar
    38   15   47 1
    39   16   24 ar
    40   16   48 1
    41   17   18 1
    42   19   25 1
    43   20   26 1
    44   21   27 1
    45   22   28 1
    46   23   31 1
    47   24   32 1
    48   25   29 1
    49   26   30 1
    50   27   29 1
    51   28   30 1
