@<TRIPOS>MOLECULE
*****
   48    51     0     0     0
SMALL
NO_CHARGES

@<TRIPOS>ATOM
      1 C1          4.3662   -3.5494   -1.2672 C.ar      1 <0>         0.0000
      2 C2          5.9566   -2.5014    0.2114 C.ar      1 <0>         0.0000
      3 C3          3.5237   -1.2138    1.4895 C.ar      1 <0>         0.0000
      4 C4          2.6639   -1.0885   -0.7581 C.ar      1 <0>         0.0000
      5 C5          5.3498   -4.4393   -1.7007 C.ar      1 <0>         0.0000
      6 C6          6.9470   -3.3905   -0.2057 C.ar      1 <0>         0.0000
      7 C7          2.5420   -0.3247    1.9299 C.ar      1 <0>         0.0000
      8 C8          1.6816   -0.1927   -0.3373 C.ar      1 <0>         0.0000
      9 C9          7.0443   -4.7438   -5.1853 C.ar      1 <0>         0.0000
     10 C10         9.2086   -5.8479   -5.1845 C.ar      1 <0>         0.0000
     11 C11        -0.6510    1.3354    5.8884 C.ar      1 <0>         0.0000
     12 C12        -1.6357    0.8521    3.7184 C.ar      1 <0>         0.0000
     13 C13         6.6468   -5.5166   -6.2795 C.ar      1 <0>         0.0000
     14 C14         8.8118   -6.6271   -6.2729 C.ar      1 <0>         0.0000
     15 C15        -1.8745    1.0729    6.5075 C.ar      1 <0>         0.0000
     16 C16        -2.8622    0.5989    4.3384 C.ar      1 <0>         0.0000
     17 C17         4.6507   -2.5622   -0.3080 C.ar      1 <0>         0.0000
     18 C18         3.6056   -1.6135    0.1445 C.ar      1 <0>         0.0000
     19 C19         6.6336   -4.3559   -1.1627 C.ar      1 <0>         0.0000
     20 C20         1.6292    0.1851    1.0051 C.ar      1 <0>         0.0000
     21 C21         8.3214   -4.9121   -4.6510 C.ar      1 <0>         0.0000
     22 C22        -0.5410    1.2256    4.5010 C.ar      1 <0>         0.0000
     23 C23         7.5338   -6.4543   -6.8117 C.ar      1 <0>         0.0000
     24 C24        -2.9733    0.7099    5.7255 C.ar      1 <0>         0.0000
     25 O1          7.5556   -5.3204   -1.5946 O.3       1 <0>         0.0000
     26 O2          0.5823    1.0460    1.3626 O.3       1 <0>         0.0000
     27 O3          8.6892   -4.0685   -3.5965 O.3       1 <0>         0.0000
     28 O4          0.7328    1.4528    3.9670 O.3       1 <0>         0.0000
     29 S1          9.0603   -4.7963   -2.1230 S.3       1 <0>         0.0000
     30 S2          0.8696    2.2528    2.4941 S.3       1 <0>         0.0000
     31 Cl1         7.0365   -7.4339   -8.1822 Cl        1 <0>         0.0000
     32 Cl2        -4.5164    0.3849    6.4994 Cl        1 <0>         0.0000
     33 H1          3.3590   -3.6394   -1.6643 H         1 <0>         0.0000
     34 H2          6.2100   -1.7326    0.9360 H         1 <0>         0.0000
     35 H3          4.2148   -1.6323    2.2159 H         1 <0>         0.0000
     36 H4          2.7203   -1.3541   -1.8101 H         1 <0>         0.0000
     37 H5          5.1337   -5.2101   -2.4346 H         1 <0>         0.0000
     38 H6          7.9549   -3.3244    0.1923 H         1 <0>         0.0000
     39 H7          2.4763   -0.0490    2.9768 H         1 <0>         0.0000
     40 H8          0.9645    0.2278   -1.0361 H         1 <0>         0.0000
     41 H9          6.3781   -4.0083   -4.7451 H         1 <0>         0.0000
     42 H10        10.1967   -5.9691   -4.7511 H         1 <0>         0.0000
     43 H11         0.2179    1.6267    6.4705 H         1 <0>         0.0000
     44 H12        -1.5357    0.7498    2.6435 H         1 <0>         0.0000
     45 H13         5.6577   -5.3960   -6.7098 H         1 <0>         0.0000
     46 H14         9.4895   -7.3577   -6.7028 H         1 <0>         0.0000
     47 H15        -1.9746    1.1577    7.5848 H         1 <0>         0.0000
     48 H16        -3.7230    0.3068    3.7452 H         1 <0>         0.0000
@<TRIPOS>BOND
     1    1    5 ar
     2    1   17 ar
     3    1   33 1
     4    2    6 ar
     5    2   17 ar
     6    2   34 1
     7    3    7 ar
     8    3   18 ar
     9    3   35 1
    10    4    8 ar
    11    4   18 ar
    12    4   36 1
    13    5   19 ar
    14    5   37 1
    15    6   19 ar
    16    6   38 1
    17    7   20 ar
    18    7   39 1
    19    8   20 ar
    20    8   40 1
    21    9   13 ar
    22    9   21 ar
    23    9   41 1
    24   10   14 ar
    25   10   21 ar
    26   10   42 1
    27   11   15 ar
    28   11   22 ar
    29   11   43 1
    30   12   16 ar
    31   12   22 ar
    32   12   44 1
    33   13   23 ar
    34   13   45 1
    35   14   23 ar
    36   14   46 1
    37   15   24 ar
    38   15   47 1
    39   16   24 ar
    40   16   48 1
    41   17   18 1
    42   19   25 1
    43   20   26 1
    44   21   27 1
    45   22   28 1
    46   23   31 1
    47   24   32 1
    48   25   29 1
    49   26   30 1
    50   27   29 1
    51   28   30 1
