@<TRIPOS>MOLECULE
*****
   48    51     0     0     0
SMALL
NO_CHARGES

@<TRIPOS>ATOM
      1 C1          4.2189   -1.6804   -1.5817 C.ar      1 <0>         0.0000
      2 C2          4.7973   -3.2689    0.1411 C.ar      1 <0>         0.0000
      3 C3          3.2220   -1.4244    1.9594 C.ar      1 <0>         0.0000
      4 C4          1.7089   -1.2202    0.0899 C.ar      1 <0>         0.0000
      5 C5          5.2419   -2.1745   -2.3913 C.ar      1 <0>         0.0000
      6 C6          5.8193   -3.7745   -0.6607 C.ar      1 <0>         0.0000
      7 C7          2.2707   -0.8545    2.8046 C.ar      1 <0>         0.0000
      8 C8          0.7497   -0.6444    0.9247 C.ar      1 <0>         0.0000
      9 C9          8.7975   -2.8738    1.0561 C.ar      1 <0>         0.0000
     10 C10         7.7866   -1.0232   -0.1468 C.ar      1 <0>         0.0000
     11 C11        -0.8414    2.9189    0.8506 C.ar      1 <0>         0.0000
     12 C12        -1.7603    3.6284    2.9846 C.ar      1 <0>         0.0000
     13 C13         8.2004   -2.4375    2.2401 C.ar      1 <0>         0.0000
     14 C14         7.1755   -0.5947    1.0329 C.ar      1 <0>         0.0000
     15 C15        -1.9892    3.3787    0.1995 C.ar      1 <0>         0.0000
     16 C16        -2.9116    4.0817    2.3380 C.ar      1 <0>         0.0000
     17 C17         3.9943   -2.2010   -0.2950 C.ar      1 <0>         0.0000
     18 C18         2.9604   -1.6161    0.5907 C.ar      1 <0>         0.0000
     19 C19         6.0517   -3.2023   -1.9100 C.ar      1 <0>         0.0000
     20 C20         1.0384   -0.4677    2.2775 C.ar      1 <0>         0.0000
     21 C21         8.5756   -2.1743   -0.1313 C.ar      1 <0>         0.0000
     22 C22        -0.7343    3.0514    2.2348 C.ar      1 <0>         0.0000
     23 C23         7.3816   -1.3074    2.2154 C.ar      1 <0>         0.0000
     24 C24        -3.0163    3.9537    0.9502 C.ar      1 <0>         0.0000
     25 O1          7.1534   -3.6631   -2.6527 O.3       1 <0>         0.0000
     26 O2          0.0160    0.0641    3.0767 O.3       1 <0>         0.0000
     27 O3          9.1865   -2.7250   -1.2681 O.3       1 <0>         0.0000
     28 O4          0.4641    2.6329    2.8238 O.3       1 <0>         0.0000
     29 S1          8.4287   -2.5664   -2.7626 S.3       1 <0>         0.0000
     30 S2          0.3709    1.4250    3.9944 S.3       1 <0>         0.0000
     31 Cl1         6.5937   -0.7781    3.6965 Cl        1 <0>         0.0000
     32 Cl2        -4.4643    4.5271    0.1384 Cl        1 <0>         0.0000
     33 H1          3.6156   -0.8495   -1.9369 H         1 <0>         0.0000
     34 H2          4.6253   -3.7057    1.1204 H         1 <0>         0.0000
     35 H3          4.1909   -1.6962    2.3663 H         1 <0>         0.0000
     36 H4          1.4727   -1.3818   -0.9583 H         1 <0>         0.0000
     37 H5          5.4386   -1.7434   -3.3686 H         1 <0>         0.0000
     38 H6          6.4617   -4.5781   -0.3154 H         1 <0>         0.0000
     39 H7          2.4899   -0.6943    3.8559 H         1 <0>         0.0000
     40 H8         -0.2240   -0.3452    0.5485 H         1 <0>         0.0000
     41 H9          9.4173   -3.7649    1.0379 H         1 <0>         0.0000
     42 H10         7.6087   -0.4898   -1.0736 H         1 <0>         0.0000
     43 H11        -0.0253    2.4647    0.2971 H         1 <0>         0.0000
     44 H12        -1.6625    3.7182    4.0622 H         1 <0>         0.0000
     45 H13         8.3579   -2.9795    3.1671 H         1 <0>         0.0000
     46 H14         6.5357    0.2817    1.0281 H         1 <0>         0.0000
     47 H15        -2.0869    3.2859   -0.8774 H         1 <0>         0.0000
     48 H16        -3.7181    4.5357    2.9049 H         1 <0>         0.0000
@<TRIPOS>BOND
     1    1    5 ar
     2    1   17 ar
     3    1   33 1
     4    2    6 ar
     5    2   17 ar
     6    2   34 1
     7    3    7 ar
     8    3   18 ar
     9    3   35 1
    10    4    8 ar
    11    4   18 ar
    12    4   36 1
    13    5   19 ar
    14    5   37 1
    15    6   19 ar
    16    6   38 1
    17    7   20 ar
    18    7   39 1
    19    8   20 ar
    20    8   40 1
    21    9   13 ar
    22    9   21 ar
    23    9   41 1
    24   10   14 ar
    25   10   21 ar
    26   10   42 1
    27   11   15 ar
    28   11   22 ar
    29   11   43 1
    30   12   16 ar
    31   12   22 ar
    32   12   44 1
    33   13   23 ar
    34   13   45 1
    35   14   23 ar
    36   14   46 1
    37   15   24 ar
    38   15   47 1
    39   16   24 ar
    40   16   48 1
    41   17   18 1
    42   19   25 1
    43   20   26 1
    44   21   27 1
    45   22   28 1
    46   23   31 1
    47   24   32 1
    48   25   29 1
    49   26   30 1
    50   27   29 1
    51   28   30 1
