@<TRIPOS>MOLECULE
*****
   48    51     0     0     0
SMALL
NO_CHARGES

@<TRIPOS>ATOM
      1 C1          5.6426   -3.3216   -0.8981 C.ar      1 <0>         0.0000
      2 C2          7.1258   -2.4485    0.7941 C.ar      1 <0>         0.0000
      3 C3          4.5919   -1.2424    1.9872 C.ar      1 <0>         0.0000
      4 C4          3.9844   -0.8563   -0.3148 C.ar      1 <0>         0.0000
      5 C5          6.6599   -4.1493   -1.3704 C.ar      1 <0>         0.0000
      6 C6          8.1530   -3.2694    0.3280 C.ar      1 <0>         0.0000
      7 C7          3.6002   -0.3562    2.4116 C.ar      1 <0>         0.0000
      8 C8          2.9972    0.0402    0.0916 C.ar      1 <0>         0.0000
      9 C9          7.3896   -2.8167   -4.5911 C.ar      1 <0>         0.0000
     10 C10         8.3432   -1.5160   -2.7768 C.ar      1 <0>         0.0000
     11 C11         0.0660    1.1006    6.1679 C.ar      1 <0>         0.0000
     12 C12        -0.6863    0.8199    3.8728 C.ar      1 <0>         0.0000
     13 C13         6.3232   -1.9202   -4.6806 C.ar      1 <0>         0.0000
     14 C14         7.2692   -0.6277   -2.8539 C.ar      1 <0>         0.0000
     15 C15        -1.2257    0.8386    6.6286 C.ar      1 <0>         0.0000
     16 C16        -1.9808    0.5671    4.3346 C.ar      1 <0>         0.0000
     17 C17         5.8626   -2.4422    0.1760 C.ar      1 <0>         0.0000
     18 C18         4.8012   -1.5107    0.6240 C.ar      1 <0>         0.0000
     19 C19         7.9165   -4.0949   -0.7702 C.ar      1 <0>         0.0000
     20 C20         2.8131    0.2849    1.4531 C.ar      1 <0>         0.0000
     21 C21         8.3842   -2.6183   -3.6319 C.ar      1 <0>         0.0000
     22 C22         0.3256    1.0916    4.7962 C.ar      1 <0>         0.0000
     23 C23         6.2651   -0.8385   -3.8003 C.ar      1 <0>         0.0000
     24 C24        -2.2413    0.5773    5.7061 C.ar      1 <0>         0.0000
     25 O1          8.9497   -4.8654   -1.3332 O.3       1 <0>         0.0000
     26 O2          1.7656    1.1549    1.7871 O.3       1 <0>         0.0000
     27 O3          9.3839   -3.6022   -3.6012 O.3       1 <0>         0.0000
     28 O4          1.6562    1.3092    4.4209 O.3       1 <0>         0.0000
     29 S1         10.1292   -3.9696   -2.1375 S.3       1 <0>         0.0000
     30 S2          1.9750    2.2362    3.0537 S.3       1 <0>         0.0000
     31 Cl1         4.9029    0.2718   -3.8817 Cl        1 <0>         0.0000
     32 Cl2        -3.8694    0.2531    6.2805 Cl        1 <0>         0.0000
     33 H1          4.6669   -3.3557   -1.3737 H         1 <0>         0.0000
     34 H2          7.3215   -1.7718    1.6213 H         1 <0>         0.0000
     35 H3          5.1875   -1.7607    2.7337 H         1 <0>         0.0000
     36 H4          4.1464   -1.0145   -1.3764 H         1 <0>         0.0000
     37 H5          6.5035   -4.8071   -2.2193 H         1 <0>         0.0000
     38 H6          9.1392   -3.2429    0.7824 H         1 <0>         0.0000
     39 H7          3.4309   -0.1812    3.4685 H         1 <0>         0.0000
     40 H8          2.3797    0.5629   -0.6327 H         1 <0>         0.0000
     41 H9          7.4485   -3.6823   -5.2437 H         1 <0>         0.0000
     42 H10         9.1120   -1.3721   -2.0264 H         1 <0>         0.0000
     43 H11         0.8734    1.3142    6.8616 H         1 <0>         0.0000
     44 H12        -0.4708    0.7959    2.8103 H         1 <0>         0.0000
     45 H13         5.5395   -2.0705   -5.4162 H         1 <0>         0.0000
     46 H14         7.2106    0.2163   -2.1744 H         1 <0>         0.0000
     47 H15        -1.4420    0.8458    7.6921 H         1 <0>         0.0000
     48 H16        -2.7788    0.3535    3.6308 H         1 <0>         0.0000
@<TRIPOS>BOND
     1    1    5 ar
     2    1   17 ar
     3    1   33 1
     4    2    6 ar
     5    2   17 ar
     6    2   34 1
     7    3    7 ar
     8    3   18 ar
     9    3   35 1
    10    4    8 ar
    11    4   18 ar
    12    4   36 1
    13    5   19 ar
    14    5   37 1
    15    6   19 ar
    16    6   38 1
    17    7   20 ar
    18    7   39 1
    19    8   20 ar
    20    8   40 1
    21    9   13 ar
    22    9   21 ar
    23    9   41 1
    24   10   14 ar
    25   10   21 ar
    26   10   42 1
    27   11   15 ar
    28   11   22 ar
    29   11   43 1
    30   12   16 ar
    31   12   22 ar
    32   12   44 1
    33   13   23 ar
    34   13   45 1
    35   14   23 ar
    36   14   46 1
    37   15   24 ar
    38   15   47 1
    39   16   24 ar
    40   16   48 1
    41   17   18 1
    42   19   25 1
    43   20   26 1
    44   21   27 1
    45   22   28 1
    46   23   31 1
    47   24   32 1
    48   25   29 1
    49   26   30 1
    50   27   29 1
    51   28   30 1
