@<TRIPOS>MOLECULE
*****
   48    51     0     0     0
SMALL
NO_CHARGES

@<TRIPOS>ATOM
      1 C1          4.6841   -2.2775   -2.6948 C.ar      1 <0>         0.0000
      2 C2          6.2108   -1.5306   -0.9858 C.ar      1 <0>         0.0000
      3 C3          3.8878   -1.9989    0.9008 C.ar      1 <0>         0.0000
      4 C4          2.5249   -1.1150   -0.8835 C.ar      1 <0>         0.0000
      5 C5          5.7577   -2.5209   -3.5519 C.ar      1 <0>         0.0000
      6 C6          7.2913   -1.7522   -1.8368 C.ar      1 <0>         0.0000
      7 C7          2.8268   -1.8596    1.7949 C.ar      1 <0>         0.0000
      8 C8          1.4582   -0.9612    0.0032 C.ar      1 <0>         0.0000
      9 C9          6.8501   -5.1682   -1.5552 C.ar      1 <0>         0.0000
     10 C10         8.9431   -4.6433   -0.4405 C.ar      1 <0>         0.0000
     11 C11        -0.1723    2.2944    1.3940 C.ar      1 <0>         0.0000
     12 C12        -1.3488    2.0896    3.5101 C.ar      1 <0>         0.0000
     13 C13         6.1860   -5.1481   -0.3274 C.ar      1 <0>         0.0000
     14 C14         8.2839   -4.6258    0.7904 C.ar      1 <0>         0.0000
     15 C15        -1.2368    3.0327    0.8701 C.ar      1 <0>         0.0000
     16 C16        -2.4171    2.8207    2.9875 C.ar      1 <0>         0.0000
     17 C17         4.8914   -1.8047   -1.3883 C.ar      1 <0>         0.0000
     18 C18         3.7585   -1.6302   -0.4506 C.ar      1 <0>         0.0000
     19 C19         7.0571   -2.2797   -3.1073 C.ar      1 <0>         0.0000
     20 C20         1.6166   -1.3385    1.3367 C.ar      1 <0>         0.0000
     21 C21         8.2170   -4.8980   -1.6042 C.ar      1 <0>         0.0000
     22 C22        -0.2353    1.8339    2.7088 C.ar      1 <0>         0.0000
     23 C23         6.9091   -4.8682    0.8335 C.ar      1 <0>         0.0000
     24 C24        -2.3516    3.2866    1.6714 C.ar      1 <0>         0.0000
     25 O1          8.0830   -2.6345   -3.9992 O.3       1 <0>         0.0000
     26 O2          0.4857   -1.2132    2.1568 O.3       1 <0>         0.0000
     27 O3          8.8394   -4.8849   -2.8625 O.3       1 <0>         0.0000
     28 O4          0.8827    1.1539    3.2051 O.3       1 <0>         0.0000
     29 S1          9.4434   -3.3881   -3.3585 S.3       1 <0>         0.0000
     30 S2          0.6665   -0.4584    3.6451 S.3       1 <0>         0.0000
     31 Cl1         6.0755   -4.8140    2.3811 Cl        1 <0>         0.0000
     32 Cl2        -3.6956    4.2078    1.0158 Cl        1 <0>         0.0000
     33 H1          3.6772   -2.5129   -3.0285 H         1 <0>         0.0000
     34 H2          6.3956   -1.1304    0.0068 H         1 <0>         0.0000
     35 H3          4.8167   -2.4362    1.2531 H         1 <0>         0.0000
     36 H4          2.4061   -0.7989   -1.9163 H         1 <0>         0.0000
     37 H5          5.6071   -2.9363   -4.5438 H         1 <0>         0.0000
     38 H6          8.3047   -1.5600   -1.5013 H         1 <0>         0.0000
     39 H7          2.9368   -2.1568    2.8332 H         1 <0>         0.0000
     40 H8          0.5056   -0.5527   -0.3206 H         1 <0>         0.0000
     41 H9          6.3088   -5.3526   -2.4768 H         1 <0>         0.0000
     42 H10        10.0088   -4.4432   -0.4974 H         1 <0>         0.0000
     43 H11         0.7082    2.0769    0.7973 H         1 <0>         0.0000
     44 H12        -1.3814    1.7177    4.5298 H         1 <0>         0.0000
     45 H13         5.1168   -5.3261   -0.2776 H         1 <0>         0.0000
     46 H14         8.8312   -4.4239    1.7056 H         1 <0>         0.0000
     47 H15        -1.2028    3.4017   -0.1500 H         1 <0>         0.0000
     48 H16        -3.2900    3.0321    3.5968 H         1 <0>         0.0000
@<TRIPOS>BOND
     1    1    5 ar
     2    1   17 ar
     3    1   33 1
     4    2    6 ar
     5    2   17 ar
     6    2   34 1
     7    3    7 ar
     8    3   18 ar
     9    3   35 1
    10    4    8 ar
    11    4   18 ar
    12    4   36 1
    13    5   19 ar
    14    5   37 1
    15    6   19 ar
    16    6   38 1
    17    7   20 ar
    18    7   39 1
    19    8   20 ar
    20    8   40 1
    21    9   13 ar
    22    9   21 ar
    23    9   41 1
    24   10   14 ar
    25   10   21 ar
    26   10   42 1
    27   11   15 ar
    28   11   22 ar
    29   11   43 1
    30   12   16 ar
    31   12   22 ar
    32   12   44 1
    33   13   23 ar
    34   13   45 1
    35   14   23 ar
    36   14   46 1
    37   15   24 ar
    38   15   47 1
    39   16   24 ar
    40   16   48 1
    41   17   18 1
    42   19   25 1
    43   20   26 1
    44   21   27 1
    45   22   28 1
    46   23   31 1
    47   24   32 1
    48   25   29 1
    49   26   30 1
    50   27   29 1
    51   28   30 1
