@<TRIPOS>MOLECULE
*****
   48    51     0     0     0
SMALL
NO_CHARGES

@<TRIPOS>ATOM
      1 C1          4.9547   -1.5824   -2.0298 C.ar      1 <0>         0.0000
      2 C2          4.8391   -3.3524   -0.3904 C.ar      1 <0>         0.0000
      3 C3          3.6046   -1.2147    1.3763 C.ar      1 <0>         0.0000
      4 C4          2.4389   -0.5570   -0.6323 C.ar      1 <0>         0.0000
      5 C5          5.9034   -2.3064   -2.7504 C.ar      1 <0>         0.0000
      6 C6          5.7859   -4.0863   -1.1046 C.ar      1 <0>         0.0000
      7 C7          2.6960   -0.4927    2.1477 C.ar      1 <0>         0.0000
      8 C8          1.5183    0.1629    0.1293 C.ar      1 <0>         0.0000
      9 C9          8.7417   -0.4429   -2.1355 C.ar      1 <0>         0.0000
     10 C10         8.2838   -1.8721   -0.2286 C.ar      1 <0>         0.0000
     11 C11         0.9454   -2.9360    4.0119 C.ar      1 <0>         0.0000
     12 C12         0.2168   -2.7987    1.7002 C.ar      1 <0>         0.0000
     13 C13         8.0740    0.6125   -1.5102 C.ar      1 <0>         0.0000
     14 C14         7.6021   -0.8237    0.3894 C.ar      1 <0>         0.0000
     15 C15         1.7750   -4.0123    3.6923 C.ar      1 <0>         0.0000
     16 C16         1.0578   -3.8643    1.3753 C.ar      1 <0>         0.0000
     17 C17         4.4287   -2.0799   -0.8264 C.ar      1 <0>         0.0000
     18 C18         3.4808   -1.2762   -0.0218 C.ar      1 <0>         0.0000
     19 C19         6.3347   -3.5389   -2.2639 C.ar      1 <0>         0.0000
     20 C20         1.6427    0.1674    1.5179 C.ar      1 <0>         0.0000
     21 C21         8.8197   -1.6843   -1.5034 C.ar      1 <0>         0.0000
     22 C22         0.1849   -2.3259    3.0130 C.ar      1 <0>         0.0000
     23 C23         7.4869    0.4064   -0.2606 C.ar      1 <0>         0.0000
     24 C24         1.8354   -4.4580    2.3711 C.ar      1 <0>         0.0000
     25 O1          7.3761   -4.1835   -2.9564 O.3       1 <0>         0.0000
     26 O2          0.6860    0.8064    2.3275 O.3       1 <0>         0.0000
     27 O3          9.4391   -2.7040   -2.2449 O.3       1 <0>         0.0000
     28 O4         -0.5745   -1.2239    3.4326 O.3       1 <0>         0.0000
     29 S1          8.8315   -4.2696   -2.1089 S.3       1 <0>         0.0000
     30 S2         -0.8199    0.0519    2.3608 S.3       1 <0>         0.0000
     31 Cl1         6.5701    1.6976    0.4964 Cl        1 <0>         0.0000
     32 Cl2         2.9147   -5.7837    1.9546 Cl        1 <0>         0.0000
     33 H1          4.6704   -0.5916   -2.3723 H         1 <0>         0.0000
     34 H2          4.4075   -3.7790    0.5099 H         1 <0>         0.0000
     35 H3          4.4183   -1.7411    1.8665 H         1 <0>         0.0000
     36 H4          2.3235   -0.5934   -1.7121 H         1 <0>         0.0000
     37 H5          6.3579   -1.9022   -3.6491 H         1 <0>         0.0000
     38 H6          6.1167   -5.0594   -0.7535 H         1 <0>         0.0000
     39 H7          2.7715   -0.4638    3.2298 H         1 <0>         0.0000
     40 H8          0.6915    0.6867   -0.3415 H         1 <0>         0.0000
     41 H9          9.1734   -0.3234   -3.1244 H         1 <0>         0.0000
     42 H10         8.3459   -2.8396    0.2564 H         1 <0>         0.0000
     43 H11         0.8985   -2.5476    5.0245 H         1 <0>         0.0000
     44 H12        -0.3678   -2.3144    0.9262 H         1 <0>         0.0000
     45 H13         7.9881    1.5762   -2.0021 H         1 <0>         0.0000
     46 H14         7.1492   -0.9672    1.3649 H         1 <0>         0.0000
     47 H15         2.3792   -4.4871    4.4588 H         1 <0>         0.0000
     48 H16         1.1147   -4.2213    0.3522 H         1 <0>         0.0000
@<TRIPOS>BOND
     1    1    5 ar
     2    1   17 ar
     3    1   33 1
     4    2    6 ar
     5    2   17 ar
     6    2   34 1
     7    3    7 ar
     8    3   18 ar
     9    3   35 1
    10    4    8 ar
    11    4   18 ar
    12    4   36 1
    13    5   19 ar
    14    5   37 1
    15    6   19 ar
    16    6   38 1
    17    7   20 ar
    18    7   39 1
    19    8   20 ar
    20    8   40 1
    21    9   13 ar
    22    9   21 ar
    23    9   41 1
    24   10   14 ar
    25   10   21 ar
    26   10   42 1
    27   11   15 ar
    28   11   22 ar
    29   11   43 1
    30   12   16 ar
    31   12   22 ar
    32   12   44 1
    33   13   23 ar
    34   13   45 1
    35   14   23 ar
    36   14   46 1
    37   15   24 ar
    38   15   47 1
    39   16   24 ar
    40   16   48 1
    41   17   18 1
    42   19   25 1
    43   20   26 1
    44   21   27 1
    45   22   28 1
    46   23   31 1
    47   24   32 1
    48   25   29 1
    49   26   30 1
    50   27   29 1
    51   28   30 1
