@<TRIPOS>MOLECULE
*****
   48    51     0     0     0
SMALL
NO_CHARGES

@<TRIPOS>ATOM
      1 C1          4.3537   -3.7075    0.0857 C.ar      1 <0>         0.0000
      2 C2          5.4881   -2.3172    1.6968 C.ar      1 <0>         0.0000
      3 C3          2.6720   -1.7721    2.7399 C.ar      1 <0>         0.0000
      4 C4          2.0571   -1.7597    0.4059 C.ar      1 <0>         0.0000
      5 C5          5.5582   -4.3290   -0.2471 C.ar      1 <0>         0.0000
      6 C6          6.6992   -2.9324    1.3806 C.ar      1 <0>         0.0000
      7 C7          1.4248   -1.2467    3.0788 C.ar      1 <0>         0.0000
      8 C8          0.8094   -1.2308    0.7317 C.ar      1 <0>         0.0000
      9 C9          9.5131   -4.8476   -2.7185 C.ar      1 <0>         0.0000
     10 C10         8.5426   -6.6730   -3.9983 C.ar      1 <0>         0.0000
     11 C11        -1.4381   -3.8701   -0.0644 C.ar      1 <0>         0.0000
     12 C12        -0.2668   -4.2148    2.0336 C.ar      1 <0>         0.0000
     13 C13        10.3814   -4.5744   -3.7790 C.ar      1 <0>         0.0000
     14 C14         9.4040   -6.3930   -5.0606 C.ar      1 <0>         0.0000
     15 C15        -0.5340   -4.7124   -0.7139 C.ar      1 <0>         0.0000
     16 C16         0.6478   -5.0444    1.3825 C.ar      1 <0>         0.0000
     17 C17         4.2945   -2.6945    1.0576 C.ar      1 <0>         0.0000
     18 C18         3.0007   -2.0603    1.4033 C.ar      1 <0>         0.0000
     19 C19         6.7246   -3.9369    0.4115 C.ar      1 <0>         0.0000
     20 C20         0.4930   -1.0059    2.0702 C.ar      1 <0>         0.0000
     21 C21         8.6044   -5.9015   -2.8363 C.ar      1 <0>         0.0000
     22 C22        -1.2915   -3.6150    1.3001 C.ar      1 <0>         0.0000
     23 C23        10.3210   -5.3463   -4.9405 C.ar      1 <0>         0.0000
     24 C24         0.5114   -5.2833    0.0140 C.ar      1 <0>         0.0000
     25 O1          7.9866   -4.4693    0.1119 O.3       1 <0>         0.0000
     26 O2         -0.8091   -0.5708    2.3758 O.3       1 <0>         0.0000
     27 O3          7.6691   -6.2146   -1.8436 O.3       1 <0>         0.0000
     28 O4         -2.2290   -2.7220    1.8412 O.3       1 <0>         0.0000
     29 S1          8.1233   -6.1073   -0.2284 S.3       1 <0>         0.0000
     30 S2         -1.7746   -1.7322    3.1242 S.3       1 <0>         0.0000
     31 Cl1        11.4107   -4.9935   -6.2725 Cl        1 <0>         0.0000
     32 Cl2         1.6765   -6.3139   -0.8071 Cl        1 <0>         0.0000
     33 H1          3.4436   -4.0373   -0.4052 H         1 <0>         0.0000
     34 H2          5.4758   -1.5209    2.4359 H         1 <0>         0.0000
     35 H3          3.3826   -2.0026    3.5287 H         1 <0>         0.0000
     36 H4          2.2986   -1.9469   -0.6362 H         1 <0>         0.0000
     37 H5          5.5847   -5.1063   -1.0030 H         1 <0>         0.0000
     38 H6          7.6247   -2.6412    1.8683 H         1 <0>         0.0000
     39 H7          1.1590   -1.0631    4.1159 H         1 <0>         0.0000
     40 H8          0.0662   -1.0269   -0.0323 H         1 <0>         0.0000
     41 H9          9.5402   -4.2402   -1.8207 H         1 <0>         0.0000
     42 H10         7.8244   -7.4848   -4.0610 H         1 <0>         0.0000
     43 H11        -2.2454   -3.3902   -0.6091 H         1 <0>         0.0000
     44 H12        -0.1503   -4.0050    3.0906 H         1 <0>         0.0000
     45 H13        11.0931   -3.7584   -3.7044 H         1 <0>         0.0000
     46 H14         9.3684   -6.9870   -5.9682 H         1 <0>         0.0000
     47 H15        -0.6330   -4.9097   -1.7765 H         1 <0>         0.0000
     48 H16         1.4664   -5.4930    1.9358 H         1 <0>         0.0000
@<TRIPOS>BOND
     1    1    5 ar
     2    1   17 ar
     3    1   33 1
     4    2    6 ar
     5    2   17 ar
     6    2   34 1
     7    3    7 ar
     8    3   18 ar
     9    3   35 1
    10    4    8 ar
    11    4   18 ar
    12    4   36 1
    13    5   19 ar
    14    5   37 1
    15    6   19 ar
    16    6   38 1
    17    7   20 ar
    18    7   39 1
    19    8   20 ar
    20    8   40 1
    21    9   13 ar
    22    9   21 ar
    23    9   41 1
    24   10   14 ar
    25   10   21 ar
    26   10   42 1
    27   11   15 ar
    28   11   22 ar
    29   11   43 1
    30   12   16 ar
    31   12   22 ar
    32   12   44 1
    33   13   23 ar
    34   13   45 1
    35   14   23 ar
    36   14   46 1
    37   15   24 ar
    38   15   47 1
    39   16   24 ar
    40   16   48 1
    41   17   18 1
    42   19   25 1
    43   20   26 1
    44   21   27 1
    45   22   28 1
    46   23   31 1
    47   24   32 1
    48   25   29 1
    49   26   30 1
    50   27   29 1
    51   28   30 1
