@<TRIPOS>MOLECULE
*****
   48    51     0     0     0
SMALL
NO_CHARGES

@<TRIPOS>ATOM
      1 C1          4.5702   -3.3551   -1.1954 C.ar      1 <0>         0.0000
      2 C2          6.2919   -2.7610    0.3810 C.ar      1 <0>         0.0000
      3 C3          4.0772   -1.4092    1.9445 C.ar      1 <0>         0.0000
      4 C4          3.1940   -0.8369   -0.2227 C.ar      1 <0>         0.0000
      5 C5          5.4668   -4.1861   -1.8675 C.ar      1 <0>         0.0000
      6 C6          7.1928   -3.6016   -0.2687 C.ar      1 <0>         0.0000
      7 C7          3.2515   -0.4596    2.5469 C.ar      1 <0>         0.0000
      8 C8          2.3674    0.1223    0.3610 C.ar      1 <0>         0.0000
      9 C9          7.1705   -1.4926   -3.0441 C.ar      1 <0>         0.0000
     10 C10         9.2629   -1.2736   -1.8323 C.ar      1 <0>         0.0000
     11 C11         0.5901    1.1496    6.8731 C.ar      1 <0>         0.0000
     12 C12        -0.5725    1.0743    4.7389 C.ar      1 <0>         0.0000
     13 C13         6.6403   -0.4174   -2.3304 C.ar      1 <0>         0.0000
     14 C14         8.7363   -0.1951   -1.1176 C.ar      1 <0>         0.0000
     15 C15        -0.6214    0.9770    7.5450 C.ar      1 <0>         0.0000
     16 C16        -1.7858    0.9111    5.4131 C.ar      1 <0>         0.0000
     17 C17         4.9748   -2.5983   -0.0826 C.ar      1 <0>         0.0000
     18 C18         4.0674   -1.6171    0.5548 C.ar      1 <0>         0.0000
     19 C19         6.7846   -4.2754   -1.4200 C.ar      1 <0>         0.0000
     20 C20         2.4059    0.3073    1.7432 C.ar      1 <0>         0.0000
     21 C21         8.4651   -1.9302   -2.7693 C.ar      1 <0>         0.0000
     22 C22         0.6060    1.1988    5.4779 C.ar      1 <0>         0.0000
     23 C23         7.4211    0.2101   -1.3582 C.ar      1 <0>         0.0000
     24 C24        -1.8024    0.8625    6.8081 C.ar      1 <0>         0.0000
     25 O1          7.6568   -5.0348   -2.2200 O.3       1 <0>         0.0000
     26 O2          1.5133    1.2527    2.2672 O.3       1 <0>         0.0000
     27 O3          8.9233   -3.0720   -3.4484 O.3       1 <0>         0.0000
     28 O4          1.8673    1.3171    4.8834 O.3       1 <0>         0.0000
     29 S1          9.2044   -4.4217   -2.4726 S.3       1 <0>         0.0000
     30 S2          2.0351    2.2633    3.5029 S.3       1 <0>         0.0000
     31 Cl1         6.7249    1.5083   -0.4047 Cl        1 <0>         0.0000
     32 Cl2        -3.3298    0.6498    7.6494 Cl        1 <0>         0.0000
     33 H1          3.5455   -3.2866   -1.5497 H         1 <0>         0.0000
     34 H2          6.6383   -2.1774    1.2286 H         1 <0>         0.0000
     35 H3          4.7178   -2.0208    2.5736 H         1 <0>         0.0000
     36 H4          3.1855   -0.9535   -1.3028 H         1 <0>         0.0000
     37 H5          5.1700   -4.7392   -2.7537 H         1 <0>         0.0000
     38 H6          8.2202   -3.6718    0.0711 H         1 <0>         0.0000
     39 H7          3.2539   -0.3279    3.6235 H         1 <0>         0.0000
     40 H8          1.7071    0.7404   -0.2400 H         1 <0>         0.0000
     41 H9          6.5723   -2.0256   -3.7753 H         1 <0>         0.0000
     42 H10        10.2730   -1.6220   -1.6391 H         1 <0>         0.0000
     43 H11         1.5227    1.2484    7.4201 H         1 <0>         0.0000
     44 H12        -0.5483    1.0937    3.6550 H         1 <0>         0.0000
     45 H13         5.6206   -0.0905   -2.5037 H         1 <0>         0.0000
     46 H14         9.3357    0.3155   -0.3706 H         1 <0>         0.0000
     47 H15        -0.6481    0.9401    8.6293 H         1 <0>         0.0000
     48 H16        -2.7109    0.8117    4.8543 H         1 <0>         0.0000
@<TRIPOS>BOND
     1    1    5 ar
     2    1   17 ar
     3    1   33 1
     4    2    6 ar
     5    2   17 ar
     6    2   34 1
     7    3    7 ar
     8    3   18 ar
     9    3   35 1
    10    4    8 ar
    11    4   18 ar
    12    4   36 1
    13    5   19 ar
    14    5   37 1
    15    6   19 ar
    16    6   38 1
    17    7   20 ar
    18    7   39 1
    19    8   20 ar
    20    8   40 1
    21    9   13 ar
    22    9   21 ar
    23    9   41 1
    24   10   14 ar
    25   10   21 ar
    26   10   42 1
    27   11   15 ar
    28   11   22 ar
    29   11   43 1
    30   12   16 ar
    31   12   22 ar
    32   12   44 1
    33   13   23 ar
    34   13   45 1
    35   14   23 ar
    36   14   46 1
    37   15   24 ar
    38   15   47 1
    39   16   24 ar
    40   16   48 1
    41   17   18 1
    42   19   25 1
    43   20   26 1
    44   21   27 1
    45   22   28 1
    46   23   31 1
    47   24   32 1
    48   25   29 1
    49   26   30 1
    50   27   29 1
    51   28   30 1
