@<TRIPOS>MOLECULE
*****
   20    20     0     0     0
SMALL
NO_CHARGES

@<TRIPOS>ATOM
      1 C1          1.8851   -1.0363   -0.1124 C.ar      1 <0>         0.0000
      2 C2          2.8783   -1.6520    2.0022 C.ar      1 <0>         0.0000
      3 C3          0.8066   -0.4630    0.5610 C.ar      1 <0>         0.0000
      4 C4          1.7997   -1.0786    2.6757 C.ar      1 <0>         0.0000
      5 C5          2.9210   -1.6309    0.6081 C.ar      1 <0>         0.0000
      6 C6          0.7638   -0.4841    1.9551 C.ar      1 <0>         0.0000
      7 C7         -1.5538    0.7104    4.5540 C.3       1 <0>         0.0000
      8 C8         -0.3065    0.0391    4.0398 C.3       1 <0>         0.0000
      9 O1          3.9727   -2.1918   -0.0487 O.3       1 <0>         0.0000
     10 O2         -0.2888    0.0752    2.6122 O.3       1 <0>         0.0000
     11 F1         -1.5652    2.0104    4.1684 F         1 <0>         0.0000
     12 F2         -1.5457    0.7037    5.9095 F         1 <0>         0.0000
     13 F3          0.7841    0.6725    4.5334 F         1 <0>         0.0000
     14 F4         -0.2885   -1.2485    4.4619 F         1 <0>         0.0000
     15 H1          1.9117   -1.0189   -1.1985 H         1 <0>         0.0000
     16 H2          3.6821   -2.1145    2.5686 H         1 <0>         0.0000
     17 H3          0.0032   -0.0001   -0.0054 H         1 <0>         0.0000
     18 H4          1.7717   -1.0983    3.7617 H         1 <0>         0.0000
     19 H5         -2.4695    0.2290    4.2000 H         1 <0>         0.0000
     20 H6          3.8584   -2.0991   -1.0080 H         1 <0>         0.0000
@<TRIPOS>BOND
     1    1    3 ar
     2    1    5 ar
     3    1   15 1
     4    2    4 ar
     5    2    5 ar
     6    2   16 1
     7    3    6 ar
     8    3   17 1
     9    4    6 ar
    10    4   18 1
    11    5    9 1
    12    6   10 1
    13    7    8 1
    14    7   11 1
    15    7   12 1
    16    7   19 1
    17    8   10 1
    18    8   13 1
    19    8   14 1
    20    9   20 1
