@<TRIPOS>MOLECULE
*****
   69    73     0     0     0
SMALL
NO_CHARGES

@<TRIPOS>ATOM
      1 C1          8.4163    2.5571   -4.9240 C.ar      1 <0>         0.0000
      2 C2          8.3058    2.0523   -3.6242 C.ar      1 <0>         0.0000
      3 C3          7.4972    3.5063   -5.3868 C.ar      1 <0>         0.0000
      4 C4         -8.9211   -7.3257   -0.2283 C.ar      1 <0>         0.0000
      5 C5         -1.0175    0.3321   -0.4107 C.ar      1 <0>         0.0000
      6 C6          0.6693    3.5681   -1.0969 C.ar      1 <0>         0.0000
      7 C7          1.3602    1.9392    0.5561 C.ar      1 <0>         0.0000
      8 C8          7.2877    2.5052   -2.7825 C.ar      1 <0>         0.0000
      9 C9          6.4726    3.9520   -4.5524 C.ar      1 <0>         0.0000
     10 C10        -7.9367   -6.3874   -0.5366 C.ar      1 <0>         0.0000
     11 C11        -2.2510   -0.3037   -0.5149 C.ar      1 <0>         0.0000
     12 C12         1.8880    4.2310   -0.9707 C.ar      1 <0>         0.0000
     13 C13         2.5858    2.5885    0.6924 C.ar      1 <0>         0.0000
     14 C14        -2.1067    2.4697   -0.6170 C.ar      1 <0>         0.0000
     15 C15       -10.2282   -7.0913   -0.6698 C.ar      1 <0>         0.0000
     16 C16        -9.6348   -5.1198   -1.6708 C.ar      1 <0>         0.0000
     17 C17         0.3860    2.4192   -0.3374 C.ar      1 <0>         0.0000
     18 C18        -0.9232    1.7350   -0.4608 C.ar      1 <0>         0.0000
     19 C19         6.3681    3.4625   -3.2412 C.ar      1 <0>         0.0000
     20 C20        -3.3609    1.8574   -0.7223 C.ar      1 <0>         0.0000
     21 C21        -8.2953   -5.2510   -1.2705 C.ar      1 <0>         0.0000
     22 C22        -3.4079    0.4603   -0.6701 C.ar      1 <0>         0.0000
     23 C23         2.8340    3.7268   -0.0767 C.ar      1 <0>         0.0000
     24 C24         5.2502    3.9927   -2.4031 C.2       1 <0>         0.0000
     25 C25        -4.6258    2.6758   -0.8767 C.3       1 <0>         0.0000
     26 C26        -5.8647    1.8498   -0.5150 C.3       1 <0>         0.0000
     27 C27        -5.7635    0.4862   -1.1890 C.3       1 <0>         0.0000
     28 C28        -6.9367   -0.4263   -0.8509 C.3       1 <0>         0.0000
     29 C29        -7.5258   -2.9091   -0.8122 C.3       1 <0>         0.0000
     30 C30        -7.2799   -4.1877   -1.6172 C.3       1 <0>         0.0000
     31 N1        -10.5856   -6.0127   -1.3824 N.ar      1 <0>         0.0000
     32 N2          5.4096    3.8480   -1.0232 N.am      1 <0>         0.0000
     33 N3         -6.6257   -1.8192   -1.3343 N.4       1 <0>         0.0000
     34 O1          4.2443    4.5060   -2.8754 O.2       1 <0>         0.0000
     35 O2          4.9987    4.1638    1.3996 O.2       1 <0>         0.0000
     36 O3          4.1885    5.9945   -0.1837 O.2       1 <0>         0.0000
     37 O4         -4.6144   -0.2450   -0.7379 O.3       1 <0>         0.0000
     38 O5         -7.3427   -3.7429   -2.9812 O.3       1 <0>         0.0000
     39 S1          4.3852    4.5897    0.1405 S.o2      1 <0>         0.0000
     40 H1          9.2135    2.2087   -5.5751 H         1 <0>         0.0000
     41 H2          9.0090    1.3047   -3.2681 H         1 <0>         0.0000
     42 H3          7.5813    3.8975   -6.3969 H         1 <0>         0.0000
     43 H4         -8.6859   -8.2229    0.3357 H         1 <0>         0.0000
     44 H5         -0.1174   -0.2675   -0.3152 H         1 <0>         0.0000
     45 H6         -0.0587    3.9358   -1.8143 H         1 <0>         0.0000
     46 H7          1.1456    1.0762    1.1797 H         1 <0>         0.0000
     47 H8          7.1995    2.0769   -1.7874 H         1 <0>         0.0000
     48 H9          5.7466    4.6826   -4.8948 H         1 <0>         0.0000
     49 H10        -6.9080   -6.5411   -0.2163 H         1 <0>         0.0000
     50 H11        -2.3235   -1.3873   -0.4837 H         1 <0>         0.0000
     51 H12         2.1174    5.1096   -1.5620 H         1 <0>         0.0000
     52 H13         3.3288    2.2412    1.4032 H         1 <0>         0.0000
     53 H14        -2.0613    3.5559   -0.6221 H         1 <0>         0.0000
     54 H15       -11.0214   -7.8016   -0.4458 H         1 <0>         0.0000
     55 H16        -9.9494   -4.2631   -2.2667 H         1 <0>         0.0000
     56 H17        -4.5748    3.5659   -0.2435 H         1 <0>         0.0000
     57 H18        -4.7111    3.0340   -1.9100 H         1 <0>         0.0000
     58 H19        -5.9217    1.7026    0.5694 H         1 <0>         0.0000
     59 H20        -6.7797    2.3585   -0.8353 H         1 <0>         0.0000
     60 H21        -5.6888    0.6176   -2.2798 H         1 <0>         0.0000
     61 H22        -7.8658   -0.0985   -1.3196 H         1 <0>         0.0000
     62 H23        -7.0727   -0.4891    0.2306 H         1 <0>         0.0000
     63 H24        -7.3243   -3.0485    0.2505 H         1 <0>         0.0000
     64 H25        -8.5533   -2.5675   -0.9472 H         1 <0>         0.0000
     65 H26        -6.2711   -4.5664   -1.3953 H         1 <0>         0.0000
     66 H27         6.3133    3.6069   -0.6253 H         1 <0>         0.0000
     67 H28        -6.6693   -1.8739   -2.3629 H         1 <0>         0.0000
     68 H29        -5.6417   -1.9937   -1.0790 H         1 <0>         0.0000
     69 H30        -7.3287   -4.5103   -3.5776 H         1 <0>         0.0000
@<TRIPOS>BOND
     1    1    3 ar
     2    1    2 ar
     3    1   40 1
     4    2    8 ar
     5    2   41 1
     6    3    9 ar
     7    3   42 1
     8    4   10 ar
     9    4   15 ar
    10    4   43 1
    11    5   11 ar
    12    5   18 ar
    13    5   44 1
    14    6   12 ar
    15    6   17 ar
    16    6   45 1
    17    7   13 ar
    18    7   17 ar
    19    7   46 1
    20    8   19 ar
    21    8   47 1
    22    9   19 ar
    23    9   48 1
    24   10   21 ar
    25   10   49 1
    26   11   22 ar
    27   11   50 1
    28   12   23 ar
    29   12   51 1
    30   13   23 ar
    31   13   52 1
    32   14   18 ar
    33   14   20 ar
    34   14   53 1
    35   15   31 ar
    36   15   54 1
    37   16   21 ar
    38   16   31 ar
    39   16   55 1
    40   17   18 1
    41   19   24 1
    42   20   22 ar
    43   20   25 1
    44   21   30 1
    45   22   37 1
    46   23   39 1
    47   24   32 am
    48   24   34 2
    49   25   26 1
    50   25   56 1
    51   25   57 1
    52   26   27 1
    53   26   58 1
    54   26   59 1
    55   27   28 1
    56   27   37 1
    57   27   60 1
    58   28   33 1
    59   28   61 1
    60   28   62 1
    61   29   30 1
    62   29   33 1
    63   29   63 1
    64   29   64 1
    65   30   38 1
    66   30   65 1
    67   32   39 1
    68   32   66 1
    69   33   67 1
    70   33   68 1
    71   35   39 2
    72   36   39 2
    73   38   69 1
