@<TRIPOS>MOLECULE
*****
   74    76     0     0     0
SMALL
NO_CHARGES

@<TRIPOS>ATOM
      1 C1          3.8289    1.9465   -2.2853 C.ar      1 <0>         0.0000
      2 C2          3.1823    1.0508   -1.4237 C.ar      1 <0>         0.0000
      3 C3          1.9958    3.4817   -2.0646 C.ar      1 <0>         0.0000
      4 C4          1.3561    2.5922   -1.2057 C.ar      1 <0>         0.0000
      5 C5          3.2490    3.1740   -2.6197 C.ar      1 <0>         0.0000
      6 C6          1.9362    1.3562   -0.8748 C.ar      1 <0>         0.0000
      7 C7          3.2444    4.0852   -4.9998 C.3       1 <0>         0.0000
      8 C8         -0.1572   -0.0106   -0.4397 C.3       1 <0>         0.0000
      9 C9          2.9011    5.5425   -5.2987 C.3       1 <0>         0.0000
     10 C10         0.2095   -1.1675   -1.3553 C.3       1 <0>         0.0000
     11 C11         3.8974    4.1621   -3.5852 C.3       1 <0>         0.0000
     12 C12         1.2278    0.3996    0.0883 C.3       1 <0>         0.0000
     13 C13         5.4208    4.0408   -3.6565 C.3       1 <0>         0.0000
     14 C14         1.1951    0.9857    1.5031 C.3       1 <0>         0.0000
     15 C15         3.9718    8.1359   -3.8452 C.3       1 <0>         0.0000
     16 C16         1.3432   -3.6596   -2.2107 C.3       1 <0>         0.0000
     17 C17         0.2314    7.4525   -2.8849 C.3       1 <0>         0.0000
     18 C18         2.1743    7.4750   -1.2952 C.3       1 <0>         0.0000
     19 C19         1.6045    9.5243   -2.6264 C.3       1 <0>         0.0000
     20 C20         4.3359   -2.4866    0.0221 C.3       1 <0>         0.0000
     21 C21         2.5138   -4.0226    0.8243 C.3       1 <0>         0.0000
     22 C22         3.8779   -4.5858   -1.2062 C.3       1 <0>         0.0000
     23 C23         2.5615    7.5223   -3.8401 C.3       1 <0>         0.0000
     24 C24         2.1652   -2.6958   -1.3373 C.3       1 <0>         0.0000
     25 C25         1.6591    7.9838   -2.6542 C.3       1 <0>         0.0000
     26 C26         3.2040   -3.4391   -0.4214 C.3       1 <0>         0.0000
     27 N1          2.5535    6.0490   -3.9680 N.3       1 <0>         0.0000
     28 N2          1.1936   -1.9077   -0.5535 N.3       1 <0>         0.0000
     29 O1          3.6427    5.5179   -3.1372 O.3       1 <0>         0.0000
     30 O2          1.9413   -0.8509    0.1700 O.3       1 <0>         0.0000
     31 H1          4.7987    1.6677   -2.6861 H         1 <0>         0.0000
     32 H2          3.6522    0.1084   -1.1684 H         1 <0>         0.0000
     33 H3          1.5290    4.4277   -2.3167 H         1 <0>         0.0000
     34 H4          0.3905    2.8697   -0.7878 H         1 <0>         0.0000
     35 H5          2.3383    3.4779   -4.9668 H         1 <0>         0.0000
     36 H6          3.9251    3.6515   -5.7365 H         1 <0>         0.0000
     37 H7         -0.6732    0.7954   -0.9630 H         1 <0>         0.0000
     38 H8         -0.7840   -0.3635    0.3847 H         1 <0>         0.0000
     39 H9          3.7595    6.0670   -5.7458 H         1 <0>         0.0000
     40 H10         2.0352    5.6517   -5.9577 H         1 <0>         0.0000
     41 H11        -0.6429   -1.8142   -1.5718 H         1 <0>         0.0000
     42 H12         0.6294   -0.7912   -2.3026 H         1 <0>         0.0000
     43 H13         5.8109    4.8056   -4.3338 H         1 <0>         0.0000
     44 H14         5.7290    3.0618   -4.0331 H         1 <0>         0.0000
     45 H15         5.8672    4.1928   -2.6699 H         1 <0>         0.0000
     46 H16         0.7117    0.2811    2.1858 H         1 <0>         0.0000
     47 H17         0.6475    1.9328    1.5182 H         1 <0>         0.0000
     48 H18         2.2127    1.1766    1.8553 H         1 <0>         0.0000
     49 H19         4.4937    7.9602   -2.9035 H         1 <0>         0.0000
     50 H20         3.9174    9.2129   -4.0208 H         1 <0>         0.0000
     51 H21         4.5835    7.7049   -4.6424 H         1 <0>         0.0000
     52 H22         0.7425   -4.3378   -1.5967 H         1 <0>         0.0000
     53 H23         1.9984   -4.2554   -2.8462 H         1 <0>         0.0000
     54 H24         0.6685   -3.1167   -2.8758 H         1 <0>         0.0000
     55 H25        -0.1916    7.8485   -3.8166 H         1 <0>         0.0000
     56 H26         0.2230    6.3621   -2.9503 H         1 <0>         0.0000
     57 H27        -0.4282    7.7567   -2.0645 H         1 <0>         0.0000
     58 H28         3.1851    7.8363   -1.0823 H         1 <0>         0.0000
     59 H29         2.2011    6.3848   -1.2561 H         1 <0>         0.0000
     60 H30         1.5193    7.8347   -0.4930 H         1 <0>         0.0000
     61 H31         2.5635    9.9650   -2.3386 H         1 <0>         0.0000
     62 H32         0.8582    9.8605   -1.8983 H         1 <0>         0.0000
     63 H33         1.3214    9.9347   -3.6038 H         1 <0>         0.0000
     64 H34         4.8509   -2.0610   -0.8483 H         1 <0>         0.0000
     65 H35         3.9629   -1.6668    0.6338 H         1 <0>         0.0000
     66 H36         5.0809   -3.0425    0.6032 H         1 <0>         0.0000
     67 H37         1.6936   -4.6959    0.5537 H         1 <0>         0.0000
     68 H38         2.1017   -3.2305    1.4529 H         1 <0>         0.0000
     69 H39         3.2367   -4.5971    1.4153 H         1 <0>         0.0000
     70 H40         3.1920   -5.4113   -1.4161 H         1 <0>         0.0000
     71 H41         4.7070   -4.9935   -0.6182 H         1 <0>         0.0000
     72 H42         4.2943   -4.2351   -2.1586 H         1 <0>         0.0000
     73 H43         2.0481    7.8573   -4.7516 H         1 <0>         0.0000
     74 H44         2.7283   -2.0259   -2.0105 H         1 <0>         0.0000
@<TRIPOS>BOND
     1    1    2 ar
     2    1    5 ar
     3    1   31 1
     4    2    6 ar
     5    2   32 1
     6    3    4 ar
     7    3    5 ar
     8    3   33 1
     9    4    6 ar
    10    4   34 1
    11    5   11 1
    12    6   12 1
    13    7    9 1
    14    7   11 1
    15    7   35 1
    16    7   36 1
    17    8   10 1
    18    8   12 1
    19    8   37 1
    20    8   38 1
    21    9   27 1
    22    9   39 1
    23    9   40 1
    24   10   28 1
    25   10   41 1
    26   10   42 1
    27   11   13 1
    28   11   29 1
    29   12   14 1
    30   12   30 1
    31   13   43 1
    32   13   44 1
    33   13   45 1
    34   14   46 1
    35   14   47 1
    36   14   48 1
    37   15   23 1
    38   15   49 1
    39   15   50 1
    40   15   51 1
    41   16   24 1
    42   16   52 1
    43   16   53 1
    44   16   54 1
    45   17   25 1
    46   17   55 1
    47   17   56 1
    48   17   57 1
    49   18   25 1
    50   18   58 1
    51   18   59 1
    52   18   60 1
    53   19   25 1
    54   19   61 1
    55   19   62 1
    56   19   63 1
    57   20   26 1
    58   20   64 1
    59   20   65 1
    60   20   66 1
    61   21   26 1
    62   21   67 1
    63   21   68 1
    64   21   69 1
    65   22   26 1
    66   22   70 1
    67   22   71 1
    68   22   72 1
    69   23   25 1
    70   23   27 1
    71   23   73 1
    72   24   26 1
    73   24   28 1
    74   24   74 1
    75   27   29 1
    76   28   30 1
