@<TRIPOS>MOLECULE
*****
   74    77     0     0     0
SMALL
NO_CHARGES

@<TRIPOS>ATOM
      1 C1          4.5160   -1.2615   -3.5530 C.ar      1 <0>         0.0000
      2 C2          4.5140   -1.7688   -2.2481 C.ar      1 <0>         0.0000
      3 C3          3.5170   -0.3623   -3.9401 C.ar      1 <0>         0.0000
      4 C4          3.5199   -1.3886   -1.3464 C.ar      1 <0>         0.0000
      5 C5          2.5281    0.0242   -3.0316 C.ar      1 <0>         0.0000
      6 C6          0.9287   -3.3074    0.8954 C.ar      1 <0>         0.0000
      7 C7          0.6967   -3.0047   -1.4774 C.ar      1 <0>         0.0000
      8 C8         -1.4106   -1.0203    1.2694 C.ar      1 <0>         0.0000
      9 C9          0.9948   -4.6850    0.7211 C.ar      1 <0>         0.0000
     10 C10         0.7524   -4.3876   -1.6710 C.ar      1 <0>         0.0000
     11 C11        -2.2688   -0.5781    2.2754 C.ar      1 <0>         0.0000
     12 C12        -0.5523    0.9618    3.0187 C.ar      1 <0>         0.0000
     13 C13         0.7976   -2.4339   -0.2017 C.ar      1 <0>         0.0000
     14 C14         2.5032   -0.4915   -1.7234 C.ar      1 <0>         0.0000
     15 C15        -0.1281   -0.4757    1.1015 C.ar      1 <0>         0.0000
     16 C16         0.3067    0.5237    2.0083 C.ar      1 <0>         0.0000
     17 C17         0.9122   -5.2371   -0.5674 C.ar      1 <0>         0.0000
     18 C18        -1.8361    0.4232    3.1527 C.ar      1 <0>         0.0000
     19 C19         0.7535   -0.9626    0.0068 C.2       1 <0>         0.0000
     20 C20         1.4556   -0.0782   -0.7548 C.2       1 <0>         0.0000
     21 C21         1.7054    1.0871    1.9014 C.3       1 <0>         0.0000
     22 C22         1.2185    1.4117   -0.5834 C.3       1 <0>         0.0000
     23 C23         1.9114    1.9891    0.6672 C.3       1 <0>         0.0000
     24 C24         1.0354   -9.4741   -3.0703 C.3       1 <0>         0.0000
     25 C25         1.0690   -8.7170   -1.7381 C.3       1 <0>         0.0000
     26 C26         0.5246  -16.0484   -7.1888 C.3       1 <0>         0.0000
     27 C27         1.1652  -10.9910   -2.8827 C.3       1 <0>         0.0000
     28 C28         0.7759  -15.5845   -5.7483 C.3       1 <0>         0.0000
     29 C29         0.9322   -7.2139   -1.9303 C.3       1 <0>         0.0000
     30 C30         0.3427  -17.5518   -7.3083 C.3       1 <0>         0.0000
     31 C31         1.1288  -11.7413   -4.2121 C.3       1 <0>         0.0000
     32 C32         0.9265  -14.0674   -5.6605 C.3       1 <0>         0.0000
     33 O1         -0.1389  -13.8881   -3.1860 O.2       1 <0>         0.0000
     34 O2         -2.6232    0.9071    4.1714 O.3       1 <0>         0.0000
     35 O3          0.9880   -6.6024   -0.6401 O.3       1 <0>         0.0000
     36 F1         -0.7990  -17.9605   -6.5967 F         1 <0>         0.0000
     37 S1          1.1638  -13.5599   -3.9024 S.o       1 <0>         0.0000
     38 H1          5.2893   -1.5588   -4.2567 H         1 <0>         0.0000
     39 H2          5.2908   -2.4608   -1.9319 H         1 <0>         0.0000
     40 H3          3.5067    0.0384   -4.9509 H         1 <0>         0.0000
     41 H4          3.5219   -1.7908   -0.3379 H         1 <0>         0.0000
     42 H5          1.7510    0.7141   -3.3511 H         1 <0>         0.0000
     43 H6          0.9878   -2.8950    1.8990 H         1 <0>         0.0000
     44 H7          0.5760   -2.3576   -2.3404 H         1 <0>         0.0000
     45 H8         -1.7429   -1.8041    0.5947 H         1 <0>         0.0000
     46 H9          1.1096   -5.3550    1.5684 H         1 <0>         0.0000
     47 H10         0.6690   -4.7835   -2.6767 H         1 <0>         0.0000
     48 H11        -3.2631   -1.0104    2.3783 H         1 <0>         0.0000
     49 H12        -0.2315    1.7217    3.7265 H         1 <0>         0.0000
     50 H13         1.9568    1.6409    2.8112 H         1 <0>         0.0000
     51 H14         2.4088    0.2496    1.8325 H         1 <0>         0.0000
     52 H15         1.5684    1.9564   -1.4644 H         1 <0>         0.0000
     53 H16         0.1424    1.5953   -0.4958 H         1 <0>         0.0000
     54 H17         1.5067    2.9906    0.8571 H         1 <0>         0.0000
     55 H18         2.9872    2.1037    0.4900 H         1 <0>         0.0000
     56 H19         0.0956   -9.2552   -3.5945 H         1 <0>         0.0000
     57 H20         1.8440   -9.1125   -3.7202 H         1 <0>         0.0000
     58 H21         0.2595   -9.0661   -1.0871 H         1 <0>         0.0000
     59 H22         2.0093   -8.9204   -1.2125 H         1 <0>         0.0000
     60 H23         1.3671  -15.7638   -7.8339 H         1 <0>         0.0000
     61 H24        -0.3664  -15.5537   -7.5937 H         1 <0>         0.0000
     62 H25         2.1009  -11.2174   -2.3562 H         1 <0>         0.0000
     63 H26         0.3483  -11.3570   -2.2515 H         1 <0>         0.0000
     64 H27        -0.0555  -15.8975   -5.1104 H         1 <0>         0.0000
     65 H28         1.6810  -16.0691   -5.3598 H         1 <0>         0.0000
     66 H29        -0.0221   -6.9710   -2.4183 H         1 <0>         0.0000
     67 H30         1.7452   -6.8277   -2.5610 H         1 <0>         0.0000
     68 H31         1.1950  -18.0976   -6.8880 H         1 <0>         0.0000
     69 H32         0.1976  -17.8553   -8.3502 H         1 <0>         0.0000
     70 H33         0.2023  -11.5325   -4.7581 H         1 <0>         0.0000
     71 H34         1.9885  -11.4948   -4.8462 H         1 <0>         0.0000
     72 H35         0.0235  -13.5600   -6.0171 H         1 <0>         0.0000
     73 H36         1.7936  -13.7070   -6.2269 H         1 <0>         0.0000
     74 H37        -3.4777    0.4479    4.1532 H         1 <0>         0.0000
@<TRIPOS>BOND
     1    1    3 ar
     2    1    2 ar
     3    1   38 1
     4    2    4 ar
     5    2   39 1
     6    3    5 ar
     7    3   40 1
     8    4   14 ar
     9    4   41 1
    10    5   14 ar
    11    5   42 1
    12    6    9 ar
    13    6   13 ar
    14    6   43 1
    15    7   10 ar
    16    7   13 ar
    17    7   44 1
    18    8   11 ar
    19    8   15 ar
    20    8   45 1
    21    9   17 ar
    22    9   46 1
    23   10   17 ar
    24   10   47 1
    25   11   18 ar
    26   11   48 1
    27   12   16 ar
    28   12   18 ar
    29   12   49 1
    30   13   19 1
    31   14   20 1
    32   15   16 ar
    33   15   19 1
    34   16   21 1
    35   17   35 1
    36   18   34 1
    37   19   20 2
    38   20   22 1
    39   21   23 1
    40   21   50 1
    41   21   51 1
    42   22   23 1
    43   22   52 1
    44   22   53 1
    45   23   54 1
    46   23   55 1
    47   24   25 1
    48   24   27 1
    49   24   56 1
    50   24   57 1
    51   25   29 1
    52   25   58 1
    53   25   59 1
    54   26   28 1
    55   26   30 1
    56   26   60 1
    57   26   61 1
    58   27   31 1
    59   27   62 1
    60   27   63 1
    61   28   32 1
    62   28   64 1
    63   28   65 1
    64   29   35 1
    65   29   66 1
    66   29   67 1
    67   30   36 1
    68   30   68 1
    69   30   69 1
    70   31   37 1
    71   31   70 1
    72   31   71 1
    73   32   37 1
    74   32   72 1
    75   32   73 1
    76   33   37 2
    77   34   74 1
