@<TRIPOS>MOLECULE
*****
   62    65     0     0     0
SMALL
NO_CHARGES

@<TRIPOS>ATOM
      1 C1          3.1031   -3.3634    7.8612 C.ar      1 <0>         0.0000
      2 C2          3.3719   -6.4089   -0.8246 C.ar      1 <0>         0.0000
      3 C3          2.2081   -2.6155    7.0869 C.ar      1 <0>         0.0000
      4 C4          3.1629   -4.7508    7.7004 C.ar      1 <0>         0.0000
      5 C5          2.0423   -6.4730   -0.3924 C.ar      1 <0>         0.0000
      6 C6          4.3812   -6.1064    0.0949 C.ar      1 <0>         0.0000
      7 C7          1.5728   -1.7672    1.9586 C.ar      1 <0>         0.0000
      8 C8         -0.7695   -2.1700    2.2601 C.ar      1 <0>         0.0000
      9 C9          1.3800   -3.2508    6.1585 C.ar      1 <0>         0.0000
     10 C10         2.3338   -5.3825    6.7672 C.ar      1 <0>         0.0000
     11 C11         1.7249   -6.2402    0.9480 C.ar      1 <0>         0.0000
     12 C12         4.0584   -5.8671    1.4345 C.ar      1 <0>         0.0000
     13 C13         1.8696   -3.0007    2.5415 C.ar      1 <0>         0.0000
     14 C14        -0.4849   -3.4102    2.8278 C.ar      1 <0>         0.0000
     15 C15         0.2537   -1.3234    1.8080 C.ar      1 <0>         0.0000
     16 C16         1.4343   -4.6437    5.9872 C.ar      1 <0>         0.0000
     17 C17         2.7307   -5.9344    1.8743 C.ar      1 <0>         0.0000
     18 C18         0.8419   -3.8480    2.9862 C.ar      1 <0>         0.0000
     19 C19        -1.4184   -2.1479   -3.1128 C.2       1 <0>         0.0000
     20 C20        -0.5266    2.0723    1.5438 C.3       1 <0>         0.0000
     21 C21         0.7779    1.2318    1.5757 C.3       1 <0>         0.0000
     22 C22        -1.3412    0.7516    1.5042 C.3       1 <0>         0.0000
     23 C23        -0.0384   -0.0172    1.1046 C.3       1 <0>         0.0000
     24 C24        -1.1609   -2.0454   -4.5982 C.3       1 <0>         0.0000
     25 C25         0.5832   -5.3225    4.9283 C.3       1 <0>         0.0000
     26 C26         2.4069   -5.7107    3.3394 C.3       1 <0>         0.0000
     27 C27         0.0850   -0.1872   -0.4246 C.3       1 <0>         0.0000
     28 C28        -0.8184   -1.2747   -0.9841 C.3       1 <0>         0.0000
     29 N1          1.0847   -5.1281    3.5533 N.pl3     1 <0>         0.0000
     30 O1         -2.1746   -2.9405   -2.5836 O.2       1 <0>         0.0000
     31 O2         -0.6826   -1.2401   -2.4294 O.3       1 <0>         0.0000
     32 H1          3.7454   -2.8686    8.5854 H         1 <0>         0.0000
     33 H2          3.6180   -6.5872   -1.8684 H         1 <0>         0.0000
     34 H3          2.1540   -1.5365    7.2091 H         1 <0>         0.0000
     35 H4          3.8521   -5.3402    8.3002 H         1 <0>         0.0000
     36 H5          1.2503   -6.6992   -1.1021 H         1 <0>         0.0000
     37 H6          5.4167   -6.0485   -0.2313 H         1 <0>         0.0000
     38 H7          2.3919   -1.1367    1.6184 H         1 <0>         0.0000
     39 H8         -1.8086   -1.8735    2.1413 H         1 <0>         0.0000
     40 H9          0.6906   -2.6628    5.5587 H         1 <0>         0.0000
     41 H10         2.3860   -6.4629    6.6451 H         1 <0>         0.0000
     42 H11         0.6924   -6.2751    1.2823 H         1 <0>         0.0000
     43 H12         4.8468   -5.6185    2.1430 H         1 <0>         0.0000
     44 H13         2.9070   -3.2956    2.6449 H         1 <0>         0.0000
     45 H14        -1.3013   -4.0605    3.1303 H         1 <0>         0.0000
     46 H15        -0.6271    2.6548    0.6240 H         1 <0>         0.0000
     47 H16        -0.7067    2.7355    2.3938 H         1 <0>         0.0000
     48 H17         1.6009    1.5527    0.9289 H         1 <0>         0.0000
     49 H18         1.1580    1.0993    2.5925 H         1 <0>         0.0000
     50 H19        -1.6917    0.4637    2.4990 H         1 <0>         0.0000
     51 H20        -2.1847    0.7018    0.8087 H         1 <0>         0.0000
     52 H21        -1.2517   -1.0085   -4.9322 H         1 <0>         0.0000
     53 H22        -1.8662   -2.6799   -5.1345 H         1 <0>         0.0000
     54 H23        -0.1387   -2.3721   -4.8140 H         1 <0>         0.0000
     55 H24         0.5401   -6.4002    5.1180 H         1 <0>         0.0000
     56 H25        -0.4408   -4.9482    4.9736 H         1 <0>         0.0000
     57 H26         2.4027   -6.6818    3.8491 H         1 <0>         0.0000
     58 H27         3.2138   -5.1300    3.8137 H         1 <0>         0.0000
     59 H28         1.1251   -0.4270   -0.6745 H         1 <0>         0.0000
     60 H29        -0.1529    0.7615   -0.9204 H         1 <0>         0.0000
     61 H30        -0.5363   -2.2667   -0.6264 H         1 <0>         0.0000
     62 H31        -1.8689   -1.1117   -0.7269 H         1 <0>         0.0000
@<TRIPOS>BOND
     1    1    4 ar
     2    1    3 ar
     3    1   32 1
     4    2    6 ar
     5    2    5 ar
     6    2   33 1
     7    3    9 ar
     8    3   34 1
     9    4   10 ar
    10    4   35 1
    11    5   11 ar
    12    5   36 1
    13    6   12 ar
    14    6   37 1
    15    7   13 ar
    16    7   15 ar
    17    7   38 1
    18    8   14 ar
    19    8   15 ar
    20    8   39 1
    21    9   16 ar
    22    9   40 1
    23   10   16 ar
    24   10   41 1
    25   11   17 ar
    26   11   42 1
    27   12   17 ar
    28   12   43 1
    29   13   18 ar
    30   13   44 1
    31   14   18 ar
    32   14   45 1
    33   15   23 1
    34   16   25 1
    35   17   26 1
    36   18   29 1
    37   19   24 1
    38   19   30 2
    39   19   31 1
    40   20   22 1
    41   20   21 1
    42   20   46 1
    43   20   47 1
    44   21   23 1
    45   21   48 1
    46   21   49 1
    47   22   23 1
    48   22   50 1
    49   22   51 1
    50   23   27 1
    51   24   52 1
    52   24   53 1
    53   24   54 1
    54   25   29 1
    55   25   55 1
    56   25   56 1
    57   26   29 1
    58   26   57 1
    59   26   58 1
    60   27   28 1
    61   27   59 1
    62   27   60 1
    63   28   31 1
    64   28   61 1
    65   28   62 1
