@<TRIPOS>MOLECULE
*****
   55    56     0     0     0
SMALL
NO_CHARGES

@<TRIPOS>ATOM
      1 C1          0.0862    0.8782   -3.0769 C.ar      1 <0>         0.0000
      2 C2         -1.2491    1.0097   -2.6544 C.ar      1 <0>         0.0000
      3 C3          1.0182    0.3064   -2.2220 C.ar      1 <0>         0.0000
      4 C4         -1.6444    0.5868   -1.3881 C.ar      1 <0>         0.0000
      5 C5          0.6388   -0.1370   -0.9407 C.ar      1 <0>         0.0000
      6 C6         -0.6987    0.0180   -0.5264 C.ar      1 <0>         0.0000
      7 C7          1.6115   -0.8045   -0.0604 C.2       1 <0>         0.0000
      8 C8         -0.1232   -0.5176    1.7287 C.3       1 <0>         0.0000
      9 C9          1.0350   -1.4163    1.2300 C.3       1 <0>         0.0000
     10 C10        -1.6147    4.0038    3.5826 C.3       1 <0>         0.0000
     11 C11         4.4195   -2.0361    4.5867 C.3       1 <0>         0.0000
     12 C12        -0.1394   -6.0819    1.0057 C.3       1 <0>         0.0000
     13 C13         0.3023    0.8627    2.2413 C.3       1 <0>         0.0000
     14 C14         2.1652   -1.5236    2.2711 C.3       1 <0>         0.0000
     15 C15         0.4512   -2.8117    0.8627 C.3       1 <0>         0.0000
     16 C16        -0.4371    3.0976    3.2081 C.3       1 <0>         0.0000
     17 C17        -0.8848    1.7582    2.6117 C.3       1 <0>         0.0000
     18 C18         1.7475   -2.2110    3.5731 C.3       1 <0>         0.0000
     19 C19         1.5011   -3.8157    0.3927 C.3       1 <0>         0.0000
     20 O1          2.7977   -0.9334   -0.3506 O.2       1 <0>         0.0000
     21 O2          2.5857   -0.1617    5.0444 O.2       1 <0>         0.0000
     22 O3          2.3133   -2.4459    6.1645 O.2       1 <0>         0.0000
     23 O4         -0.2233   -4.8690   -1.3575 O.2       1 <0>         0.0000
     24 O5          1.8717   -6.1987   -0.7251 O.2       1 <0>         0.0000
     25 O6         -1.1331   -0.3939    0.6968 O.3       1 <0>         0.0000
     26 S1          2.7083   -1.6309    5.0049 S.o2      1 <0>         0.0000
     27 S2          0.7648   -5.3023   -0.3555 S.o2      1 <0>         0.0000
     28 H1          0.3810    1.2148   -4.0662 H         1 <0>         0.0000
     29 H2         -1.9852    1.4529   -3.3200 H         1 <0>         0.0000
     30 H3          2.0541    0.1742   -2.5193 H         1 <0>         0.0000
     31 H4         -2.6696    0.6919   -1.0463 H         1 <0>         0.0000
     32 H5         -0.6641   -1.0340    2.5273 H         1 <0>         0.0000
     33 H6         -2.2327    4.2321    2.7064 H         1 <0>         0.0000
     34 H7         -1.2684    4.9537    4.0034 H         1 <0>         0.0000
     35 H8         -2.2602    3.5250    4.3279 H         1 <0>         0.0000
     36 H9          5.0184   -1.7055    5.4373 H         1 <0>         0.0000
     37 H10         4.5086   -3.1161    4.4586 H         1 <0>         0.0000
     38 H11         4.7125   -1.4963    3.6856 H         1 <0>         0.0000
     39 H12        -0.5326   -7.0154    0.5987 H         1 <0>         0.0000
     40 H13         0.5505   -6.2917    1.8250 H         1 <0>         0.0000
     41 H14        -0.9596   -5.4357    1.3202 H         1 <0>         0.0000
     42 H15         0.9283    0.7221    3.1287 H         1 <0>         0.0000
     43 H16         0.9273    1.3680    1.4950 H         1 <0>         0.0000
     44 H17         2.5299   -0.5185    2.4892 H         1 <0>         0.0000
     45 H18         3.0044   -2.0524    1.8165 H         1 <0>         0.0000
     46 H19        -0.3014   -2.6951    0.0796 H         1 <0>         0.0000
     47 H20        -0.0722   -3.2008    1.7435 H         1 <0>         0.0000
     48 H21         0.1819    2.9113    4.0948 H         1 <0>         0.0000
     49 H22         0.2087    3.6153    2.4867 H         1 <0>         0.0000
     50 H23        -1.5247    1.2332    3.3342 H         1 <0>         0.0000
     51 H24        -1.5048    1.9382    1.7267 H         1 <0>         0.0000
     52 H25         0.7264   -1.9740    3.8836 H         1 <0>         0.0000
     53 H26         1.8460   -3.2994    3.5508 H         1 <0>         0.0000
     54 H27         2.1284   -3.4169   -0.4096 H         1 <0>         0.0000
     55 H28         2.1594   -4.1747    1.1877 H         1 <0>         0.0000
@<TRIPOS>BOND
     1    1    2 ar
     2    1    3 ar
     3    1   28 1
     4    2    4 ar
     5    2   29 1
     6    3    5 ar
     7    3   30 1
     8    4    6 ar
     9    4   31 1
    10    5    6 ar
    11    5    7 1
    12    6   25 1
    13    7    9 1
    14    7   20 2
    15    8    9 1
    16    8   13 1
    17    8   25 1
    18    8   32 1
    19    9   14 1
    20    9   15 1
    21   10   16 1
    22   10   33 1
    23   10   34 1
    24   10   35 1
    25   11   26 1
    26   11   36 1
    27   11   37 1
    28   11   38 1
    29   12   27 1
    30   12   39 1
    31   12   40 1
    32   12   41 1
    33   13   17 1
    34   13   42 1
    35   13   43 1
    36   14   18 1
    37   14   44 1
    38   14   45 1
    39   15   19 1
    40   15   46 1
    41   15   47 1
    42   16   17 1
    43   16   48 1
    44   16   49 1
    45   17   50 1
    46   17   51 1
    47   18   26 1
    48   18   52 1
    49   18   53 1
    50   19   27 1
    51   19   54 1
    52   19   55 1
    53   21   26 2
    54   22   26 2
    55   23   27 2
    56   24   27 2
