@<TRIPOS>MOLECULE
*****
   59    62     0     0     0
SMALL
NO_CHARGES

@<TRIPOS>ATOM
      1 C1          1.4501    1.9750   -0.0858 C.ar      1 <0>         0.0000
      2 C2          0.5358    3.8423   -1.3206 C.ar      1 <0>         0.0000
      3 C3         -1.0990    0.5259   -0.8165 C.ar      1 <0>         0.0000
      4 C4          2.6959    2.6014   -0.0716 C.ar      1 <0>         0.0000
      5 C5          1.7861    4.4586   -1.3074 C.ar      1 <0>         0.0000
      6 C6         -2.3469   -0.0886   -0.8623 C.ar      1 <0>         0.0000
      7 C7         -4.8616   -6.9073   -4.6929 C.ar      1 <0>         0.0000
      8 C8         -6.0271   -5.1427   -5.8891 C.ar      1 <0>         0.0000
      9 C9         -4.3936   -7.4260   -5.8979 C.ar      1 <0>         0.0000
     10 C10        -5.5563   -5.6615   -7.1027 C.ar      1 <0>         0.0000
     11 C11        -2.1643    2.6782   -0.6823 C.ar      1 <0>         0.0000
     12 C12         0.3451    2.5862   -0.7109 C.ar      1 <0>         0.0000
     13 C13        -0.9750    1.9301   -0.7338 C.ar      1 <0>         0.0000
     14 C14         2.8845    3.8494   -0.6834 C.ar      1 <0>         0.0000
     15 C15        -3.4325    2.0884   -0.7298 C.ar      1 <0>         0.0000
     16 C16        -3.4980    0.6965   -0.8285 C.ar      1 <0>         0.0000
     17 C17        -5.6750   -5.7683   -4.6906 C.ar      1 <0>         0.0000
     18 C18        -4.7495   -6.7910   -7.0873 C.ar      1 <0>         0.0000
     19 C19         4.2742    4.5391   -0.6752 C.2       1 <0>         0.0000
     20 C20        -4.6895    2.9353   -0.6810 C.3       1 <0>         0.0000
     21 C21        -5.9348    2.0820   -0.4061 C.3       1 <0>         0.0000
     22 C22        -5.8490    0.8153   -1.2515 C.3       1 <0>         0.0000
     23 C23        -7.0423   -0.1158   -1.0719 C.3       1 <0>         0.0000
     24 C24        -7.6767   -2.5564   -1.5120 C.3       1 <0>         0.0000
     25 C25        -6.8207   -4.1237   -3.3535 C.3       1 <0>         0.0000
     26 C26        -7.0160   -3.8915   -1.8541 C.3       1 <0>         0.0000
     27 N1         -6.6890   -1.4406   -1.7010 N.4       1 <0>         0.0000
     28 O1          4.3085    5.6623   -1.2450 O.co2     1 <0>         0.0000
     29 O2          5.1848    3.8854   -0.1007 O.co2     1 <0>         0.0000
     30 O3         -4.7332    0.0146   -0.8756 O.3       1 <0>         0.0000
     31 O4         -5.7685   -3.8714   -1.1707 O.3       1 <0>         0.0000
     32 O5         -6.0924   -5.3335   -3.4388 O.3       1 <0>         0.0000
     33 F1         -4.2953   -7.2928   -8.2593 F         1 <0>         0.0000
     34 H1          1.3203    1.0218    0.4246 H         1 <0>         0.0000
     35 H2         -0.2927    4.3166   -1.8448 H         1 <0>         0.0000
     36 H3         -0.2033   -0.0839   -0.8775 H         1 <0>         0.0000
     37 H4          3.5578    2.1532    0.4151 H         1 <0>         0.0000
     38 H5          1.9583    5.4196   -1.7842 H         1 <0>         0.0000
     39 H6         -2.4370   -1.1696   -0.9365 H         1 <0>         0.0000
     40 H7         -4.6038   -7.3778   -3.7489 H         1 <0>         0.0000
     41 H8         -6.6637   -4.2651   -5.9090 H         1 <0>         0.0000
     42 H9         -3.7602   -8.3069   -5.9244 H         1 <0>         0.0000
     43 H10        -5.8133   -5.1951   -8.0484 H         1 <0>         0.0000
     44 H11        -2.0993    3.7580   -0.5759 H         1 <0>         0.0000
     45 H12        -4.5915    3.7053    0.0897 H         1 <0>         0.0000
     46 H13        -4.8141    3.4657   -1.6334 H         1 <0>         0.0000
     47 H14        -5.9734    1.7874    0.6488 H         1 <0>         0.0000
     48 H15        -6.8508    2.6372   -0.6378 H         1 <0>         0.0000
     49 H16        -5.7520    1.0943   -2.3154 H         1 <0>         0.0000
     50 H17        -7.9500    0.2668   -1.5421 H         1 <0>         0.0000
     51 H18        -7.2258   -0.3139   -0.0140 H         1 <0>         0.0000
     52 H19        -8.5611   -2.3543   -2.1192 H         1 <0>         0.0000
     53 H20        -7.9561   -2.5457   -0.4576 H         1 <0>         0.0000
     54 H21        -6.2473   -3.3057   -3.8175 H         1 <0>         0.0000
     55 H22        -7.7946   -4.2034   -3.8559 H         1 <0>         0.0000
     56 H23        -7.6596   -4.6916   -1.4652 H         1 <0>         0.0000
     57 H24        -6.4989   -1.2943   -2.6976 H         1 <0>         0.0000
     58 H25        -5.7794   -1.7319   -1.2961 H         1 <0>         0.0000
     59 H26        -5.2499   -4.6402   -1.4690 H         1 <0>         0.0000
@<TRIPOS>BOND
     1    1    4 ar
     2    1   12 ar
     3    1   34 1
     4    2    5 ar
     5    2   12 ar
     6    2   35 1
     7    3    6 ar
     8    3   13 ar
     9    3   36 1
    10    4   14 ar
    11    4   37 1
    12    5   14 ar
    13    5   38 1
    14    6   16 ar
    15    6   39 1
    16    7    9 ar
    17    7   17 ar
    18    7   40 1
    19    8   10 ar
    20    8   17 ar
    21    8   41 1
    22    9   18 ar
    23    9   42 1
    24   10   18 ar
    25   10   43 1
    26   11   13 ar
    27   11   15 ar
    28   11   44 1
    29   12   13 1
    30   14   19 1
    31   15   16 ar
    32   15   20 1
    33   16   30 1
    34   17   32 1
    35   18   33 1
    36   19   28 1
    37   19   29 2
    38   20   21 1
    39   20   45 1
    40   20   46 1
    41   21   22 1
    42   21   47 1
    43   21   48 1
    44   22   23 1
    45   22   30 1
    46   22   49 1
    47   23   27 1
    48   23   50 1
    49   23   51 1
    50   24   26 1
    51   24   27 1
    52   24   52 1
    53   24   53 1
    54   25   26 1
    55   25   32 1
    56   25   54 1
    57   25   55 1
    58   26   31 1
    59   26   56 1
    60   27   57 1
    61   27   58 1
    62   31   59 1
