@<TRIPOS>MOLECULE
*****
   56    58     0     0     0
SMALL
NO_CHARGES

@<TRIPOS>ATOM
      1 C1          6.4470   -1.7489    2.1225 C.ar      1 <0>         0.0000
      2 C2          7.0397   -1.4012    3.3210 C.ar      1 <0>         0.0000
      3 C3         12.6524   -4.5652    3.6208 C.ar      1 <0>         0.0000
      4 C4         12.1564   -3.1019    5.5133 C.ar      1 <0>         0.0000
      5 C5         11.3075   -4.9480    3.5785 C.ar      1 <0>         0.0000
      6 C6         10.8134   -3.4899    5.4661 C.ar      1 <0>         0.0000
      7 C7          3.3741   -1.0266   -1.3636 C.ar      1 <0>         0.0000
      8 C8          2.2297   -2.4801    0.1845 C.ar      1 <0>         0.0000
      9 C9          7.2342   -4.0006    2.3318 C.ar      1 <0>         0.0000
     10 C10         6.5362   -3.0587    1.5867 C.ar      1 <0>         0.0000
     11 C11         4.5860   -1.6583   -1.0439 C.ar      1 <0>         0.0000
     12 C12         3.4280   -3.1188    0.5048 C.ar      1 <0>         0.0000
     13 C13         4.6319   -2.7157   -0.1147 C.ar      1 <0>         0.0000
     14 C14         7.7938   -2.3348    4.1332 C.ar      1 <0>         0.0000
     15 C15         2.1818   -1.4338   -0.7521 C.ar      1 <0>         0.0000
     16 C16        13.0433   -3.6486    4.5920 C.ar      1 <0>         0.0000
     17 C17        10.4033   -4.4116    4.4972 C.ar      1 <0>         0.0000
     18 C18         7.8313   -3.6680    3.5630 C.ar      1 <0>         0.0000
     19 C19         1.3030    0.2657   -3.2061 C.2       1 <0>         0.0000
     20 C20         5.8429   -1.1620   -1.7340 C.3       1 <0>         0.0000
     21 C21         3.4238   -4.2363    1.5253 C.3       1 <0>         0.0000
     22 C22         1.3556    1.4988   -0.9041 C.3       1 <0>         0.0000
     23 C23        -0.7616    0.4683   -1.7835 C.3       1 <0>         0.0000
     24 C24         5.9352   -3.4156    0.2309 C.3       1 <0>         0.0000
     25 C25         0.7615    0.3442   -1.7135 C.3       1 <0>         0.0000
     26 O1          8.3634   -1.9965    5.2178 O.3       1 <0>         0.0000
     27 O2          0.8936   -0.7211   -3.8660 O.co2     1 <0>         0.0000
     28 O3          2.0458    1.2235   -3.5648 O.co2     1 <0>         0.0000
     29 O4          8.6825   -6.1693    3.5758 O.2       1 <0>         0.0000
     30 O5          8.2275   -5.0975    5.8304 O.2       1 <0>         0.0000
     31 O6          0.9463   -0.9056   -0.9746 O.3       1 <0>         0.0000
     32 F1         14.3621   -3.2721    4.6429 F         1 <0>         0.0000
     33 S1          8.6743   -4.9521    4.4304 S.o2      1 <0>         0.0000
     34 H1          5.8789   -1.0002    1.5718 H         1 <0>         0.0000
     35 H2          6.9573   -0.3875    3.7088 H         1 <0>         0.0000
     36 H3         13.3837   -4.9636    2.9233 H         1 <0>         0.0000
     37 H4         12.5117   -2.3812    6.2444 H         1 <0>         0.0000
     38 H5         10.9508   -5.6663    2.8470 H         1 <0>         0.0000
     39 H6         10.0695   -3.0663    6.1308 H         1 <0>         0.0000
     40 H7          3.3663   -0.2309   -2.0998 H         1 <0>         0.0000
     41 H8          1.2988   -2.7824    0.6591 H         1 <0>         0.0000
     42 H9          7.3250   -5.0245    1.9766 H         1 <0>         0.0000
     43 H10         6.6277   -0.9018   -1.0142 H         1 <0>         0.0000
     44 H11         6.2623   -1.9196   -2.4084 H         1 <0>         0.0000
     45 H12         5.6227   -0.2750   -2.3339 H         1 <0>         0.0000
     46 H13         3.7532   -5.1866    1.0848 H         1 <0>         0.0000
     47 H14         4.1058   -4.0241    2.3551 H         1 <0>         0.0000
     48 H15         2.4192   -4.3887    1.9321 H         1 <0>         0.0000
     49 H16         0.9231    1.5137    0.1054 H         1 <0>         0.0000
     50 H17         1.1405    2.4435   -1.4096 H         1 <0>         0.0000
     51 H18         2.4404    1.4189   -0.8201 H         1 <0>         0.0000
     52 H19        -1.1991    0.4894   -0.7765 H         1 <0>         0.0000
     53 H20        -1.1585   -0.3834   -2.3406 H         1 <0>         0.0000
     54 H21        -1.0341    1.3899   -2.3096 H         1 <0>         0.0000
     55 H22         6.6710   -3.2083   -0.5541 H         1 <0>         0.0000
     56 H23         5.7841   -4.5022    0.2038 H         1 <0>         0.0000
@<TRIPOS>BOND
     1    1    2 ar
     2    1   10 ar
     3    1   34 1
     4    2   14 ar
     5    2   35 1
     6    3    5 ar
     7    3   16 ar
     8    3   36 1
     9    4    6 ar
    10    4   16 ar
    11    4   37 1
    12    5   17 ar
    13    5   38 1
    14    6   17 ar
    15    6   39 1
    16    7   11 ar
    17    7   15 ar
    18    7   40 1
    19    8   12 ar
    20    8   15 ar
    21    8   41 1
    22    9   10 ar
    23    9   18 ar
    24    9   42 1
    25   10   24 1
    26   11   13 ar
    27   11   20 1
    28   12   13 ar
    29   12   21 1
    30   13   24 1
    31   14   18 ar
    32   14   26 1
    33   15   31 1
    34   16   32 1
    35   17   33 1
    36   18   33 1
    37   19   25 1
    38   19   27 1
    39   19   28 2
    40   20   43 1
    41   20   44 1
    42   20   45 1
    43   21   46 1
    44   21   47 1
    45   21   48 1
    46   22   25 1
    47   22   49 1
    48   22   50 1
    49   22   51 1
    50   23   25 1
    51   23   52 1
    52   23   53 1
    53   23   54 1
    54   24   55 1
    55   24   56 1
    56   25   31 1
    57   29   33 2
    58   30   33 2
