@<TRIPOS>MOLECULE
*****
   14    14     0     0     0
SMALL
NO_CHARGES

@<TRIPOS>ATOM
      1 C1         -0.0902   -0.9420    0.5216 C.2       1 <0>         0.0000
      2 C2         -0.5536   -1.1782    1.7989 C.2       1 <0>         0.0000
      3 C3         -0.0938   -3.2451    1.2275 C.2       1 <0>         0.0000
      4 C4         -0.4812   -5.4394    2.8975 C.3       1 <0>         0.0000
      5 N1         -0.5568   -2.4983    2.2053 N.2       1 <0>         0.0000
      6 O1         -0.8259   -5.5559    0.3009 O.2       1 <0>         0.0000
      7 O2          1.5073   -5.3077    1.2175 O.2       1 <0>         0.0000
      8 S1          0.3645   -2.4256   -0.2089 S.3       1 <0>         0.0000
      9 S2          0.0884   -4.9739    1.2763 S.o2      1 <0>         0.0000
     10 Br1        -1.1584    0.1943    2.9565 Br        1 <0>         0.0000
     11 H1          0.0037   -0.0035   -0.0066 H         1 <0>         0.0000
     12 H2         -0.3930   -6.5225    2.9957 H         1 <0>         0.0000
     13 H3          0.1415   -4.9362    3.6388 H         1 <0>         0.0000
     14 H4         -1.5224   -5.1297    2.9987 H         1 <0>         0.0000
@<TRIPOS>BOND
     1    1    2 2
     2    1    8 1
     3    1   11 1
     4    2    5 1
     5    2   10 1
     6    3    5 2
     7    3    8 1
     8    3    9 1
     9    4    9 1
    10    4   12 1
    11    4   13 1
    12    4   14 1
    13    6    9 2
    14    7    9 2
