@<TRIPOS>MOLECULE
*****
   21    21     0     0     0
SMALL
NO_CHARGES

@<TRIPOS>ATOM
      1 C1          1.8851   -1.0363   -0.1124 C.ar      1 <0>         0.0000
      2 C2          2.9210   -1.6309    0.6081 C.ar      1 <0>         0.0000
      3 C3          0.8066   -0.4630    0.5610 C.ar      1 <0>         0.0000
      4 C4          1.7997   -1.0786    2.6757 C.ar      1 <0>         0.0000
      5 C5          2.8783   -1.6520    2.0022 C.ar      1 <0>         0.0000
      6 C6          0.7638   -0.4841    1.9551 C.ar      1 <0>         0.0000
      7 C7          1.7539   -1.1015    4.1665 C.3       1 <0>         0.0000
      8 C8          0.5935   -2.2246    6.4194 C.3       1 <0>         0.0000
      9 O1          1.0259   -3.6096    4.2576 O.2       1 <0>         0.0000
     10 O2         -0.7572   -1.8217    4.2306 O.2       1 <0>         0.0000
     11 F1          3.8784   -2.2253    2.6859 F         1 <0>         0.0000
     12 F2         -0.2766    0.0696    2.5932 F         1 <0>         0.0000
     13 F3          0.2814   -0.9891    6.8798 F         1 <0>         0.0000
     14 F4         -0.2862   -3.0937    6.9726 F         1 <0>         0.0000
     15 F5          1.8223   -2.5336    6.8986 F         1 <0>         0.0000
     16 S1          0.5501   -2.2947    4.6539 S.o2      1 <0>         0.0000
     17 H1          1.9188   -1.0190   -1.1978 H         1 <0>         0.0000
     18 H2          3.7612   -2.0765    0.0838 H         1 <0>         0.0000
     19 H3          0.0000   -0.0002    0.0001 H         1 <0>         0.0000
     20 H4          1.4597   -0.1339    4.5883 H         1 <0>         0.0000
     21 H5          2.7142   -1.3920    4.6075 H         1 <0>         0.0000
@<TRIPOS>BOND
     1    1    3 ar
     2    1    2 ar
     3    1   17 1
     4    2    5 ar
     5    2   18 1
     6    3    6 ar
     7    3   19 1
     8    4    6 ar
     9    4    5 ar
    10    4    7 1
    11    5   11 1
    12    6   12 1
    13    7   16 1
    14    7   20 1
    15    7   21 1
    16    8   13 1
    17    8   14 1
    18    8   15 1
    19    8   16 1
    20    9   16 2
    21   10   16 2
