@<TRIPOS>MOLECULE
*****
   47    49     0     0     0
SMALL
NO_CHARGES

@<TRIPOS>ATOM
      1 C1          3.9643    5.2489   -4.1918 C.ar      1 <0>         0.0000
      2 C2          1.9601    3.9216   -4.2129 C.ar      1 <0>         0.0000
      3 C3          4.7395    4.1002   -4.0313 C.ar      1 <0>         0.0000
      4 C4          2.7185    2.7578   -4.0530 C.ar      1 <0>         0.0000
      5 C5          2.5642    5.1841   -4.2765 C.ar      1 <0>         0.0000
      6 C6          4.1048    2.8592   -3.9586 C.ar      1 <0>         0.0000
      7 C7          3.3621    2.6768   -0.4397 C.2       1 <0>         0.0000
      8 C8          1.1587    2.5085   -0.9978 C.2       1 <0>         0.0000
      9 C9          0.9413    4.9724   -1.4859 C.2       1 <0>         0.0000
     10 C10         5.5418    3.1577    0.8518 C.3       1 <0>         0.0000
     11 C11         5.9068    3.0181   -0.5977 C.3       1 <0>         0.0000
     12 C12         4.7124    2.2519   -0.0508 C.3       1 <0>         0.0000
     13 C13         1.5577    8.5074   -1.1235 C.3       1 <0>         0.0000
     14 C14         2.2791   -0.3312   -1.6845 C.3       1 <0>         0.0000
     15 C15         1.7360    6.4393   -4.4761 C.3       1 <0>         0.0000
     16 C16         1.9633    7.5625   -3.4444 C.3       1 <0>         0.0000
     17 C17         1.2937    7.3377   -2.0770 C.3       1 <0>         0.0000
     18 N1          2.9869    3.9027   -0.6770 N.2       1 <0>         0.0000
     19 N2          2.3138    1.7990   -0.6156 N.am      1 <0>         0.0000
     20 N3          1.6275    3.8227   -1.0062 N.am      1 <0>         0.0000
     21 N4          1.7199    6.0870   -1.4545 N.am      1 <0>         0.0000
     22 N5          2.3593    0.4153   -0.4134 N.3       1 <0>         0.0000
     23 O1          0.0641    2.0225   -1.2214 O.2       1 <0>         0.0000
     24 O2         -0.2150    4.9107   -1.8762 O.2       1 <0>         0.0000
     25 Cl1         5.0785    1.4057   -3.7521 Cl        1 <0>         0.0000
     26 H1          4.4671    6.2111   -4.2564 H         1 <0>         0.0000
     27 H2          0.8776    3.8397   -4.2570 H         1 <0>         0.0000
     28 H3          5.8217    4.1632   -3.9722 H         1 <0>         0.0000
     29 H4          2.2310    1.7900   -3.9998 H         1 <0>         0.0000
     30 H5          6.1627    2.6707    1.5975 H         1 <0>         0.0000
     31 H6          5.0689    4.0817    1.1690 H         1 <0>         0.0000
     32 H7          5.6752    3.8448   -1.2604 H         1 <0>         0.0000
     33 H8          6.7802    2.4334   -0.8681 H         1 <0>         0.0000
     34 H9          4.8099    1.1805    0.0786 H         1 <0>         0.0000
     35 H10         2.6291    8.6082   -0.9121 H         1 <0>         0.0000
     36 H11         1.2134    9.4497   -1.5617 H         1 <0>         0.0000
     37 H12         1.0356    8.3535   -0.1751 H         1 <0>         0.0000
     38 H13         3.1771   -0.1268   -2.2699 H         1 <0>         0.0000
     39 H14         1.3873   -0.0810   -2.2702 H         1 <0>         0.0000
     40 H15         2.2610   -1.3960   -1.4356 H         1 <0>         0.0000
     41 H16         1.9657    6.8442   -5.4698 H         1 <0>         0.0000
     42 H17         0.6746    6.1728   -4.4886 H         1 <0>         0.0000
     43 H18         1.5644    8.4985   -3.8533 H         1 <0>         0.0000
     44 H19         3.0383    7.7305   -3.2989 H         1 <0>         0.0000
     45 H20         0.2170    7.2341   -2.2304 H         1 <0>         0.0000
     46 H21         2.6968    5.9498   -1.2188 H         1 <0>         0.0000
     47 H22         1.5523    0.1866    0.1667 H         1 <0>         0.0000
@<TRIPOS>BOND
     1    1    3 ar
     2    1    5 ar
     3    1   26 1
     4    2    4 ar
     5    2    5 ar
     6    2   27 1
     7    3    6 ar
     8    3   28 1
     9    4    6 ar
    10    4   29 1
    11    5   15 1
    12    6   25 1
    13    7   12 1
    14    7   18 2
    15    7   19 1
    16    8   19 am
    17    8   20 am
    18    8   23 2
    19    9   20 am
    20    9   21 am
    21    9   24 2
    22   10   11 1
    23   10   12 1
    24   10   30 1
    25   10   31 1
    26   11   12 1
    27   11   32 1
    28   11   33 1
    29   12   34 1
    30   13   17 1
    31   13   35 1
    32   13   36 1
    33   13   37 1
    34   14   22 1
    35   14   38 1
    36   14   39 1
    37   14   40 1
    38   15   16 1
    39   15   41 1
    40   15   42 1
    41   16   17 1
    42   16   43 1
    43   16   44 1
    44   17   21 1
    45   17   45 1
    46   18   20 1
    47   19   22 1
    48   21   46 1
    49   22   47 1
