@<TRIPOS>MOLECULE
*****
   69    71     0     0     0
SMALL
NO_CHARGES

@<TRIPOS>ATOM
      1 C1         -9.0599   -3.6952   -2.9086 C.1       1 <0>         0.0000
      2 C2         -8.5150   -2.6866   -0.7560 C.ar      1 <0>         0.0000
      3 C3         -7.7646   -2.6281    0.4164 C.ar      1 <0>         0.0000
      4 C4         -6.5510   -4.6155   -0.2738 C.ar      1 <0>         0.0000
      5 C5         -8.2774   -3.6942   -1.7036 C.ar      1 <0>         0.0000
      6 C6         -7.2860   -4.6655   -1.4526 C.ar      1 <0>         0.0000
      7 C7         -6.7800   -3.5886    0.6444 C.ar      1 <0>         0.0000
      8 C8         -6.5977   -3.5549    3.1354 C.2       1 <0>         0.0000
      9 C9         -4.6283   -3.4659    1.9349 C.2       1 <0>         0.0000
     10 C10         1.6675   -5.2571   -1.0913 C.2       1 <0>         0.0000
     11 C11        -0.3239   -3.7190   -1.1593 C.3       1 <0>         0.0000
     12 C12        -0.0547   -5.3122    0.6387 C.3       1 <0>         0.0000
     13 C13        -0.1037   -2.5468   -0.1951 C.3       1 <0>         0.0000
     14 C14         0.2202   -4.1992    1.6474 C.3       1 <0>         0.0000
     15 C15        -5.4447   -3.5434    4.1407 C.3       1 <0>         0.0000
     16 C16        -5.4614   -4.8541    4.9424 C.3       1 <0>         0.0000
     17 C17        -5.5486   -2.3116    5.0492 C.3       1 <0>         0.0000
     18 C18         3.8926   -4.8914   -4.2735 C.3       1 <0>         0.0000
     19 C19         2.1408   -4.7451   -2.4441 C.3       1 <0>         0.0000
     20 C20         3.4208   -5.4383   -2.9230 C.3       1 <0>         0.0000
     21 C21        -2.3282   -1.9506    3.6293 C.3       1 <0>         0.0000
     22 C22        -0.7881   -1.9023    3.5689 C.3       1 <0>         0.0000
     23 C23        -2.8971   -3.3834    3.6826 C.3       1 <0>         0.0000
     24 C24        -0.2019   -1.7683    2.1617 C.3       1 <0>         0.0000
     25 C25        -7.0075   -5.7620   -2.4611 C.3       1 <0>         0.0000
     26 N1         -9.7094   -3.6557   -3.8735 N.1       1 <0>         0.0000
     27 N2         -6.0166   -3.5408    1.8530 N.am      1 <0>         0.0000
     28 N3         -4.2787   -3.4685    3.2342 N.pl3     1 <0>         0.0000
     29 N4          0.3728   -4.9061   -0.6924 N.am      1 <0>         0.0000
     30 N5         -0.4712   -2.9233    1.2247 N.4       1 <0>         0.0000
     31 O1         -7.7804   -3.5761    3.3808 O.2       1 <0>         0.0000
     32 O2          2.3543   -5.9752   -0.3740 O.2       1 <0>         0.0000
     33 F1         -6.0434   -6.6052   -2.0181 F         1 <0>         0.0000
     34 F2         -8.1065   -6.4999   -2.7116 F         1 <0>         0.0000
     35 F3         -6.5798   -5.2467   -3.6353 F         1 <0>         0.0000
     36 S1         -3.6024   -3.3750    0.6029 S.2       1 <0>         0.0000
     37 H1         -9.2854   -1.9477   -0.9494 H         1 <0>         0.0000
     38 H2         -7.9496   -1.8477    1.1465 H         1 <0>         0.0000
     39 H3         -5.7987   -5.3680   -0.0749 H         1 <0>         0.0000
     40 H4         -1.3935   -3.9374   -1.2501 H         1 <0>         0.0000
     41 H5          0.0256   -3.4196   -2.1461 H         1 <0>         0.0000
     42 H6          0.5047   -6.1991    0.9342 H         1 <0>         0.0000
     43 H7         -1.1228   -5.5551    0.6156 H         1 <0>         0.0000
     44 H8          0.9463   -2.2430   -0.1824 H         1 <0>         0.0000
     45 H9         -0.7241   -1.6900   -0.4678 H         1 <0>         0.0000
     46 H10        -0.1413   -4.4629    2.6414 H         1 <0>         0.0000
     47 H11         1.2909   -3.9879    1.7032 H         1 <0>         0.0000
     48 H12        -4.6597   -4.8646    5.6861 H         1 <0>         0.0000
     49 H13        -5.3466   -5.7206    4.2854 H         1 <0>         0.0000
     50 H14        -6.4159   -4.9386    5.4668 H         1 <0>         0.0000
     51 H15        -4.7389   -2.3068    5.7846 H         1 <0>         0.0000
     52 H16        -6.4991   -2.3439    5.5864 H         1 <0>         0.0000
     53 H17        -5.5080   -1.3853    4.4695 H         1 <0>         0.0000
     54 H18         4.1147   -3.8193   -4.2171 H         1 <0>         0.0000
     55 H19         3.1357   -5.0350   -5.0529 H         1 <0>         0.0000
     56 H20         4.8040   -5.4003   -4.6007 H         1 <0>         0.0000
     57 H21         2.3181   -3.6622   -2.3699 H         1 <0>         0.0000
     58 H22         1.3416   -4.8732   -3.1842 H         1 <0>         0.0000
     59 H23         3.2369   -6.5149   -2.9939 H         1 <0>         0.0000
     60 H24         4.2006   -5.3136   -2.1666 H         1 <0>         0.0000
     61 H25        -2.7495   -1.4303    2.7641 H         1 <0>         0.0000
     62 H26        -2.6743   -1.4062    4.5114 H         1 <0>         0.0000
     63 H27        -0.4356   -1.0121    4.0995 H         1 <0>         0.0000
     64 H28        -0.3443   -2.7487    4.1039 H         1 <0>         0.0000
     65 H29        -2.8514   -3.7703    4.7027 H         1 <0>         0.0000
     66 H30        -2.3146   -4.0710    3.0641 H         1 <0>         0.0000
     67 H31         0.8842   -1.6520    2.2026 H         1 <0>         0.0000
     68 H32        -0.6194   -0.8834    1.6748 H         1 <0>         0.0000
     69 H33        -1.5089   -3.1015    1.2068 H         1 <0>         0.0000
@<TRIPOS>BOND
     1    1    5 1
     2    1   26 3
     3    2    3 ar
     4    2    5 ar
     5    2   37 1
     6    3    7 ar
     7    3   38 1
     8    4    6 ar
     9    4    7 ar
    10    4   39 1
    11    5    6 ar
    12    6   25 1
    13    7   27 1
    14    8   15 1
    15    8   27 am
    16    8   31 2
    17    9   27 1
    18    9   28 1
    19    9   36 2
    20   10   19 1
    21   10   29 am
    22   10   32 2
    23   11   13 1
    24   11   29 1
    25   11   40 1
    26   11   41 1
    27   12   14 1
    28   12   29 1
    29   12   42 1
    30   12   43 1
    31   13   30 1
    32   13   44 1
    33   13   45 1
    34   14   30 1
    35   14   46 1
    36   14   47 1
    37   15   16 1
    38   15   17 1
    39   15   28 1
    40   16   48 1
    41   16   49 1
    42   16   50 1
    43   17   51 1
    44   17   52 1
    45   17   53 1
    46   18   20 1
    47   18   54 1
    48   18   55 1
    49   18   56 1
    50   19   20 1
    51   19   57 1
    52   19   58 1
    53   20   59 1
    54   20   60 1
    55   21   22 1
    56   21   23 1
    57   21   61 1
    58   21   62 1
    59   22   24 1
    60   22   63 1
    61   22   64 1
    62   23   28 1
    63   23   65 1
    64   23   66 1
    65   24   30 1
    66   24   67 1
    67   24   68 1
    68   25   33 1
    69   25   34 1
    70   25   35 1
    71   30   69 1
