@<TRIPOS>MOLECULE
*****
   27    27     0     0     0
SMALL
NO_CHARGES

@<TRIPOS>ATOM
      1 C1          0.6595    0.8564   -0.0246 C.2       1 <0>         0.0000
      2 C2          0.2183   -0.2322   -0.6991 C.2       1 <0>         0.0000
      3 C3          1.2364    2.0632   -0.6337 C.2       1 <0>         0.0000
      4 C4          0.0742   -1.0659    1.5729 C.3       1 <0>         0.0000
      5 C5         -0.4633   -1.2876    0.1493 C.3       1 <0>         0.0000
      6 C6         -1.9946   -1.1390    0.0519 C.3       1 <0>         0.0000
      7 C7          2.7891    6.5334    0.6104 C.3       1 <0>         0.0000
      8 C8          2.1888    5.1845    1.0233 C.3       1 <0>         0.0000
      9 C9          2.0233    4.2586   -0.1712 C.3       1 <0>         0.0000
     10 O1          1.4864    2.2138   -1.8175 O.2       1 <0>         0.0000
     11 O2          0.2566   -0.3662   -2.0487 O.3       1 <0>         0.0000
     12 O3          1.4567    3.0178    0.3095 O.3       1 <0>         0.0000
     13 S1          0.4021    0.7408    1.7477 S.3       1 <0>         0.0000
     14 H1         -0.6359   -1.3799    2.3409 H         1 <0>         0.0000
     15 H2          1.0175   -1.6007    1.7156 H         1 <0>         0.0000
     16 H3         -0.1772   -2.2922   -0.1928 H         1 <0>         0.0000
     17 H4         -2.3064   -0.1705    0.4534 H         1 <0>         0.0000
     18 H5         -2.4929   -1.9298    0.6219 H         1 <0>         0.0000
     19 H6         -2.3378   -1.2028   -0.9859 H         1 <0>         0.0000
     20 H7          3.7772    6.4076    0.1535 H         1 <0>         0.0000
     21 H8          2.1504    7.0495   -0.1155 H         1 <0>         0.0000
     22 H9          2.9052    7.1909    1.4776 H         1 <0>         0.0000
     23 H10         1.2117    5.3334    1.4964 H         1 <0>         0.0000
     24 H11         2.8292    4.6959    1.7661 H         1 <0>         0.0000
     25 H12         1.3553    4.6845   -0.9268 H         1 <0>         0.0000
     26 H13         2.9812    4.0456   -0.6564 H         1 <0>         0.0000
     27 H14        -0.0608   -1.2532   -2.2823 H         1 <0>         0.0000
@<TRIPOS>BOND
     1    1    2 2
     2    1    3 1
     3    1   13 1
     4    2    5 1
     5    2   11 1
     6    3   10 2
     7    3   12 1
     8    4    5 1
     9    4   13 1
    10    4   14 1
    11    4   15 1
    12    5    6 1
    13    5   16 1
    14    6   17 1
    15    6   18 1
    16    6   19 1
    17    7    8 1
    18    7   20 1
    19    7   21 1
    20    7   22 1
    21    8    9 1
    22    8   23 1
    23    8   24 1
    24    9   12 1
    25    9   25 1
    26    9   26 1
    27   11   27 1
