@<TRIPOS>MOLECULE
*****
   27    27     0     0     0
SMALL
NO_CHARGES

@<TRIPOS>ATOM
      1 C1          0.9106    0.8428   -0.2534 C.2       1 <0>         0.0000
      2 C2          0.6238   -0.3514   -0.8237 C.2       1 <0>         0.0000
      3 C3          1.5425    2.0335   -0.8408 C.2       1 <0>         0.0000
      4 C4          0.0769   -0.8440    1.4854 C.3       1 <0>         0.0000
      5 C5         -0.1855   -1.2989    0.0401 C.3       1 <0>         0.0000
      6 C6         -1.6750   -1.2336   -0.3526 C.3       1 <0>         0.0000
      7 C7          4.0638    1.3790   -4.1087 C.3       1 <0>         0.0000
      8 C8          3.0464    2.5252   -4.1292 C.3       1 <0>         0.0000
      9 C9          2.6122    2.9678   -2.7405 C.3       1 <0>         0.0000
     10 O1          1.6630    3.0903   -0.2384 O.2       1 <0>         0.0000
     11 O2          0.9104   -0.6915   -2.1104 O.3       1 <0>         0.0000
     12 O3          1.9657    1.8361   -2.1080 O.3       1 <0>         0.0000
     13 S1          0.3376    0.9812    1.4370 S.3       1 <0>         0.0000
     14 H1         -0.7571   -1.0726    2.1523 H         1 <0>         0.0000
     15 H2          0.9860   -1.3104    1.8758 H         1 <0>         0.0000
     16 H3          0.1739   -2.3302   -0.0860 H         1 <0>         0.0000
     17 H4         -2.0701   -0.2304   -0.1681 H         1 <0>         0.0000
     18 H5         -2.2571   -1.9510    0.2346 H         1 <0>         0.0000
     19 H6         -1.8206   -1.4671   -1.4125 H         1 <0>         0.0000
     20 H7          4.9696    1.6663   -3.5619 H         1 <0>         0.0000
     21 H8          3.6409    0.4963   -3.6210 H         1 <0>         0.0000
     22 H9          4.3606    1.0999   -5.1251 H         1 <0>         0.0000
     23 H10         2.1587    2.2295   -4.7002 H         1 <0>         0.0000
     24 H11         3.4717    3.4010   -4.6351 H         1 <0>         0.0000
     25 H12         3.4641    3.2753   -2.1254 H         1 <0>         0.0000
     26 H13         1.9052    3.8019   -2.7786 H         1 <0>         0.0000
     27 H14         0.6658   -1.6213   -2.2437 H         1 <0>         0.0000
@<TRIPOS>BOND
     1    1    2 2
     2    1    3 1
     3    1   13 1
     4    2    5 1
     5    2   11 1
     6    3   10 2
     7    3   12 1
     8    4    5 1
     9    4   13 1
    10    4   14 1
    11    4   15 1
    12    5    6 1
    13    5   16 1
    14    6   17 1
    15    6   18 1
    16    6   19 1
    17    7    8 1
    18    7   20 1
    19    7   21 1
    20    7   22 1
    21    8    9 1
    22    8   23 1
    23    8   24 1
    24    9   12 1
    25    9   25 1
    26    9   26 1
    27   11   27 1
