@<TRIPOS>MOLECULE
*****
   27    27     0     0     0
SMALL
NO_CHARGES

@<TRIPOS>ATOM
      1 C1          0.6222    1.0405   -0.1958 C.2       1 <0>         0.0000
      2 C2          0.5063   -0.1755   -0.8027 C.2       1 <0>         0.0000
      3 C3          1.0561    2.2054   -0.9405 C.2       1 <0>         0.0000
      4 C4          0.1527   -0.8123    1.5033 C.3       1 <0>         0.0000
      5 C5         -0.0777   -1.2724    0.0501 C.3       1 <0>         0.0000
      6 C6         -1.5664   -1.4667   -0.2974 C.3       1 <0>         0.0000
      7 C7         -0.9404    5.4871   -0.7459 C.3       1 <0>         0.0000
      8 C8          0.2462    5.1624   -1.6598 C.3       1 <0>         0.0000
      9 C9          1.4347    4.5612   -0.9172 C.3       1 <0>         0.0000
     10 O1          1.3811    2.1523   -2.1382 O.2       1 <0>         0.0000
     11 O2          0.7914   -0.4472   -2.0822 O.3       1 <0>         0.0000
     12 O3          1.0674    3.3390   -0.2199 O.3       1 <0>         0.0000
     13 S1          0.1148    1.0395    1.5187 S.3       1 <0>         0.0000
     14 H1         -0.6143   -1.1858    2.1846 H         1 <0>         0.0000
     15 H2          1.1354   -1.1325    1.8599 H         1 <0>         0.0000
     16 H3          0.4595   -2.2087   -0.1358 H         1 <0>         0.0000
     17 H4         -2.1339   -0.5581   -0.0732 H         1 <0>         0.0000
     18 H5         -1.9881   -2.2912    0.2866 H         1 <0>         0.0000
     19 H6         -1.6871   -1.6995   -1.3589 H         1 <0>         0.0000
     20 H7         -1.3130    4.5870   -0.2478 H         1 <0>         0.0000
     21 H8         -0.6565    6.2048    0.0325 H         1 <0>         0.0000
     22 H9         -1.7656    5.9223   -1.3184 H         1 <0>         0.0000
     23 H10         0.6038    6.0754   -2.1532 H         1 <0>         0.0000
     24 H11        -0.0573    4.4754   -2.4561 H         1 <0>         0.0000
     25 H12         2.2607    4.3445   -1.5974 H         1 <0>         0.0000
     26 H13         1.7800    5.2231   -0.1195 H         1 <0>         0.0000
     27 H14         1.0954    0.4089   -2.4854 H         1 <0>         0.0000
@<TRIPOS>BOND
     1    1    2 2
     2    1    3 1
     3    1   13 1
     4    2    5 1
     5    2   11 1
     6    3   10 2
     7    3   12 1
     8    4    5 1
     9    4   13 1
    10    4   14 1
    11    4   15 1
    12    5    6 1
    13    5   16 1
    14    6   17 1
    15    6   18 1
    16    6   19 1
    17    7    8 1
    18    7   20 1
    19    7   21 1
    20    7   22 1
    21    8    9 1
    22    8   23 1
    23    8   24 1
    24    9   12 1
    25    9   25 1
    26    9   26 1
    27   11   27 1
