@<TRIPOS>MOLECULE
*****
   24    24     0     0     0
SMALL
NO_CHARGES

@<TRIPOS>ATOM
      1 C1          3.0761    1.1209   -4.3712 C.2       1 <0>         0.0000
      2 C2          3.3857    0.3426   -3.2927 C.2       1 <0>         0.0000
      3 C3          4.4332   -0.9299   -4.8187 C.2       1 <0>         0.0000
      4 C4          2.3355   -0.7388   -1.3699 C.2       1 <0>         0.0000
      5 C5          3.0465   -2.9399   -0.8378 C.3       1 <0>         0.0000
      6 C6          6.6521   -2.6219   -3.2532 C.3       1 <0>         0.0000
      7 C7          2.9227    0.5715   -1.8686 C.3       1 <0>         0.0000
      8 N1          4.1462   -0.7774   -3.5334 N.2       1 <0>         0.0000
      9 N2          5.1326   -1.8837   -5.4488 N.2       1 <0>         0.0000
     10 O1          1.1710   -1.0712   -1.5018 O.2       1 <0>         0.0000
     11 O2          6.4025   -4.0423   -5.4676 O.2       1 <0>         0.0000
     12 O3          4.4257   -3.8842   -3.9083 O.2       1 <0>         0.0000
     13 O4          3.2928   -1.5154   -0.8165 O.3       1 <0>         0.0000
     14 S1          3.7680    0.4152   -5.8244 S.3       1 <0>         0.0000
     15 S2          5.5603   -3.2068   -4.5858 S.o2      1 <0>         0.0000
     16 H1          2.4731    2.0194   -4.4014 H         1 <0>         0.0000
     17 H2          3.7561   -3.3725   -0.1299 H         1 <0>         0.0000
     18 H3          3.2508   -3.3062   -1.8484 H         1 <0>         0.0000
     19 H4          2.0199   -3.1600   -0.5367 H         1 <0>         0.0000
     20 H5          6.9728   -3.5066   -2.6983 H         1 <0>         0.0000
     21 H6          7.5085   -2.1248   -3.7131 H         1 <0>         0.0000
     22 H7          6.0815   -1.9393   -2.6232 H         1 <0>         0.0000
     23 H8          3.7701    0.8534   -1.2344 H         1 <0>         0.0000
     24 H9          2.1569    1.3487   -1.8343 H         1 <0>         0.0000
@<TRIPOS>BOND
     1    1    2 2
     2    1   14 1
     3    1   16 1
     4    2    7 1
     5    2    8 1
     6    3    8 2
     7    3    9 1
     8    3   14 1
     9    4    7 1
    10    4   10 2
    11    4   13 1
    12    5   13 1
    13    5   17 1
    14    5   18 1
    15    5   19 1
    16    6   15 1
    17    6   20 1
    18    6   21 1
    19    6   22 1
    20    7   23 1
    21    7   24 1
    22    9   15 1
    23   11   15 2
    24   12   15 2
