@<TRIPOS>MOLECULE
*****
   27    28     0     0     0
SMALL
NO_CHARGES

@<TRIPOS>ATOM
      1 C1          1.7065   -0.9445    0.9817 C.ar      1 <0>         0.0000
      2 C2          1.9386   -5.9271    5.2147 C.ar      1 <0>         0.0000
      3 C3          0.4967   -0.2418    0.9938 C.ar      1 <0>         0.0000
      4 C4          1.2412   -6.4254    4.1098 C.ar      1 <0>         0.0000
      5 C5          2.0911   -1.6331    2.1293 C.ar      1 <0>         0.0000
      6 C6          2.0907   -4.5524    5.3809 C.ar      1 <0>         0.0000
      7 C7         -0.2696   -0.2643    2.1604 C.ar      1 <0>         0.0000
      8 C8          0.7230   -5.4992    3.2052 C.ar      1 <0>         0.0000
      9 C9          1.2421   -1.5945    3.2402 C.ar      1 <0>         0.0000
     10 C10         1.5210   -3.7079    4.4090 C.ar      1 <0>         0.0000
     11 C11         1.9517   -1.5483    5.5891 C.2       1 <0>         0.0000
     12 C12         2.0196   -0.0411    5.4231 C.3       1 <0>         0.0000
     13 N1          0.0890   -0.9310    3.2680 N.ar      1 <0>         0.0000
     14 N2          0.8546   -4.1756    3.3466 N.ar      1 <0>         0.0000
     15 N3          1.6284   -2.2868    4.4444 N.am      1 <0>         0.0000
     16 O1          2.1866   -2.0756    6.6704 O.2       1 <0>         0.0000
     17 H1          2.3378   -0.9520    0.0971 H         1 <0>         0.0000
     18 H2          2.3679   -6.6039    5.9492 H         1 <0>         0.0000
     19 H3          0.1542    0.3108    0.1239 H         1 <0>         0.0000
     20 H4          1.1031   -7.4909    3.9527 H         1 <0>         0.0000
     21 H5          3.0165   -2.1983    2.1744 H         1 <0>         0.0000
     22 H6          2.6138   -4.1409    6.2305 H         1 <0>         0.0000
     23 H7         -1.2156    0.2719    2.2125 H         1 <0>         0.0000
     24 H8          0.1717   -5.8282    2.3255 H         1 <0>         0.0000
     25 H9          1.0112    0.3734    5.3493 H         1 <0>         0.0000
     26 H10         2.5639    0.2550    4.5224 H         1 <0>         0.0000
     27 H11         2.5148    0.3608    6.3072 H         1 <0>         0.0000
@<TRIPOS>BOND
     1    1    3 ar
     2    1    5 ar
     3    1   17 1
     4    2    4 ar
     5    2    6 ar
     6    2   18 1
     7    3    7 ar
     8    3   19 1
     9    4    8 ar
    10    4   20 1
    11    5    9 ar
    12    5   21 1
    13    6   10 ar
    14    6   22 1
    15    7   13 ar
    16    7   23 1
    17    8   14 ar
    18    8   24 1
    19    9   13 ar
    20    9   15 1
    21   10   14 ar
    22   10   15 1
    23   11   12 1
    24   11   15 am
    25   11   16 2
    26   12   25 1
    27   12   26 1
    28   12   27 1
