@<TRIPOS>MOLECULE
*****
   27    27     0     0     0
SMALL
NO_CHARGES

@<TRIPOS>ATOM
      1 C1          1.2050   -5.7947    3.0071 C.ar      1 <0>         0.0000
      2 C2          1.5200   -6.1146    4.3277 C.ar      1 <0>         0.0000
      3 C3          1.2601   -4.4684    2.5785 C.ar      1 <0>         0.0000
      4 C4          1.9449   -3.7818    4.7914 C.ar      1 <0>         0.0000
      5 C5          1.8899   -5.1082    5.2199 C.ar      1 <0>         0.0000
      6 C6          1.6299   -3.4620    3.4707 C.ar      1 <0>         0.0000
      7 C7         -0.5521    0.0942    1.0158 C.3       1 <0>         0.0000
      8 C8          1.6683    0.5960    2.0745 C.3       1 <0>         0.0000
      9 C9          0.7921   -1.7855    2.0067 C.3       1 <0>         0.0000
     10 C10         0.4298   -0.2995    2.1208 C.3       1 <0>         0.0000
     11 O1          2.1952   -5.4203    6.5089 O.3       1 <0>         0.0000
     12 O2         -0.2074   -0.0771    3.3815 O.3       1 <0>         0.0000
     13 O3          1.6860   -2.1600    3.0490 O.3       1 <0>         0.0000
     14 H1          0.9172   -6.5783    2.3124 H         1 <0>         0.0000
     15 H2          1.4750   -7.1494    4.6559 H         1 <0>         0.0000
     16 H3          1.0149   -4.2252    1.5483 H         1 <0>         0.0000
     17 H4          2.2328   -2.9975    5.4868 H         1 <0>         0.0000
     18 H5         -1.4437   -0.5426    1.0409 H         1 <0>         0.0000
     19 H6         -0.8677    1.1383    1.1102 H         1 <0>         0.0000
     20 H7         -0.1024   -0.0433    0.0258 H         1 <0>         0.0000
     21 H8          2.3840    0.3285    2.8598 H         1 <0>         0.0000
     22 H9          1.3973    1.6428    2.2552 H         1 <0>         0.0000
     23 H10         2.1737    0.5330    1.1054 H         1 <0>         0.0000
     24 H11        -0.1019   -2.4117    2.1000 H         1 <0>         0.0000
     25 H12         1.2768   -1.9987    1.0480 H         1 <0>         0.0000
     26 H13         2.1098   -6.3763    6.6528 H         1 <0>         0.0000
     27 H14         0.4348   -0.3338    4.0592 H         1 <0>         0.0000
@<TRIPOS>BOND
     1    1    2 ar
     2    1    3 ar
     3    1   14 1
     4    2    5 ar
     5    2   15 1
     6    3    6 ar
     7    3   16 1
     8    4    5 ar
     9    4    6 ar
    10    4   17 1
    11    5   11 1
    12    6   13 1
    13    7   10 1
    14    7   18 1
    15    7   19 1
    16    7   20 1
    17    8   10 1
    18    8   21 1
    19    8   22 1
    20    8   23 1
    21    9   10 1
    22    9   13 1
    23    9   24 1
    24    9   25 1
    25   10   12 1
    26   11   26 1
    27   12   27 1
