@<TRIPOS>MOLECULE
*****
   26    27     0     0     0
SMALL
NO_CHARGES

@<TRIPOS>ATOM
      1 C1         -6.4012   -4.6117    0.7420 C.2       1 <0>         0.0000
      2 C2         -5.3261   -3.7315    1.0576 C.2       1 <0>         0.0000
      3 C3          0.5881    0.8905    1.8661 C.ar      1 <0>         0.0000
      4 C4         -7.1617   -4.9173    1.8492 C.2       1 <0>         0.0000
      5 C5         -5.3061   -3.3977    2.3941 C.2       1 <0>         0.0000
      6 C6         -0.2066    0.1010    1.0601 C.ar      1 <0>         0.0000
      7 C7          0.2261    0.9401    3.1967 C.ar      1 <0>         0.0000
      8 C8         -1.5246   -0.4612    2.8247 C.ar      1 <0>         0.0000
      9 C9         -4.3655   -2.5209    3.1134 C.2       1 <0>         0.0000
     10 C10         0.1067   -0.0148   -0.3938 C.3       1 <0>         0.0000
     11 N1         -1.2746   -0.5912    1.5079 N.ar      1 <0>         0.0000
     12 N2         -0.8283    0.2746    3.7121 N.ar      1 <0>         0.0000
     13 N3         -3.3850   -1.9298    2.5117 N.2       1 <0>         0.0000
     14 N4         -2.6349   -1.1728    3.3291 N.pl3     1 <0>         0.0000
     15 O1          0.9644    1.7035    4.0618 O.3       1 <0>         0.0000
     16 S1         -6.5794   -4.1445    3.2619 S.3       1 <0>         0.0000
     17 H1         -6.6054   -5.0018   -0.2465 H         1 <0>         0.0000
     18 H2         -4.6067   -3.3644    0.3364 H         1 <0>         0.0000
     19 H3          1.4411    1.4372    1.4826 H         1 <0>         0.0000
     20 H4         -8.0308   -5.5583    1.8958 H         1 <0>         0.0000
     21 H5         -4.5407   -2.3935    4.1983 H         1 <0>         0.0000
     22 H6          0.7920   -0.8525   -0.5709 H         1 <0>         0.0000
     23 H7         -0.8033   -0.1783   -0.9853 H         1 <0>         0.0000
     24 H8          0.5727    0.9031   -0.7748 H         1 <0>         0.0000
     25 H9         -2.8406   -1.0896    4.3145 H         1 <0>         0.0000
     26 H10         0.5934    1.6402    4.9531 H         1 <0>         0.0000
@<TRIPOS>BOND
     1    1    2 1
     2    1    4 2
     3    1   17 1
     4    2    5 2
     5    2   18 1
     6    3    6 ar
     7    3    7 ar
     8    3   19 1
     9    4   16 1
    10    4   20 1
    11    5    9 1
    12    5   16 1
    13    6   10 1
    14    6   11 ar
    15    7   12 ar
    16    7   15 1
    17    8   11 ar
    18    8   12 ar
    19    8   14 1
    20    9   13 2
    21    9   21 1
    22   10   22 1
    23   10   23 1
    24   10   24 1
    25   13   14 1
    26   14   25 1
    27   15   26 1
