@<TRIPOS>MOLECULE
*****
   15    15     0     0     0
SMALL
NO_CHARGES

@<TRIPOS>ATOM
      1 C1          4.5710    1.3150    0.7720 C.2       1 <0>         0.0000
      2 C2          5.5590    0.7430    0.0310 C.2       1 <0>         0.0000
      3 C3          3.4050   -0.3280   -0.1390 C.2       1 <0>         0.0000
      4 C4          2.2770   -1.2040   -0.4740 C.2       1 <0>         0.0000
      5 C5         -0.1730   -1.6670   -0.2190 C.3       1 <0>         0.0000
      6 N1          3.3570    0.7190    0.6810 N.2       1 <0>         0.0000
      7 N2          1.0600   -0.9440    0.1100 N.am      1 <0>         0.0000
      8 O1          2.3400   -2.1580   -1.2480 O.2       1 <0>         0.0000
      9 S1          4.9690   -0.6060   -0.8290 S.3       1 <0>         0.0000
     10 H1          4.7220    2.1680    1.3840 H         1 <0>         0.0000
     11 H2          6.5710    1.0460   -0.0430 H         1 <0>         0.0000
     12 H3         -0.8980   -1.5050    0.5800 H         1 <0>         0.0000
     13 H4          0.0520   -2.7320   -0.3080 H         1 <0>         0.0000
     14 H5         -0.5560   -1.2850   -1.1670 H         1 <0>         0.0000
     15 H6          1.0210   -0.0990    0.7020 H         1 <0>         0.0000
@<TRIPOS>BOND
     1    1    2 2
     2    1    6 1
     3    1   10 1
     4    2    9 1
     5    2   11 1
     6    3    4 1
     7    3    6 2
     8    3    9 1
     9    4    7 am
    10    4    8 2
    11    5    7 1
    12    5   12 1
    13    5   13 1
    14    5   14 1
    15    7   15 1
