@<TRIPOS>MOLECULE
*****
   30    31     0     0     0
SMALL
NO_CHARGES

@<TRIPOS>ATOM
      1 C1         -3.1156   -3.5029    6.1227 C.ar      1 <0>         0.0000
      2 C2         -0.9475   -3.3613    7.1793 C.ar      1 <0>         0.0000
      3 C3         -3.7269   -3.4988    7.3765 C.ar      1 <0>         0.0000
      4 C4         -1.5588   -3.3571    8.4331 C.ar      1 <0>         0.0000
      5 C5         -1.7259   -3.4343    6.0241 C.ar      1 <0>         0.0000
      6 C6         -2.9485   -3.4258    8.5316 C.ar      1 <0>         0.0000
      7 C7          0.7170   -1.8320    0.8368 C.2       1 <0>         0.0000
      8 C8         -0.3377   -1.5319    2.9194 C.2       1 <0>         0.0000
      9 C9          0.6077   -0.3290    0.8466 C.3       1 <0>         0.0000
     10 C10        -1.0994   -4.4355    1.6424 C.3       1 <0>         0.0000
     11 C11         0.1519   -3.8357    2.1874 C.3       1 <0>         0.0000
     12 N1         -0.8665   -1.8565    4.0479 N.2       1 <0>         0.0000
     13 N2          0.1749   -2.3951    1.9850 N.am      1 <0>         0.0000
     14 O1          1.2339   -2.4414   -0.0954 O.2       1 <0>         0.0000
     15 O2          0.3798   -3.9810    4.6576 O.2       1 <0>         0.0000
     16 O3         -1.8643   -4.1044    3.5199 O.2       1 <0>         0.0000
     17 S1         -0.1907    0.1190    2.4014 S.3       1 <0>         0.0000
     18 S2         -0.9492   -3.4417    4.4322 S.o2      1 <0>         0.0000
     19 Br1        -3.7765   -3.4204   10.2304 Br        1 <0>         0.0000
     20 H1         -3.7315   -3.5599    5.2291 H         1 <0>         0.0000
     21 H2          0.1360   -3.3093    7.1138 H         1 <0>         0.0000
     22 H3         -4.8110   -3.5530    7.4363 H         1 <0>         0.0000
     23 H4         -0.9376   -3.3015    9.3233 H         1 <0>         0.0000
     24 H5          1.6062    0.1119    0.7932 H         1 <0>         0.0000
     25 H6         -0.0000    0.0000    0.0001 H         1 <0>         0.0000
     26 H7         -1.9817   -4.0178    2.1395 H         1 <0>         0.0000
     27 H8         -1.1773   -4.2628    0.5635 H         1 <0>         0.0000
     28 H9         -1.0968   -5.5188    1.8128 H         1 <0>         0.0000
     29 H10         1.0288   -4.2571    1.6867 H         1 <0>         0.0000
     30 H11         0.2358   -4.0226    3.2620 H         1 <0>         0.0000
@<TRIPOS>BOND
     1    1    3 ar
     2    1    5 ar
     3    1   20 1
     4    2    4 ar
     5    2    5 ar
     6    2   21 1
     7    3    6 ar
     8    3   22 1
     9    4    6 ar
    10    4   23 1
    11    5   18 1
    12    6   19 1
    13    7    9 1
    14    7   13 am
    15    7   14 2
    16    8   12 2
    17    8   13 1
    18    8   17 1
    19    9   17 1
    20    9   24 1
    21    9   25 1
    22   10   11 1
    23   10   26 1
    24   10   27 1
    25   10   28 1
    26   11   13 1
    27   11   29 1
    28   11   30 1
    29   12   18 1
    30   15   18 2
    31   16   18 2
