@<TRIPOS>MOLECULE
*****
   34    36     0     0     0
SMALL
NO_CHARGES

@<TRIPOS>ATOM
      1 C1         -0.7046   -2.2794   -0.2963 C.ar      1 <0>         0.0000
      2 C2          0.1306   -1.2414   -0.7799 C.ar      1 <0>         0.0000
      3 C3          3.2167   -4.9707    0.7492 C.ar      1 <0>         0.0000
      4 C4         -0.1392   -3.4362    0.1914 C.ar      1 <0>         0.0000
      5 C5          1.5031   -1.3798   -0.7662 C.ar      1 <0>         0.0000
      6 C6          1.8463   -4.8060    0.7239 C.ar      1 <0>         0.0000
      7 C7          4.0630   -3.9508    0.2733 C.ar      1 <0>         0.0000
      8 C8          1.2732   -3.6097    0.2192 C.ar      1 <0>         0.0000
      9 C9          2.1262   -2.5615   -0.2695 C.ar      1 <0>         0.0000
     10 C10         3.5513   -2.7589   -0.2316 C.ar      1 <0>         0.0000
     11 C11        10.5276   -0.8802   -1.2973 C.ar      1 <0>         0.0000
     12 C12         9.8314   -2.0043   -0.7814 C.ar      1 <0>         0.0000
     13 C13         7.8937   -0.9567   -1.1718 C.ar      1 <0>         0.0000
     14 C14         4.4724   -1.7260   -0.7157 C.2       1 <0>         0.0000
     15 C15        12.0257   -0.8253   -1.3736 C.3       1 <0>         0.0000
     16 N1          9.8164    0.1597   -1.7273 N.ar      1 <0>         0.0000
     17 N2          8.5167   -2.0578   -0.7121 N.ar      1 <0>         0.0000
     18 N3          8.4842    0.1426   -1.6733 N.ar      1 <0>         0.0000
     19 N4          5.7501   -1.9015   -0.6837 N.2       1 <0>         0.0000
     20 N5          6.5207   -0.8947   -1.1509 N.pl3     1 <0>         0.0000
     21 O1         10.5417   -3.0638   -0.3430 O.3       1 <0>         0.0000
     22 H1         -1.7844   -2.1583   -0.3125 H         1 <0>         0.0000
     23 H2         -0.3149   -0.3280   -1.1652 H         1 <0>         0.0000
     24 H3          3.6504   -5.8887    1.1368 H         1 <0>         0.0000
     25 H4         -0.7682   -4.2407    0.5656 H         1 <0>         0.0000
     26 H5          2.1037   -0.5609   -1.1458 H         1 <0>         0.0000
     27 H6          1.1881   -5.5903    1.0902 H         1 <0>         0.0000
     28 H7          5.1400   -4.0820    0.2941 H         1 <0>         0.0000
     29 H8          4.0567   -0.7933   -1.1090 H         1 <0>         0.0000
     30 H9         12.4191   -1.6381   -1.9934 H         1 <0>         0.0000
     31 H10        12.3276    0.1318   -1.8028 H         1 <0>         0.0000
     32 H11        12.4753   -0.9326   -0.3806 H         1 <0>         0.0000
     33 H12         6.1163   -0.0310   -1.5144 H         1 <0>         0.0000
     34 H13         9.8924   -3.7238   -0.0317 H         1 <0>         0.0000
@<TRIPOS>BOND
     1    1    2 ar
     2    1    4 ar
     3    1   22 1
     4    2    5 ar
     5    2   23 1
     6    3    6 ar
     7    3    7 ar
     8    3   24 1
     9    4    8 ar
    10    4   25 1
    11    5    9 ar
    12    5   26 1
    13    6    8 ar
    14    6   27 1
    15    7   10 ar
    16    7   28 1
    17    8    9 ar
    18    9   10 ar
    19   10   14 1
    20   11   12 ar
    21   11   15 1
    22   11   16 ar
    23   12   17 ar
    24   12   21 1
    25   13   17 ar
    26   13   18 ar
    27   13   20 1
    28   14   19 2
    29   14   29 1
    30   15   30 1
    31   15   31 1
    32   15   32 1
    33   16   18 ar
    34   19   20 1
    35   20   33 1
    36   21   34 1
