@<TRIPOS>MOLECULE
*****
   23    23     0     0     0
SMALL
NO_CHARGES

@<TRIPOS>ATOM
      1 C1          2.0642   -0.8436   -0.4397 C.ar      1 <0>         0.0000
      2 C2          0.9183   -0.3851    0.2037 C.ar      1 <0>         0.0000
      3 C3          3.0805   -1.4423    1.7194 C.ar      1 <0>         0.0000
      4 C4          3.1187   -1.3401    0.3259 C.ar      1 <0>         0.0000
      5 C5          1.9141   -0.9687    2.3532 C.ar      1 <0>         0.0000
      6 C6          0.8554   -0.4466    1.5930 C.ar      1 <0>         0.0000
      7 C7          5.2249   -1.0209    2.9904 C.3       1 <0>         0.0000
      8 C8          4.1803   -2.0669    2.5722 C.3       1 <0>         0.0000
      9 N1          4.8136   -3.1629    1.8248 N.3       1 <0>         0.0000
     10 N2          4.3260   -1.7090   -0.4480 N.pl3     1 <0>         0.0000
     11 O1          5.3470   -1.0496   -0.2457 O.3       1 <0>         0.0000
     12 O2          4.1950   -2.5798   -1.3087 O.2       1 <0>         0.0000
     13 O3          1.8608   -1.0451    3.7148 O.3       1 <0>         0.0000
     14 Cl1        -0.5844    0.1226    2.4316 Cl        1 <0>         0.0000
     15 H1          2.1480   -0.8108   -1.5204 H         1 <0>         0.0000
     16 H2          0.0842    0.0168   -0.3615 H         1 <0>         0.0000
     17 H3          5.7667   -0.6489    2.1190 H         1 <0>         0.0000
     18 H4          4.7385   -0.1805    3.4929 H         1 <0>         0.0000
     19 H5          5.9379   -1.4671    3.6933 H         1 <0>         0.0000
     20 H6          3.6941   -2.4221    3.4886 H         1 <0>         0.0000
     21 H7          4.2403   -4.0026    1.8673 H         1 <0>         0.0000
     22 H8          5.7195   -3.3884    2.2288 H         1 <0>         0.0000
     23 H9          0.9942   -0.7170    4.0157 H         1 <0>         0.0000
@<TRIPOS>BOND
     1    1    2 ar
     2    1    4 ar
     3    1   15 1
     4    2    6 ar
     5    2   16 1
     6    3    4 ar
     7    3    5 ar
     8    3    8 1
     9    4   10 1
    10    5    6 ar
    11    5   13 1
    12    6   14 1
    13    7    8 1
    14    7   17 1
    15    7   18 1
    16    7   19 1
    17    8    9 1
    18    8   20 1
    19    9   21 1
    20    9   22 1
    21   10   11 1
    22   10   12 2
    23   13   23 1
