@<TRIPOS>MOLECULE
*****
   20    20     0     0     0
SMALL
NO_CHARGES

@<TRIPOS>ATOM
      1 C1          2.4413   -0.5055    5.0718 C.2       1 <0>         0.0000
      2 C2          1.7240    0.7125    5.0022 C.2       1 <0>         0.0000
      3 C3          1.4651    0.9437    3.6499 C.2       1 <0>         0.0000
      4 C4          0.8323   -0.9244    0.9729 C.2       1 <0>         0.0000
      5 C5          0.8475    2.0966    2.9180 C.3       1 <0>         0.0000
      6 C6          0.0073   -1.8274    1.8583 C.3       1 <0>         0.0000
      7 C7          2.1184   -0.3320    1.5708 C.3       1 <0>         0.0000
      8 N1          2.6540   -0.9923    3.8487 N.2       1 <0>         0.0000
      9 N2          2.0636   -0.1028    3.0015 N.pl3     1 <0>         0.0000
     10 O1          0.5442   -0.6697   -0.1837 O.2       1 <0>         0.0000
     11 I1          0.6531    1.6603    6.6504 I         1 <0>         0.0000
     12 H1          2.8073   -1.0299    5.9445 H         1 <0>         0.0000
     13 H2          1.6135    2.8322    2.6462 H         1 <0>         0.0000
     14 H3          0.3466    1.7811    1.9988 H         1 <0>         0.0000
     15 H4          0.1138    2.5957    3.5526 H         1 <0>         0.0000
     16 H5         -0.4509   -1.2385    2.6611 H         1 <0>         0.0000
     17 H6         -0.7745   -2.3080    1.2691 H         1 <0>         0.0000
     18 H7          0.6433   -2.5712    2.3495 H         1 <0>         0.0000
     19 H8          2.3608    0.5883    1.0363 H         1 <0>         0.0000
     20 H9          2.9260   -1.0494    1.3991 H         1 <0>         0.0000
@<TRIPOS>BOND
     1    1    2 1
     2    1    8 2
     3    1   12 1
     4    2    3 2
     5    2   11 1
     6    3    5 1
     7    3    9 1
     8    4    6 1
     9    4    7 1
    10    4   10 2
    11    5   13 1
    12    5   14 1
    13    5   15 1
    14    6   16 1
    15    6   17 1
    16    6   18 1
    17    7    9 1
    18    7   19 1
    19    7   20 1
    20    8    9 1
