@<TRIPOS>MOLECULE
*****
   35    37     0     0     0
SMALL
NO_CHARGES

@<TRIPOS>ATOM
      1 C1          3.1826    1.6494   -2.8214 C.ar      1 <0>         0.0000
      2 C2          4.1202    1.4321   -0.5916 C.ar      1 <0>         0.0000
      3 C3          5.4827    2.3158   -2.3966 C.ar      1 <0>         0.0000
      4 C4          3.0366    1.2809   -1.4759 C.ar      1 <0>         0.0000
      5 C5          4.4040    2.1621   -3.2638 C.ar      1 <0>         0.0000
      6 C6          5.3353    1.9464   -1.0503 C.ar      1 <0>         0.0000
      7 C7          0.2829   -0.0791    0.3687 C.2       1 <0>         0.0000
      8 C8         -0.3250    0.0233   -0.8616 C.2       1 <0>         0.0000
      9 C9          1.7853    0.7384   -0.9484 C.2       1 <0>         0.0000
     10 C10        -0.4324   -0.6072    1.5741 C.3       1 <0>         0.0000
     11 C11        -1.7323   -0.3719   -1.1669 C.3       1 <0>         0.0000
     12 C12        -2.2131   -1.2487    0.0070 C.3       1 <0>         0.0000
     13 C13         6.3412    1.7703    1.1126 C.3       1 <0>         0.0000
     14 C14         4.5858    2.5645   -4.7040 C.3       1 <0>         0.0000
     15 N1          1.5839    0.3584    0.3108 N.2       1 <0>         0.0000
     16 N2          0.6407    0.5503   -1.6979 N.pl3     1 <0>         0.0000
     17 N3         -1.8795   -0.6056    1.2859 N.3       1 <0>         0.0000
     18 O1          6.4374    2.1280   -0.2659 O.3       1 <0>         0.0000
     19 F1          3.4655    2.3693   -5.4441 F         1 <0>         0.0000
     20 F2          4.9152    3.8772   -4.8256 F         1 <0>         0.0000
     21 F3          5.5823    1.8622   -5.3043 F         1 <0>         0.0000
     22 H1          2.3692    1.5452   -3.5303 H         1 <0>         0.0000
     23 H2          3.9701    1.1374    0.4394 H         1 <0>         0.0000
     24 H3          6.4338    2.7140   -2.7355 H         1 <0>         0.0000
     25 H4         -0.0466   -1.6133    1.8211 H         1 <0>         0.0000
     26 H5         -0.2435    0.0365    2.4396 H         1 <0>         0.0000
     27 H6         -2.3774    0.5112   -1.2570 H         1 <0>         0.0000
     28 H7         -1.8069   -0.9361   -2.1049 H         1 <0>         0.0000
     29 H8         -3.2994   -1.3684   -0.0434 H         1 <0>         0.0000
     30 H9         -1.7598   -2.2515   -0.0935 H         1 <0>         0.0000
     31 H10         7.3173    1.9935    1.5444 H         1 <0>         0.0000
     32 H11         6.1236    0.7025    1.2319 H         1 <0>         0.0000
     33 H12         5.5712    2.3602    1.6235 H         1 <0>         0.0000
     34 H13         0.5225    0.7601   -2.6797 H         1 <0>         0.0000
     35 H14        -2.3701   -1.0800    2.0394 H         1 <0>         0.0000
@<TRIPOS>BOND
     1    1    4 ar
     2    1    5 ar
     3    1   22 1
     4    2    4 ar
     5    2    6 ar
     6    2   23 1
     7    3    5 ar
     8    3    6 ar
     9    3   24 1
    10    4    9 1
    11    5   14 1
    12    6   18 1
    13    7    8 2
    14    7   10 1
    15    7   15 1
    16    8   11 1
    17    8   16 1
    18    9   15 2
    19    9   16 1
    20   10   17 1
    21   10   25 1
    22   10   26 1
    23   11   12 1
    24   11   27 1
    25   11   28 1
    26   12   17 1
    27   12   29 1
    28   12   30 1
    29   13   18 1
    30   13   31 1
    31   13   32 1
    32   13   33 1
    33   14   19 1
    34   14   20 1
    35   14   21 1
    36   16   34 1
    37   17   35 1
