@<TRIPOS>MOLECULE
*****
   21    22     0     0     0
SMALL
NO_CHARGES

@<TRIPOS>ATOM
      1 C1          0.6209   -1.1214   -1.5888 C.ar      1 <0>         0.0000
      2 C2          0.1194   -1.0503   -0.2911 C.ar      1 <0>         0.0000
      3 C3          0.8487   -2.3617   -2.2172 C.ar      1 <0>         0.0000
      4 C4         -0.1851   -2.2094    0.4575 C.ar      1 <0>         0.0000
      5 C5          0.5471   -3.4845   -1.4748 C.ar      1 <0>         0.0000
      6 C6          0.0458   -3.4250   -0.1785 C.ar      1 <0>         0.0000
      7 C7         -0.7180   -2.0479    1.8391 C.2       1 <0>         0.0000
      8 C8          0.2452   -5.5670   -0.7558 C.3       1 <0>         0.0000
      9 C9         -1.4849   -3.1564    3.7757 C.3       1 <0>         0.0000
     10 O1         -0.9065   -0.9670    2.3691 O.2       1 <0>         0.0000
     11 O2          0.6739   -4.8148   -1.8455 O.3       1 <0>         0.0000
     12 O3         -0.1469   -4.7156    0.2771 O.3       1 <0>         0.0000
     13 O4         -0.9658   -3.2323    2.4311 O.3       1 <0>         0.0000
     14 F1          1.2345   -6.3817   -0.3329 F         1 <0>         0.0000
     15 F2         -0.7834   -6.3634   -1.1140 F         1 <0>         0.0000
     16 H1          0.8417   -0.2061   -2.1291 H         1 <0>         0.0000
     17 H2         -0.0532   -0.0915    0.1862 H         1 <0>         0.0000
     18 H3          1.2388   -2.4368   -3.2270 H         1 <0>         0.0000
     19 H4         -1.6180   -4.1906    4.0907 H         1 <0>         0.0000
     20 H5         -2.4377   -2.6224    3.7839 H         1 <0>         0.0000
     21 H6         -0.7758   -2.6403    4.4268 H         1 <0>         0.0000
@<TRIPOS>BOND
     1    1    2 ar
     2    1    3 ar
     3    1   16 1
     4    2    4 ar
     5    2   17 1
     6    3    5 ar
     7    3   18 1
     8    4    6 ar
     9    4    7 1
    10    5    6 ar
    11    5   11 1
    12    6   12 1
    13    7   10 2
    14    7   13 1
    15    8   11 1
    16    8   12 1
    17    8   14 1
    18    8   15 1
    19    9   13 1
    20    9   19 1
    21    9   20 1
    22    9   21 1
