@<TRIPOS>MOLECULE
*****
   36    38     0     0     0
SMALL
NO_CHARGES

@<TRIPOS>ATOM
      1 C1         -2.9421   -1.3395    6.5119 C.ar      1 <0>         0.0000
      2 C2         -2.1017   -0.2340    6.6815 C.ar      1 <0>         0.0000
      3 C3         -2.5618   -2.3811    5.6575 C.ar      1 <0>         0.0000
      4 C4          2.0609   -0.4880    0.5993 C.ar      1 <0>         0.0000
      5 C5          0.6703   -0.3596    0.8000 C.ar      1 <0>         0.0000
      6 C6          2.9138   -0.8132    1.6501 C.ar      1 <0>         0.0000
      7 C7         -0.8862   -0.1647    5.9946 C.ar      1 <0>         0.0000
      8 C8         -1.3434   -2.3208    4.9775 C.ar      1 <0>         0.0000
      9 C9          0.0611   -0.5541    2.0453 C.ar      1 <0>         0.0000
     10 C10         2.3384   -1.0184    2.9115 C.ar      1 <0>         0.0000
     11 C11         0.9371   -0.8995    3.0901 C.ar      1 <0>         0.0000
     12 C12        -0.5095   -1.2088    5.1441 C.ar      1 <0>         0.0000
     13 C13         1.9922   -1.4090    5.0056 C.2       1 <0>         0.0000
     14 C14        -1.4316   -0.3881    2.2135 C.3       1 <0>         0.0000
     15 C15         3.6545   -1.7949    6.8307 C.3       1 <0>         0.0000
     16 C16         2.1710   -1.7460    6.4659 C.3       1 <0>         0.0000
     17 N1          2.9547   -1.3325    4.1174 N.2       1 <0>         0.0000
     18 N2          0.7367   -1.1496    4.4531 N.pl3     1 <0>         0.0000
     19 N3          1.5543   -3.0623    6.7509 N.3       1 <0>         0.0000
     20 H1         -3.8890   -1.3895    7.0426 H         1 <0>         0.0000
     21 H2         -2.3952    0.5781    7.3411 H         1 <0>         0.0000
     22 H3         -3.2104   -3.2428    5.5253 H         1 <0>         0.0000
     23 H4          2.4674   -0.3208   -0.3947 H         1 <0>         0.0000
     24 H5          0.0407   -0.0910   -0.0453 H         1 <0>         0.0000
     25 H6          3.9875   -0.9043    1.5144 H         1 <0>         0.0000
     26 H7         -0.2313    0.6952    6.1023 H         1 <0>         0.0000
     27 H8         -1.0265   -3.1252    4.3201 H         1 <0>         0.0000
     28 H9         -1.9289   -1.3417    2.4201 H         1 <0>         0.0000
     29 H10        -1.6782    0.2834    3.0416 H         1 <0>         0.0000
     30 H11        -1.8701    0.0257    1.3016 H         1 <0>         0.0000
     31 H12         4.1554   -2.5838    6.2661 H         1 <0>         0.0000
     32 H13         4.1445   -0.8460    6.6022 H         1 <0>         0.0000
     33 H14         3.7644   -1.9966    7.9023 H         1 <0>         0.0000
     34 H15         1.6979   -0.9402    7.0523 H         1 <0>         0.0000
     35 H16         0.5392   -2.9899    6.7063 H         1 <0>         0.0000
     36 H17         1.7792   -3.3198    7.7114 H         1 <0>         0.0000
@<TRIPOS>BOND
     1    1    3 ar
     2    1    2 ar
     3    1   20 1
     4    2    7 ar
     5    2   21 1
     6    3    8 ar
     7    3   22 1
     8    4    5 ar
     9    4    6 ar
    10    4   23 1
    11    5    9 ar
    12    5   24 1
    13    6   10 ar
    14    6   25 1
    15    7   12 ar
    16    7   26 1
    17    8   12 ar
    18    8   27 1
    19    9   11 ar
    20    9   14 1
    21   10   11 ar
    22   10   17 1
    23   11   18 1
    24   12   18 1
    25   13   16 1
    26   13   17 2
    27   13   18 1
    28   14   28 1
    29   14   29 1
    30   14   30 1
    31   15   16 1
    32   15   31 1
    33   15   32 1
    34   15   33 1
    35   16   19 1
    36   16   34 1
    37   19   35 1
    38   19   36 1
