@<TRIPOS>MOLECULE
*****
   29    30     0     0     0
SMALL
NO_CHARGES

@<TRIPOS>ATOM
      1 C1          0.3688    2.3938    1.4347 C.ar      1 <0>         0.0000
      2 C2         -2.2770    3.1176    1.8542 C.ar      1 <0>         0.0000
      3 C3         -0.6285    1.4643    1.0969 C.ar      1 <0>         0.0000
      4 C4          0.0852    3.6464    1.9704 C.ar      1 <0>         0.0000
      5 C5         -1.2596    4.0185    2.1897 C.ar      1 <0>         0.0000
      6 C6         -1.9422    1.8744    1.3229 C.ar      1 <0>         0.0000
      7 C7         -0.8634   -1.1925    1.0969 C.3       1 <0>         0.0000
      8 C8         -1.0453   -1.6394   -0.3749 C.3       1 <0>         0.0000
      9 C9         -0.2673    0.1239    0.5157 C.3       1 <0>         0.0000
     10 C10         1.2749    5.6432    1.5050 C.3       1 <0>         0.0000
     11 C11        -2.8198    5.6346    3.0048 C.3       1 <0>         0.0000
     12 N1         -0.8872   -0.2197   -0.7983 N.3       1 <0>         0.0000
     13 O1          1.1261    4.4767    2.3269 O.3       1 <0>         0.0000
     14 O2         -1.4739    5.2543    2.7307 O.3       1 <0>         0.0000
     15 F1         -2.9739    1.0365    1.0376 F         1 <0>         0.0000
     16 H1          1.4155    2.1402    1.2858 H         1 <0>         0.0000
     17 H2         -3.3254    3.3469    2.0025 H         1 <0>         0.0000
     18 H3         -1.8115   -1.0344    1.6100 H         1 <0>         0.0000
     19 H4         -0.1959   -1.7862    1.7246 H         1 <0>         0.0000
     20 H5         -0.2356   -2.3034   -0.7106 H         1 <0>         0.0000
     21 H6         -2.0079   -2.0807   -0.6527 H         1 <0>         0.0000
     22 H7          0.8302    0.0503    0.4936 H         1 <0>         0.0000
     23 H8          2.1540    6.1700    1.8821 H         1 <0>         0.0000
     24 H9          0.3979    6.2936    1.5763 H         1 <0>         0.0000
     25 H10         1.4404    5.3573    0.4583 H         1 <0>         0.0000
     26 H11        -2.7634    6.6309    3.4450 H         1 <0>         0.0000
     27 H12        -3.2887    4.9471    3.7188 H         1 <0>         0.0000
     28 H13        -3.4187    5.6751    2.0867 H         1 <0>         0.0000
     29 H14        -0.2771   -0.0691   -1.5999 H         1 <0>         0.0000
@<TRIPOS>BOND
     1    1    3 ar
     2    1    4 ar
     3    1   16 1
     4    2    5 ar
     5    2    6 ar
     6    2   17 1
     7    3    6 ar
     8    3    9 1
     9    4    5 ar
    10    4   13 1
    11    5   14 1
    12    6   15 1
    13    7    8 1
    14    7    9 1
    15    7   18 1
    16    7   19 1
    17    8   12 1
    18    8   20 1
    19    8   21 1
    20    9   12 1
    21    9   22 1
    22   10   13 1
    23   10   23 1
    24   10   24 1
    25   10   25 1
    26   11   14 1
    27   11   26 1
    28   11   27 1
    29   11   28 1
    30   12   29 1
