@<TRIPOS>MOLECULE
*****
   22    22     0     0     0
SMALL
NO_CHARGES

@<TRIPOS>ATOM
      1 C1          1.7906   -1.0984   -0.5671 C.ar      1 <0>         0.0000
      2 C2          1.1317   -0.8695    2.1427 C.ar      1 <0>         0.0000
      3 C3          0.6204   -0.4334   -0.2063 C.ar      1 <0>         0.0000
      4 C4          2.6386   -1.6316    0.4134 C.ar      1 <0>         0.0000
      5 C5          0.3006   -0.3274    1.1679 C.ar      1 <0>         0.0000
      6 C6          2.3059   -1.5177    1.7674 C.ar      1 <0>         0.0000
      7 C7         -0.1875    0.2059   -2.4874 C.2       1 <0>         0.0000
      8 C8         -1.3604    0.8838   -3.1742 C.3       1 <0>         0.0000
      9 N1         -0.2855    0.1473   -1.1094 N.am      1 <0>         0.0000
     10 N2          3.8637   -2.3013   -0.0341 N.pl3     1 <0>         0.0000
     11 O1          3.9232   -2.6370   -1.2224 O.3       1 <0>         0.0000
     12 O2          0.7539   -0.2624   -3.1166 O.2       1 <0>         0.0000
     13 O3          4.7623   -2.4790    0.7940 O.2       1 <0>         0.0000
     14 O4         -0.8649    0.3293    1.4673 O.3       1 <0>         0.0000
     15 F1          3.0572   -2.0391    2.7468 F         1 <0>         0.0000
     16 H1          2.0570   -1.2016   -1.6093 H         1 <0>         0.0000
     17 H2          0.8874   -0.8049    3.1996 H         1 <0>         0.0000
     18 H3         -0.9713    1.5653   -3.9334 H         1 <0>         0.0000
     19 H4         -2.0140    1.4355   -2.4927 H         1 <0>         0.0000
     20 H5         -1.9529    0.1201   -3.6873 H         1 <0>         0.0000
     21 H6         -1.0961    0.5743   -0.6791 H         1 <0>         0.0000
     22 H7         -0.9973    0.3555    2.4285 H         1 <0>         0.0000
@<TRIPOS>BOND
     1    1    3 ar
     2    1    4 ar
     3    1   16 1
     4    2    5 ar
     5    2    6 ar
     6    2   17 1
     7    3    5 ar
     8    3    9 1
     9    4    6 ar
    10    4   10 1
    11    5   14 1
    12    6   15 1
    13    7    8 1
    14    7    9 am
    15    7   12 2
    16    8   18 1
    17    8   19 1
    18    8   20 1
    19    9   21 1
    20   10   11 1
    21   10   13 2
    22   14   22 1
