@<TRIPOS>MOLECULE
*****
   25    26     0     0     0
SMALL
NO_CHARGES

@<TRIPOS>ATOM
      1 C1          3.2790   -5.8344    3.4326 C.ar      1 <0>         0.0000
      2 C2          3.2379   -6.5556    2.2387 C.ar      1 <0>         0.0000
      3 C3          3.6994   -4.5004    3.4490 C.ar      1 <0>         0.0000
      4 C4          3.6245   -5.9361    1.0462 C.ar      1 <0>         0.0000
      5 C5          6.4791   -2.7231    6.0526 C.2       1 <0>         0.0000
      6 C6          6.9277   -2.1277    3.9607 C.2       1 <0>         0.0000
      7 C7          7.5475   -2.5358    5.1316 C.2       1 <0>         0.0000
      8 C8          4.0787   -3.8714    2.2560 C.ar      1 <0>         0.0000
      9 C9          4.0423   -4.6071    1.0568 C.ar      1 <0>         0.0000
     10 C10         4.5199   -1.7473    3.3116 C.3       1 <0>         0.0000
     11 N1          5.2945   -2.4644    5.4936 N.2       1 <0>         0.0000
     12 N2          5.5806   -2.0951    4.2255 N.pl3     1 <0>         0.0000
     13 N3          8.9268   -2.6548    5.4004 N.pl3     1 <0>         0.0000
     14 O1          4.4892   -2.5656    2.1523 O.3       1 <0>         0.0000
     15 Cl1         4.5250   -3.8419   -0.4444 Cl        1 <0>         0.0000
     16 H1          2.9906   -6.3071    4.3673 H         1 <0>         0.0000
     17 H2          2.9133   -7.5920    2.2279 H         1 <0>         0.0000
     18 H3          3.7543   -3.9713    4.3930 H         1 <0>         0.0000
     19 H4          3.6032   -6.4761    0.1046 H         1 <0>         0.0000
     20 H5          6.5320   -3.0335    7.0895 H         1 <0>         0.0000
     21 H6          7.3203   -1.8801    2.9839 H         1 <0>         0.0000
     22 H7          3.5865   -1.7894    3.8783 H         1 <0>         0.0000
     23 H8          4.6753   -0.7415    2.9167 H         1 <0>         0.0000
     24 H9          9.4729   -2.8049    4.5582 H         1 <0>         0.0000
     25 H10         9.1230   -3.4035    6.0573 H         1 <0>         0.0000
@<TRIPOS>BOND
     1    1    2 ar
     2    1    3 ar
     3    1   16 1
     4    2    4 ar
     5    2   17 1
     6    3    8 ar
     7    3   18 1
     8    4    9 ar
     9    4   19 1
    10    5    7 1
    11    5   11 2
    12    5   20 1
    13    6    7 2
    14    6   12 1
    15    6   21 1
    16    7   13 1
    17    8    9 ar
    18    8   14 1
    19    9   15 1
    20   10   12 1
    21   10   14 1
    22   10   22 1
    23   10   23 1
    24   11   12 1
    25   13   24 1
    26   13   25 1
