@<TRIPOS>MOLECULE
*****
   27    28     0     0     0
SMALL
NO_CHARGES

@<TRIPOS>ATOM
      1 C1         -2.5363   -1.9856    5.8824 C.ar      1 <0>         0.0000
      2 C2         -2.9065   -1.2255    4.7707 C.ar      1 <0>         0.0000
      3 C3         -1.2666   -1.8517    6.4535 C.ar      1 <0>         0.0000
      4 C4         -0.7074   -0.1840    4.7563 C.ar      1 <0>         0.0000
      5 C5         -1.9848   -0.3428    4.1890 C.ar      1 <0>         0.0000
      6 C6         -0.3866   -0.9388    5.8755 C.ar      1 <0>         0.0000
      7 C7         -0.6867   -1.5073    1.7942 C.3       1 <0>         0.0000
      8 C8         -0.2459    0.4044    0.3652 C.3       1 <0>         0.0000
      9 C9          0.7390   -1.9824    1.5186 C.3       1 <0>         0.0000
     10 C10         1.1686   -0.1239    0.1513 C.3       1 <0>         0.0000
     11 N1         -2.4311    0.5162    3.1445 N.2       1 <0>         0.0000
     12 N2         -1.8274    0.7077    2.0604 N.2       1 <0>         0.0000
     13 N3         -0.7246   -0.0354    1.6839 N.pl3     1 <0>         0.0000
     14 O1          1.2123   -1.5461    0.2483 O.3       1 <0>         0.0000
     15 F1          0.8479   -0.7869    6.4241 F         1 <0>         0.0000
     16 H1         -3.2477   -2.6812    6.3189 H         1 <0>         0.0000
     17 H2         -3.9003   -1.3075    4.3414 H         1 <0>         0.0000
     18 H3         -0.9625   -2.4210    7.3259 H         1 <0>         0.0000
     19 H4          0.0184    0.5010    4.3313 H         1 <0>         0.0000
     20 H5         -1.3777   -1.9402    1.0554 H         1 <0>         0.0000
     21 H6         -0.9874   -1.8406    2.7832 H         1 <0>         0.0000
     22 H7         -0.2554    1.4957    0.3440 H         1 <0>         0.0000
     23 H8         -0.9078    0.0314   -0.4303 H         1 <0>         0.0000
     24 H9          1.4038   -1.6192    2.3169 H         1 <0>         0.0000
     25 H10         0.7711   -3.0745    1.5034 H         1 <0>         0.0000
     26 H11         1.5220    0.1302   -0.8509 H         1 <0>         0.0000
     27 H12         1.8487    0.3241    0.8920 H         1 <0>         0.0000
@<TRIPOS>BOND
     1    1    2 ar
     2    1    3 ar
     3    1   16 1
     4    2    5 ar
     5    2   17 1
     6    3    6 ar
     7    3   18 1
     8    4    5 ar
     9    4    6 ar
    10    4   19 1
    11    5   11 1
    12    6   15 1
    13    7    9 1
    14    7   13 1
    15    7   20 1
    16    7   21 1
    17    8   10 1
    18    8   13 1
    19    8   22 1
    20    8   23 1
    21    9   14 1
    22    9   24 1
    23    9   25 1
    24   10   14 1
    25   10   26 1
    26   10   27 1
    27   11   12 2
    28   12   13 1
