@<TRIPOS>MOLECULE
*****
   25    26     0     0     0
SMALL
NO_CHARGES

@<TRIPOS>ATOM
      1 C1          2.2893    0.3951    1.0227 C.ar      1 <0>         0.0000
      2 C2          1.8034   -0.3907   -0.0218 C.ar      1 <0>         0.0000
      3 C3          3.2217   -0.1234    1.9283 C.ar      1 <0>         0.0000
      4 C4          2.2545   -1.7081   -0.1608 C.ar      1 <0>         0.0000
      5 C5          7.7644   -2.8815    5.2027 C.2       1 <0>         0.0000
      6 C6          5.5732   -3.2274    5.2921 C.2       1 <0>         0.0000
      7 C7          6.7727   -3.7490    5.7450 C.2       1 <0>         0.0000
      8 C8          3.6795   -1.4430    1.7974 C.ar      1 <0>         0.0000
      9 C9          3.1801   -2.2292    0.7392 C.ar      1 <0>         0.0000
     10 C10         5.0017   -1.3016    3.7845 C.3       1 <0>         0.0000
     11 N1          7.2246   -1.9047    4.4748 N.2       1 <0>         0.0000
     12 N2          5.8907   -2.1187    4.5411 N.pl3     1 <0>         0.0000
     13 N3          6.9972   -4.9215    6.4954 N.pl3     1 <0>         0.0000
     14 O1          4.5891   -2.0325    2.6245 O.3       1 <0>         0.0000
     15 Cl1         3.7319   -3.8797    0.5605 Cl        1 <0>         0.0000
     16 H1          1.9492    1.4202    1.1406 H         1 <0>         0.0000
     17 H2          1.0810    0.0099   -0.7267 H         1 <0>         0.0000
     18 H3          3.5922    0.5104    2.7259 H         1 <0>         0.0000
     19 H4          1.8899   -2.3382   -0.9662 H         1 <0>         0.0000
     20 H5          8.8402   -2.9358    5.3222 H         1 <0>         0.0000
     21 H6          4.5511   -3.5602    5.4112 H         1 <0>         0.0000
     22 H7          4.1185   -1.0467    4.3826 H         1 <0>         0.0000
     23 H8          5.5510   -0.3989    3.5052 H         1 <0>         0.0000
     24 H9          6.1873   -5.1950    7.0420 H         1 <0>         0.0000
     25 H10         7.7988   -4.8335    7.1117 H         1 <0>         0.0000
@<TRIPOS>BOND
     1    1    2 ar
     2    1    3 ar
     3    1   16 1
     4    2    4 ar
     5    2   17 1
     6    3    8 ar
     7    3   18 1
     8    4    9 ar
     9    4   19 1
    10    5    7 1
    11    5   11 2
    12    5   20 1
    13    6    7 2
    14    6   12 1
    15    6   21 1
    16    7   13 1
    17    8    9 ar
    18    8   14 1
    19    9   15 1
    20   10   12 1
    21   10   14 1
    22   10   22 1
    23   10   23 1
    24   11   12 1
    25   13   24 1
    26   13   25 1
