@<TRIPOS>MOLECULE
*****
   23    24     0     0     0
SMALL
NO_CHARGES

@<TRIPOS>ATOM
      1 C1         -1.0079   -2.3759   -1.8499 C.ar      1 <0>         0.0000
      2 C2         -2.0401   -3.2971   -1.6666 C.ar      1 <0>         0.0000
      3 C3         -0.8832   -4.1598    0.2882 C.ar      1 <0>         0.0000
      4 C4          0.1166   -2.3320   -1.0140 C.ar      1 <0>         0.0000
      5 C5          0.1447   -3.2519    0.0445 C.ar      1 <0>         0.0000
      6 C6         -1.9585   -4.1758   -0.5918 C.ar      1 <0>         0.0000
      7 C7          3.1187   -0.4165   -0.2864 C.2       1 <0>         0.0000
      8 C8          2.4531   -1.8087   -1.9944 C.3       1 <0>         0.0000
      9 C9          1.1773   -1.2823   -1.2798 C.3       1 <0>         0.0000
     10 N1          1.7725   -0.7058   -0.0856 N.am      1 <0>         0.0000
     11 N2          1.2870   -3.3285    0.9823 N.pl3     1 <0>         0.0000
     12 O1          2.3978   -3.5623    0.5021 O.3       1 <0>         0.0000
     13 O2          3.8310    0.2736    0.4012 O.2       1 <0>         0.0000
     14 O3          1.0344   -3.2032    2.1802 O.2       1 <0>         0.0000
     15 O4          3.5359   -1.0523   -1.4262 O.3       1 <0>         0.0000
     16 F1         -2.9549   -5.0629   -0.3845 F         1 <0>         0.0000
     17 H1         -1.0810   -1.6598   -2.6645 H         1 <0>         0.0000
     18 H2         -2.9012   -3.3269   -2.3265 H         1 <0>         0.0000
     19 H3         -0.8451   -4.8375    1.1342 H         1 <0>         0.0000
     20 H4          2.6186   -2.8672   -1.7939 H         1 <0>         0.0000
     21 H5          2.4285   -1.6242   -3.0696 H         1 <0>         0.0000
     22 H6          0.7123   -0.5032   -1.8986 H         1 <0>         0.0000
     23 H7          1.2575   -0.0434    0.4811 H         1 <0>         0.0000
@<TRIPOS>BOND
     1    1    2 ar
     2    1    4 ar
     3    1   17 1
     4    2    6 ar
     5    2   18 1
     6    3    5 ar
     7    3    6 ar
     8    3   19 1
     9    4    5 ar
    10    4    9 1
    11    5   11 1
    12    6   16 1
    13    7   10 am
    14    7   13 2
    15    7   15 1
    16    8    9 1
    17    8   15 1
    18    8   20 1
    19    8   21 1
    20    9   10 1
    21    9   22 1
    22   10   23 1
    23   11   12 1
    24   11   14 2
