@<TRIPOS>MOLECULE
*****
   25    26     0     0     0
SMALL
NO_CHARGES

@<TRIPOS>ATOM
      1 C1         -4.9317    0.2669   -3.0007 C.ar      1 <0>         0.0000
      2 C2         -3.5964    0.6324   -2.7923 C.ar      1 <0>         0.0000
      3 C3         -5.3451   -1.0600   -2.8857 C.ar      1 <0>         0.0000
      4 C4         -2.6444   -0.3420   -2.4609 C.ar      1 <0>         0.0000
      5 C5         -4.3913   -2.0210   -2.5569 C.ar      1 <0>         0.0000
      6 C6         -3.0610   -1.6796   -2.3461 C.ar      1 <0>         0.0000
      7 C7          1.9473    2.9455   -1.2570 C.3       1 <0>         0.0000
      8 C8          1.2823    2.2543   -0.0720 C.3       1 <0>         0.0000
      9 C9          0.6366    1.2065   -2.0099 C.3       1 <0>         0.0000
     10 C10        -0.8538    1.2274   -2.3262 C.3       1 <0>         0.0000
     11 O1          1.1580    2.4863   -2.3626 O.3       1 <0>         0.0000
     12 O2          0.9053    0.9908   -0.6312 O.3       1 <0>         0.0000
     13 O3         -1.3229   -0.1155   -2.2357 O.3       1 <0>         0.0000
     14 F1         -4.7501   -3.3176   -2.4366 F         1 <0>         0.0000
     15 F2         -2.1657   -2.6342   -2.0317 F         1 <0>         0.0000
     16 H1         -5.6572    1.0331   -3.2572 H         1 <0>         0.0000
     17 H2         -3.3044    1.6711   -2.8905 H         1 <0>         0.0000
     18 H3         -6.3749   -1.3628   -3.0434 H         1 <0>         0.0000
     19 H4          1.8925    4.0359   -1.2293 H         1 <0>         0.0000
     20 H5          2.9912    2.6274   -1.3748 H         1 <0>         0.0000
     21 H6          1.9501    2.0662    0.7711 H         1 <0>         0.0000
     22 H7          0.3999    2.8095    0.2744 H         1 <0>         0.0000
     23 H8          1.1341    0.4045   -2.5692 H         1 <0>         0.0000
     24 H9         -0.9980    1.6213   -3.3397 H         1 <0>         0.0000
     25 H10        -1.3726    1.8733   -1.6077 H         1 <0>         0.0000
@<TRIPOS>BOND
     1    1    2 ar
     2    1    3 ar
     3    1   16 1
     4    2    4 ar
     5    2   17 1
     6    3    5 ar
     7    3   18 1
     8    4    6 ar
     9    4   13 1
    10    5    6 ar
    11    5   14 1
    12    6   15 1
    13    7    8 1
    14    7   11 1
    15    7   19 1
    16    7   20 1
    17    8   12 1
    18    8   21 1
    19    8   22 1
    20    9   10 1
    21    9   12 1
    22    9   11 1
    23    9   23 1
    24   10   13 1
    25   10   24 1
    26   10   25 1
