@<TRIPOS>MOLECULE
*****
   18    18     0     0     0
SMALL
NO_CHARGES

@<TRIPOS>ATOM
      1 C1          5.5024   -2.1424    1.2991 C.1       1 <0>         0.0000
      2 C2          4.7109   -6.6181    2.5842 C.2       1 <0>         0.0000
      3 C3          4.1447   -6.0754    3.7069 C.2       1 <0>         0.0000
      4 C4          4.5305   -5.7817    1.4390 C.2       1 <0>         0.0000
      5 C5          3.8371   -4.6201    1.6891 C.2       1 <0>         0.0000
      6 C6          4.6874   -2.7300    0.2312 C.3       1 <0>         0.0000
      7 C7          3.4467   -3.4758    0.7868 C.3       1 <0>         0.0000
      8 N1          6.1269   -1.6772    2.1628 N.1       1 <0>         0.0000
      9 N2          2.6689   -3.9647   -0.3597 N.3       1 <0>         0.0000
     10 S1          3.3992   -4.5522    3.3733 S.3       1 <0>         0.0000
     11 Br1         5.2367   -6.2981   -0.2555 Br        1 <0>         0.0000
     12 H1          5.2380   -7.5649    2.5596 H         1 <0>         0.0000
     13 H2          4.1335   -6.4810    4.7104 H         1 <0>         0.0000
     14 H3          4.3608   -1.9270   -0.4388 H         1 <0>         0.0000
     15 H4          5.2953   -3.4221   -0.3558 H         1 <0>         0.0000
     16 H5          2.8880   -2.7541    1.4029 H         1 <0>         0.0000
     17 H6          2.2144   -3.1828   -0.8293 H         1 <0>         0.0000
     18 H7          1.9358   -4.5912   -0.0338 H         1 <0>         0.0000
@<TRIPOS>BOND
     1    1    6 1
     2    1    8 3
     3    2    3 2
     4    2    4 1
     5    2   12 1
     6    3   10 1
     7    3   13 1
     8    4    5 2
     9    4   11 1
    10    5    7 1
    11    5   10 1
    12    6    7 1
    13    6   14 1
    14    6   15 1
    15    7    9 1
    16    7   16 1
    17    9   17 1
    18    9   18 1
