@<TRIPOS>MOLECULE
*****
   67    68     0     0     0
SMALL
NO_CHARGES

@<TRIPOS>ATOM
      1 C1         -0.4875   -2.4760   -8.5439 C.ar      1 <0>         0.0000
      2 C2          0.8480   -2.1272   -8.7449 C.ar      1 <0>         0.0000
      3 C3         -1.1366   -2.1014   -7.3674 C.ar      1 <0>         0.0000
      4 C4          1.5344   -1.4039   -7.7695 C.ar      1 <0>         0.0000
      5 C5          0.8853   -1.0294   -6.5931 C.ar      1 <0>         0.0000
      6 C6         -0.4503   -1.3781   -6.3920 C.ar      1 <0>         0.0000
      7 C7         -0.8524   -0.6694   -0.3679 C.2       1 <0>         0.0000
      8 C8         -0.7755   -1.8318   -3.9292 C.2       1 <0>         0.0000
      9 C9         -1.1778   -3.7121    0.0543 C.3       1 <0>         0.0000
     10 C10         1.2214   -2.9562   -0.1486 C.3       1 <0>         0.0000
     11 C11        -1.5474   -2.9037   -1.1930 C.3       1 <0>         0.0000
     12 C12         0.8680   -2.1393   -1.3955 C.3       1 <0>         0.0000
     13 C13         0.2864   -4.1468    0.0476 C.3       1 <0>         0.0000
     14 C14        -0.6064   -1.7197   -1.4499 C.3       1 <0>         0.0000
     15 C15         1.5199   -2.5411  -10.0132 C.3       1 <0>         0.0000
     16 C16        -2.5673   -2.4866   -7.1772 C.3       1 <0>         0.0000
     17 C17         2.9667   -1.0310   -7.9878 C.3       1 <0>         0.0000
     18 C18         1.6214   -0.2530   -5.5471 C.3       1 <0>         0.0000
     19 C19        -1.0144   -7.1375   -5.2571 C.3       1 <0>         0.0000
     20 C20        -1.5582    1.5618   -0.0404 C.3       1 <0>         0.0000
     21 C21        -1.1533   -0.9757   -5.1227 C.3       1 <0>         0.0000
     22 C22        -0.2303   -7.6872   -4.0846 C.3       1 <0>         0.0000
     23 C23         0.0354   -6.3766   -0.6573 C.3       1 <0>         0.0000
     24 C24         0.2770   -7.3204   -1.8195 C.3       1 <0>         0.0000
     25 N1         -0.9017   -1.1290   -2.7400 N.am      1 <0>         0.0000
     26 O1         -0.6783   -0.8635    0.8276 O.2       1 <0>         0.0000
     27 O2         -0.4097   -3.0008   -4.0218 O.2       1 <0>         0.0000
     28 O3         -1.2870    0.4868   -0.9452 O.3       1 <0>         0.0000
     29 O4          0.5088   -5.0832   -1.0044 O.3       1 <0>         0.0000
     30 O5         -0.4385   -6.8504   -2.9555 O.3       1 <0>         0.0000
     31 H1         -1.0227   -3.0399   -9.3044 H         1 <0>         0.0000
     32 H2         -1.3819   -3.1162    0.9547 H         1 <0>         0.0000
     33 H3         -1.8281   -4.5947    0.1389 H         1 <0>         0.0000
     34 H4          2.2631   -3.3051   -0.2098 H         1 <0>         0.0000
     35 H5          1.1871   -2.3097    0.7401 H         1 <0>         0.0000
     36 H6         -1.5785   -3.5750   -2.0680 H         1 <0>         0.0000
     37 H7         -2.5811   -2.5330   -1.0816 H         1 <0>         0.0000
     38 H8          1.5067   -1.2391   -1.4218 H         1 <0>         0.0000
     39 H9          1.1452   -2.7110   -2.2976 H         1 <0>         0.0000
     40 H10         0.5294   -4.6470    0.9947 H         1 <0>         0.0000
     41 H11         1.3943   -1.7674  -10.7793 H         1 <0>         0.0000
     42 H12         2.5927   -2.7079   -9.8570 H         1 <0>         0.0000
     43 H13         1.1026   -3.4815  -10.3938 H         1 <0>         0.0000
     44 H14        -2.6351   -3.4639   -6.6857 H         1 <0>         0.0000
     45 H15        -3.0980   -1.7486   -6.5633 H         1 <0>         0.0000
     46 H16        -3.0939   -2.5409   -8.1380 H         1 <0>         0.0000
     47 H17         3.0314   -0.0578   -8.4861 H         1 <0>         0.0000
     48 H18         3.5086   -0.9759   -7.0367 H         1 <0>         0.0000
     49 H19         3.4781   -1.7777   -8.6063 H         1 <0>         0.0000
     50 H20         1.5102    0.8216   -5.7270 H         1 <0>         0.0000
     51 H21         1.2409   -0.4832   -4.5454 H         1 <0>         0.0000
     52 H22         2.6889   -0.5019   -5.5506 H         1 <0>         0.0000
     53 H23        -2.0846   -7.1128   -5.0336 H         1 <0>         0.0000
     54 H24        -0.6811   -6.1239   -5.5031 H         1 <0>         0.0000
     55 H25        -0.8541   -7.7508   -6.1500 H         1 <0>         0.0000
     56 H26        -1.8980    2.4352   -0.6024 H         1 <0>         0.0000
     57 H27        -0.6517    1.8055    0.5194 H         1 <0>         0.0000
     58 H28        -2.3414    1.2518    0.6554 H         1 <0>         0.0000
     59 H29        -0.9248    0.0727   -4.8924 H         1 <0>         0.0000
     60 H30        -2.2397   -1.0344   -5.2662 H         1 <0>         0.0000
     61 H31         0.8391   -7.7093   -4.3146 H         1 <0>         0.0000
     62 H32        -0.5651   -8.6996   -3.8396 H         1 <0>         0.0000
     63 H33         0.5719   -6.7072    0.2374 H         1 <0>         0.0000
     64 H34        -1.0341   -6.3031   -0.4398 H         1 <0>         0.0000
     65 H35        -0.0762   -8.3302   -1.5880 H         1 <0>         0.0000
     66 H36         1.3407   -7.3511   -2.0730 H         1 <0>         0.0000
     67 H37        -1.2132   -0.1633   -2.7746 H         1 <0>         0.0000
@<TRIPOS>BOND
     1    1    2 ar
     2    1    3 ar
     3    1   31 1
     4    2    4 ar
     5    2   15 1
     6    3    6 ar
     7    3   16 1
     8    4    5 ar
     9    4   17 1
    10    5    6 ar
    11    5   18 1
    12    6   21 1
    13    7   14 1
    14    7   26 2
    15    7   28 1
    16    8   21 1
    17    8   25 am
    18    8   27 2
    19    9   11 1
    20    9   13 1
    21    9   32 1
    22    9   33 1
    23   10   12 1
    24   10   13 1
    25   10   34 1
    26   10   35 1
    27   11   14 1
    28   11   36 1
    29   11   37 1
    30   12   14 1
    31   12   38 1
    32   12   39 1
    33   13   29 1
    34   13   40 1
    35   14   25 1
    36   15   41 1
    37   15   42 1
    38   15   43 1
    39   16   44 1
    40   16   45 1
    41   16   46 1
    42   17   47 1
    43   17   48 1
    44   17   49 1
    45   18   50 1
    46   18   51 1
    47   18   52 1
    48   19   22 1
    49   19   53 1
    50   19   54 1
    51   19   55 1
    52   20   28 1
    53   20   56 1
    54   20   57 1
    55   20   58 1
    56   21   59 1
    57   21   60 1
    58   22   30 1
    59   22   61 1
    60   22   62 1
    61   23   24 1
    62   23   29 1
    63   23   63 1
    64   23   64 1
    65   24   30 1
    66   24   65 1
    67   24   66 1
    68   25   67 1
