@<TRIPOS>MOLECULE
*****
   19    20     0     0     0
SMALL
NO_CHARGES

@<TRIPOS>ATOM
      1 C1         -0.4682   -0.0882   -0.9718 C.2       1 <0>         0.0000
      2 C2         -0.2528    0.8087   -2.0577 C.2       1 <0>         0.0000
      3 C3         -0.9783    0.4538   -3.1737 C.2       1 <0>         0.0000
      4 C4         -1.3504   -1.0945   -1.2990 C.2       1 <0>         0.0000
      5 C5          2.1245    1.8062   -1.5810 C.3       1 <0>         0.0000
      6 C6          1.7920    2.1523   -2.9988 C.3       1 <0>         0.0000
      7 C7          0.6781    2.0188   -1.9800 C.3       1 <0>         0.0000
      8 C8         -1.0332    1.1177   -4.4949 C.3       1 <0>         0.0000
      9 S1         -1.9146   -0.9556   -2.9098 S.3       1 <0>         0.0000
     10 Br1        -1.8873   -2.4797   -0.1157 Br        1 <0>         0.0000
     11 H1          0.0027    0.0057   -0.0007 H         1 <0>         0.0000
     12 H2          2.4598    0.7971   -1.3736 H         1 <0>         0.0000
     13 H3          2.5983    2.5671   -0.9726 H         1 <0>         0.0000
     14 H4          2.0414    3.1468   -3.3483 H         1 <0>         0.0000
     15 H5          1.9049    1.3760   -3.7460 H         1 <0>         0.0000
     16 H6          0.2116    2.9426   -1.6455 H         1 <0>         0.0000
     17 H7         -0.2642    0.7131   -5.1710 H         1 <0>         0.0000
     18 H8         -2.0138    0.9852   -4.9801 H         1 <0>         0.0000
     19 H9         -0.8744    2.2054   -4.4142 H         1 <0>         0.0000
@<TRIPOS>BOND
     1    1    2 1
     2    1    4 2
     3    1   11 1
     4    2    3 2
     5    2    7 1
     6    3    8 1
     7    3    9 1
     8    4    9 1
     9    4   10 1
    10    5    6 1
    11    5    7 1
    12    5   12 1
    13    5   13 1
    14    6    7 1
    15    6   14 1
    16    6   15 1
    17    7   16 1
    18    8   17 1
    19    8   18 1
    20    8   19 1
