@<TRIPOS>MOLECULE
*****
   51    54     0     0     0
SMALL
NO_CHARGES

@<TRIPOS>ATOM
      1 C1          6.7556    0.1332    3.0070 C.ar      1 <0>         0.0000
      2 C2          5.8244    1.1156    3.3682 C.ar      1 <0>         0.0000
      3 C3          6.3256   -1.1784    2.7900 C.ar      1 <0>         0.0000
      4 C4          4.4757    0.7855    3.5116 C.ar      1 <0>         0.0000
      5 C5          4.9711   -1.5042    2.9325 C.ar      1 <0>         0.0000
      6 C6          1.6408    2.4706    0.9843 C.ar      1 <0>         0.0000
      7 C7          0.1252    3.4852   -0.6152 C.ar      1 <0>         0.0000
      8 C8          1.1765    1.1974    0.6254 C.ar      1 <0>         0.0000
      9 C9          4.0353   -0.5296    3.2971 C.ar      1 <0>         0.0000
     10 C10        -0.3627    2.2304   -0.9784 C.ar      1 <0>         0.0000
     11 C11         0.1713    1.0899   -0.3433 C.ar      1 <0>         0.0000
     12 C12         1.1163    3.5963    0.3661 C.ar      1 <0>         0.0000
     13 C13        -3.0207   -2.2608    0.1049 C.3       1 <0>         0.0000
     14 C14        -2.6556   -1.0023    0.9009 C.3       1 <0>         0.0000
     15 C15        -2.0728   -2.4454   -1.0866 C.3       1 <0>         0.0000
     16 C16        -1.1884   -1.0189    1.3516 C.3       1 <0>         0.0000
     17 C17        -0.6078   -2.4675   -0.6329 C.3       1 <0>         0.0000
     18 C18         1.2557   -1.3205    0.6139 C.3       1 <0>         0.0000
     19 C19         1.8034   -0.0301    1.2615 C.3       1 <0>         0.0000
     20 C20        -0.2097   -1.2281    0.1786 C.3       1 <0>         0.0000
     21 C21        -1.4399    2.0708   -2.0218 C.3       1 <0>         0.0000
     22 C22         2.5674   -0.8754    3.4596 C.3       1 <0>         0.0000
     23 N1          1.7127    0.0631    2.7283 N.3       1 <0>         0.0000
     24 O1         -0.3445   -0.1154   -0.7484 O.3       1 <0>         0.0000
     25 Cl1         1.7041    5.1957    0.8201 Cl        1 <0>         0.0000
     26 H1          7.8054    0.3907    2.8923 H         1 <0>         0.0000
     27 H2          6.1518    2.1388    3.5358 H         1 <0>         0.0000
     28 H3          7.0402   -1.9460    2.5035 H         1 <0>         0.0000
     29 H4          3.7472    1.5458    3.7803 H         1 <0>         0.0000
     30 H5          4.6398   -2.5251    2.7523 H         1 <0>         0.0000
     31 H6          2.4075    2.5576    1.7469 H         1 <0>         0.0000
     32 H7         -0.2718    4.3791   -1.0874 H         1 <0>         0.0000
     33 H8         -4.0594   -2.2026   -0.2401 H         1 <0>         0.0000
     34 H9         -2.9559   -3.1394    0.7626 H         1 <0>         0.0000
     35 H10        -2.8254   -0.1160    0.2787 H         1 <0>         0.0000
     36 H11        -3.3039   -0.9008    1.7787 H         1 <0>         0.0000
     37 H12        -2.3040   -3.3743   -1.6205 H         1 <0>         0.0000
     38 H13        -2.2146   -1.6242   -1.7981 H         1 <0>         0.0000
     39 H14        -0.9618   -0.0790    1.8640 H         1 <0>         0.0000
     40 H15        -1.0293   -1.8288    2.0757 H         1 <0>         0.0000
     41 H16        -0.4294   -3.3506   -0.0056 H         1 <0>         0.0000
     42 H17         0.0603   -2.5461   -1.4973 H         1 <0>         0.0000
     43 H18         1.8476   -1.5442   -0.2813 H         1 <0>         0.0000
     44 H19         1.3826   -2.1684    1.2942 H         1 <0>         0.0000
     45 H20         2.8761    0.0074    1.0425 H         1 <0>         0.0000
     46 H21        -1.0861    1.4685   -2.8654 H         1 <0>         0.0000
     47 H22        -2.3116    1.5510   -1.6103 H         1 <0>         0.0000
     48 H23        -1.7631    3.0432   -2.4018 H         1 <0>         0.0000
     49 H24         2.4180   -1.9309    3.1755 H         1 <0>         0.0000
     50 H25         2.2905   -0.7977    4.5177 H         1 <0>         0.0000
     51 H26         0.7482   -0.0260    3.0343 H         1 <0>         0.0000
@<TRIPOS>BOND
     1    1    3 ar
     2    1    2 ar
     3    1   26 1
     4    2    4 ar
     5    2   27 1
     6    3    5 ar
     7    3   28 1
     8    4    9 ar
     9    4   29 1
    10    5    9 ar
    11    5   30 1
    12    6    8 ar
    13    6   12 ar
    14    6   31 1
    15    7   10 ar
    16    7   12 ar
    17    7   32 1
    18    8   11 ar
    19    8   19 1
    20    9   22 1
    21   10   11 ar
    22   10   21 1
    23   11   24 1
    24   12   25 1
    25   13   15 1
    26   13   14 1
    27   13   33 1
    28   13   34 1
    29   14   16 1
    30   14   35 1
    31   14   36 1
    32   15   17 1
    33   15   37 1
    34   15   38 1
    35   16   20 1
    36   16   39 1
    37   16   40 1
    38   17   20 1
    39   17   41 1
    40   17   42 1
    41   18   19 1
    42   18   20 1
    43   18   43 1
    44   18   44 1
    45   19   23 1
    46   19   45 1
    47   20   24 1
    48   21   46 1
    49   21   47 1
    50   21   48 1
    51   22   23 1
    52   22   49 1
    53   22   50 1
    54   23   51 1
