@<TRIPOS>MOLECULE
*****
   38    41     0     0     0
SMALL
NO_CHARGES

@<TRIPOS>ATOM
      1 C1          1.7433   -4.9804   -5.3511 C.ar      1 <0>         0.0000
      2 C2          2.7799   -4.0215   -5.4982 C.ar      1 <0>         0.0000
      3 C3          0.9989   -5.0262   -4.1906 C.ar      1 <0>         0.0000
      4 C4          3.0508   -3.1281   -4.4828 C.ar      1 <0>         0.0000
      5 C5          0.5125   -4.1357   -1.9141 C.ar      1 <0>         0.0000
      6 C6          0.7805   -3.2389   -0.9041 C.ar      1 <0>         0.0000
      7 C7          2.5477   -2.2386   -2.2126 C.ar      1 <0>         0.0000
      8 C8          1.2539   -4.1170   -3.1276 C.ar      1 <0>         0.0000
      9 C9          2.2989   -3.1491   -3.2755 C.ar      1 <0>         0.0000
     10 C10         1.8076   -2.2606   -1.0455 C.ar      1 <0>         0.0000
     11 C11        -0.3879   -0.5936    0.2860 C.2       1 <0>         0.0000
     12 C12         0.6237    2.2719    0.5205 C.3       1 <0>         0.0000
     13 C13         0.8640    2.1893   -0.9993 C.3       1 <0>         0.0000
     14 C14         1.3490    1.0303    1.0571 C.3       1 <0>         0.0000
     15 C15        -0.4349    0.1149   -1.9114 C.3       1 <0>         0.0000
     16 C16         0.8781    0.6757   -1.3422 C.3       1 <0>         0.0000
     17 C17         1.0264   -0.0622    0.0159 C.3       1 <0>         0.0000
     18 C18         2.0362   -1.2333    0.0400 C.3       1 <0>         0.0000
     19 O1         -0.7844   -1.1002    1.3122 O.2       1 <0>         0.0000
     20 O2         -1.1894   -0.4171   -0.7934 O.3       1 <0>         0.0000
     21 H1          1.5401   -5.6793   -6.1582 H         1 <0>         0.0000
     22 H2          3.3607   -3.9959   -6.4166 H         1 <0>         0.0000
     23 H3          0.2053   -5.7611   -4.0753 H         1 <0>         0.0000
     24 H4          3.8466   -2.3948   -4.5951 H         1 <0>         0.0000
     25 H5         -0.2764   -4.8741   -1.7899 H         1 <0>         0.0000
     26 H6          0.2018   -3.2706    0.0149 H         1 <0>         0.0000
     27 H7          3.3469   -1.5085   -2.3317 H         1 <0>         0.0000
     28 H8          0.9919    3.2045    0.9581 H         1 <0>         0.0000
     29 H9         -0.4472    2.2057    0.7452 H         1 <0>         0.0000
     30 H10         0.1206    2.7430   -1.5816 H         1 <0>         0.0000
     31 H11         1.8426    2.6207   -1.2375 H         1 <0>         0.0000
     32 H12         2.4324    1.2023    1.0716 H         1 <0>         0.0000
     33 H13         1.0388    0.7327    2.0621 H         1 <0>         0.0000
     34 H14        -1.0621    0.8708   -2.3891 H         1 <0>         0.0000
     35 H15        -0.2600   -0.7080   -2.6098 H         1 <0>         0.0000
     36 H16         1.6930    0.4407   -2.0297 H         1 <0>         0.0000
     37 H17         1.9790   -1.7033    1.0279 H         1 <0>         0.0000
     38 H18         3.0398   -0.8072   -0.0618 H         1 <0>         0.0000
@<TRIPOS>BOND
     1    1    2 ar
     2    1    3 ar
     3    1   21 1
     4    2    4 ar
     5    2   22 1
     6    3    8 ar
     7    3   23 1
     8    4    9 ar
     9    4   24 1
    10    5    6 ar
    11    5    8 ar
    12    5   25 1
    13    6   10 ar
    14    6   26 1
    15    7    9 ar
    16    7   10 ar
    17    7   27 1
    18    8    9 ar
    19   10   18 1
    20   11   17 1
    21   11   19 2
    22   11   20 1
    23   12   13 1
    24   12   14 1
    25   12   28 1
    26   12   29 1
    27   13   16 1
    28   13   30 1
    29   13   31 1
    30   14   17 1
    31   14   32 1
    32   14   33 1
    33   15   16 1
    34   15   20 1
    35   15   34 1
    36   15   35 1
    37   16   17 1
    38   16   36 1
    39   17   18 1
    40   18   37 1
    41   18   38 1
