@<TRIPOS>MOLECULE
*****
   44    46     0     0     0
SMALL
NO_CHARGES

@<TRIPOS>ATOM
      1 C1          0.1230   -0.7961    1.9318 C.ar      1 <0>         0.0000
      2 C2          2.6047   -2.4883   -2.0751 C.ar      1 <0>         0.0000
      3 C3          3.6010   -0.4475   -2.8936 C.ar      1 <0>         0.0000
      4 C4         -1.0022   -0.7490    2.7510 C.ar      1 <0>         0.0000
      5 C5          3.6634   -3.2270   -2.5975 C.ar      1 <0>         0.0000
      6 C6          4.6720   -1.1710   -3.4240 C.ar      1 <0>         0.0000
      7 C7         -2.1064    0.5941    1.0570 C.ar      1 <0>         0.0000
      8 C8          0.1534   -0.1835    0.6694 C.ar      1 <0>         0.0000
      9 C9          2.5616   -1.0915   -2.2132 C.ar      1 <0>         0.0000
     10 C10        -0.9868    0.5369    0.2310 C.ar      1 <0>         0.0000
     11 C11        -2.1328   -0.0476    2.3060 C.ar      1 <0>         0.0000
     12 C12         4.6941   -2.5558   -3.2620 C.ar      1 <0>         0.0000
     13 C13         1.4178   -0.3463   -0.1108 C.2       1 <0>         0.0000
     14 C14        -1.0027    1.2811   -1.0836 C.3       1 <0>         0.0000
     15 C15        -1.0069    0.3571   -2.3161 C.3       1 <0>         0.0000
     16 C16         0.0412   -0.7632   -2.2515 C.3       1 <0>         0.0000
     17 C17         1.3940   -0.3020   -1.6575 C.3       1 <0>         0.0000
     18 C18        -3.3671   -0.5330    4.2977 C.3       1 <0>         0.0000
     19 C19         7.2353   -3.5153   -2.5063 C.3       1 <0>         0.0000
     20 O1          2.4750   -0.5770    0.4667 O.2       1 <0>         0.0000
     21 O2          5.6419   -4.8797   -4.1297 O.2       1 <0>         0.0000
     22 O3          6.7137   -2.7093   -4.9792 O.2       1 <0>         0.0000
     23 O4         -3.2928    0.0774    3.0096 O.3       1 <0>         0.0000
     24 S1          6.0851   -3.4940   -3.9035 S.o2      1 <0>         0.0000
     25 H1          1.0113   -1.3252    2.2623 H         1 <0>         0.0000
     26 H2          1.8043   -3.0045   -1.5515 H         1 <0>         0.0000
     27 H3          3.5772    0.6330   -3.0122 H         1 <0>         0.0000
     28 H4         -0.9872   -1.2492    3.7125 H         1 <0>         0.0000
     29 H5          3.6914   -4.3091   -2.5107 H         1 <0>         0.0000
     30 H6          5.4699   -0.6769   -3.9702 H         1 <0>         0.0000
     31 H7         -2.9872    1.1533    0.7535 H         1 <0>         0.0000
     32 H8         -1.8791    1.9343   -1.1224 H         1 <0>         0.0000
     33 H9         -0.1319    1.9445   -1.1301 H         1 <0>         0.0000
     34 H10        -2.0002   -0.0891   -2.4363 H         1 <0>         0.0000
     35 H11        -0.8282    0.9750   -3.2043 H         1 <0>         0.0000
     36 H12        -0.3428   -1.6004   -1.6595 H         1 <0>         0.0000
     37 H13         0.2101   -1.1520   -3.2598 H         1 <0>         0.0000
     38 H14         1.5515    0.7491   -1.9318 H         1 <0>         0.0000
     39 H15        -4.3640   -0.3055    4.6764 H         1 <0>         0.0000
     40 H16        -2.6146   -0.1173    4.9780 H         1 <0>         0.0000
     41 H17        -3.2422   -1.6201    4.2301 H         1 <0>         0.0000
     42 H18         8.1090   -4.0801   -2.8387 H         1 <0>         0.0000
     43 H19         7.5103   -2.4890   -2.2598 H         1 <0>         0.0000
     44 H20         6.7550   -4.0100   -1.6610 H         1 <0>         0.0000
@<TRIPOS>BOND
     1    1    4 ar
     2    1    8 ar
     3    1   25 1
     4    2    5 ar
     5    2    9 ar
     6    2   26 1
     7    3    6 ar
     8    3    9 ar
     9    3   27 1
    10    4   11 ar
    11    4   28 1
    12    5   12 ar
    13    5   29 1
    14    6   12 ar
    15    6   30 1
    16    7   10 ar
    17    7   11 ar
    18    7   31 1
    19    8   10 ar
    20    8   13 1
    21    9   17 1
    22   10   14 1
    23   11   23 1
    24   12   24 1
    25   13   17 1
    26   13   20 2
    27   14   15 1
    28   14   32 1
    29   14   33 1
    30   15   16 1
    31   15   34 1
    32   15   35 1
    33   16   17 1
    34   16   36 1
    35   16   37 1
    36   17   38 1
    37   18   23 1
    38   18   39 1
    39   18   40 1
    40   18   41 1
    41   19   24 1
    42   19   42 1
    43   19   43 1
    44   19   44 1
    45   21   24 2
    46   22   24 2
