@<TRIPOS>MOLECULE
*****
   32    32     0     0     0
SMALL
NO_CHARGES

@<TRIPOS>ATOM
      1 C1          1.5848   -1.0202   -5.4262 C.ar      1 <0>         0.0000
      2 C2          0.3697   -0.5894   -5.9671 C.ar      1 <0>         0.0000
      3 C3          1.7811   -1.0276   -4.0443 C.ar      1 <0>         0.0000
      4 C4         -0.4728   -0.1896   -3.7478 C.ar      1 <0>         0.0000
      5 C5         -0.6762   -0.1686   -5.1342 C.ar      1 <0>         0.0000
      6 C6          0.7446   -0.6083   -3.2049 C.ar      1 <0>         0.0000
      7 C7          1.2494   -1.7185   -1.1083 C.2       1 <0>         0.0000
      8 C8         -1.9729    1.8588   -5.9287 C.3       1 <0>         0.0000
      9 C9          2.2775    1.4894   -1.3706 C.3       1 <0>         0.0000
     10 C10        -1.9802    0.3347   -5.7127 C.3       1 <0>         0.0000
     11 C11         1.5000   -1.6346    0.4055 C.3       1 <0>         0.0000
     12 C12         0.9519    0.7576   -1.1458 C.3       1 <0>         0.0000
     13 N1          0.9254   -0.5715   -1.7783 N.am      1 <0>         0.0000
     14 O1          1.3331   -2.8224   -1.6535 O.2       1 <0>         0.0000
     15 O2          1.8625   -2.9004    0.9003 O.3       1 <0>         0.0000
     16 H1          2.3834   -1.3532   -6.0839 H         1 <0>         0.0000
     17 H2          0.2291   -0.5873   -7.0459 H         1 <0>         0.0000
     18 H3          2.7166   -1.3718   -3.6158 H         1 <0>         0.0000
     19 H4         -1.2785    0.1084   -3.0798 H         1 <0>         0.0000
     20 H5         -1.8085    2.3864   -4.9831 H         1 <0>         0.0000
     21 H6         -2.9252    2.2004   -6.3486 H         1 <0>         0.0000
     22 H7         -1.1717    2.1516   -6.6152 H         1 <0>         0.0000
     23 H8          3.1124    0.9330   -0.9329 H         1 <0>         0.0000
     24 H9          2.4729    1.6135   -2.4396 H         1 <0>         0.0000
     25 H10         2.2465    2.4821   -0.9093 H         1 <0>         0.0000
     26 H11        -2.1748   -0.1658   -6.6676 H         1 <0>         0.0000
     27 H12        -2.8071    0.0673   -5.0450 H         1 <0>         0.0000
     28 H13         2.2979   -0.9097    0.6149 H         1 <0>         0.0000
     29 H14         0.5866   -1.2791    0.9047 H         1 <0>         0.0000
     30 H15         0.1284    1.3416   -1.5648 H         1 <0>         0.0000
     31 H16         0.7434    0.6518   -0.0804 H         1 <0>         0.0000
     32 H17         1.7974   -3.5026    0.1291 H         1 <0>         0.0000
@<TRIPOS>BOND
     1    1    2 ar
     2    1    3 ar
     3    1   16 1
     4    2    5 ar
     5    2   17 1
     6    3    6 ar
     7    3   18 1
     8    4    5 ar
     9    4    6 ar
    10    4   19 1
    11    5   10 1
    12    6   13 1
    13    7   11 1
    14    7   13 am
    15    7   14 2
    16    8   10 1
    17    8   20 1
    18    8   21 1
    19    8   22 1
    20    9   12 1
    21    9   23 1
    22    9   24 1
    23    9   25 1
    24   10   26 1
    25   10   27 1
    26   11   15 1
    27   11   28 1
    28   11   29 1
    29   12   13 1
    30   12   30 1
    31   12   31 1
    32   15   32 1
