@<TRIPOS>MOLECULE
*****
   39    42     0     0     0
SMALL
NO_CHARGES

@<TRIPOS>ATOM
      1 C1          0.0823    0.4074   -3.1329 C.ar      1 <0>         0.0000
      2 C2          5.8445    1.6197    3.0475 C.ar      1 <0>         0.0000
      3 C3         -1.1428    0.3684   -2.4670 C.ar      1 <0>         0.0000
      4 C4          1.2694    0.2418   -2.4196 C.ar      1 <0>         0.0000
      5 C5          5.1516    1.0667    4.1245 C.ar      1 <0>         0.0000
      6 C6          5.2701    2.6506    2.3041 C.ar      1 <0>         0.0000
      7 C7         -1.1806    0.1638   -1.0878 C.ar      1 <0>         0.0000
      8 C8          1.2316    0.0372   -1.0404 C.ar      1 <0>         0.0000
      9 C9          3.8844    1.5449    4.4581 C.ar      1 <0>         0.0000
     10 C10         4.0029    3.1288    2.6376 C.ar      1 <0>         0.0000
     11 C11         1.1549    1.3600    2.5163 C.2       1 <0>         0.0000
     12 C12         0.0066   -0.0019   -0.3744 C.ar      1 <0>         0.0000
     13 C13         3.3101    2.5759    3.7147 C.ar      1 <0>         0.0000
     14 C14         0.0049    0.8819    2.0234 C.2       1 <0>         0.0000
     15 C15         1.0413    2.4719    3.4770 C.2       1 <0>         0.0000
     16 C16        -0.1006   -1.4687    1.5271 C.2       1 <0>         0.0000
     17 C17        -0.0335   -0.2154    1.0638 C.2       1 <0>         0.0000
     18 C18         0.1203   -4.0761    1.7691 C.3       1 <0>         0.0000
     19 C19        -0.5706   -3.5748    3.0268 C.3       1 <0>         0.0000
     20 N1          2.0322    3.0582    4.0517 N.2       1 <0>         0.0000
     21 S1         -1.4889    1.5934    2.5422 S.3       1 <0>         0.0000
     22 S2         -0.6079    2.9514    3.7877 S.3       1 <0>         0.0000
     23 S3         -0.1393   -2.8403    0.4585 S.3       1 <0>         0.0000
     24 S4         -0.1523   -1.8153    3.2305 S.3       1 <0>         0.0000
     25 H1          0.1118    0.5680   -4.2066 H         1 <0>         0.0000
     26 H2          6.8312    1.2475    2.7877 H         1 <0>         0.0000
     27 H3         -2.0671    0.4985   -3.0221 H         1 <0>         0.0000
     28 H4          2.2235    0.2733   -2.9378 H         1 <0>         0.0000
     29 H5          5.5989    0.2639    4.7032 H         1 <0>         0.0000
     30 H6          5.8096    3.0810    1.4653 H         1 <0>         0.0000
     31 H7         -2.1434    0.1359   -0.5829 H         1 <0>         0.0000
     32 H8          2.1655   -0.0904   -0.4980 H         1 <0>         0.0000
     33 H9          3.3524    1.1077    5.2991 H         1 <0>         0.0000
     34 H10         3.5633    3.9327    2.0531 H         1 <0>         0.0000
     35 H11         2.1348    0.9822    2.2522 H         1 <0>         0.0000
     36 H12         1.1968   -4.1969    1.9344 H         1 <0>         0.0000
     37 H13        -0.2832   -5.0439    1.4566 H         1 <0>         0.0000
     38 H14        -1.6588   -3.6732    2.9425 H         1 <0>         0.0000
     39 H15        -0.2485   -4.1406    3.9059 H         1 <0>         0.0000
@<TRIPOS>BOND
     1    1    4 ar
     2    1    3 ar
     3    1   25 1
     4    2    6 ar
     5    2    5 ar
     6    2   26 1
     7    3    7 ar
     8    3   27 1
     9    4    8 ar
    10    4   28 1
    11    5    9 ar
    12    5   29 1
    13    6   10 ar
    14    6   30 1
    15    7   12 ar
    16    7   31 1
    17    8   12 ar
    18    8   32 1
    19    9   13 ar
    20    9   33 1
    21   10   13 ar
    22   10   34 1
    23   11   14 2
    24   11   15 1
    25   11   35 1
    26   12   17 1
    27   13   20 1
    28   14   17 1
    29   14   21 1
    30   15   20 2
    31   15   22 1
    32   16   17 2
    33   16   24 1
    34   16   23 1
    35   18   19 1
    36   18   23 1
    37   18   36 1
    38   18   37 1
    39   19   24 1
    40   19   38 1
    41   19   39 1
    42   21   22 1
