@<TRIPOS>MOLECULE
*****
   39    41     0     0     0
SMALL
NO_CHARGES

@<TRIPOS>ATOM
      1 C1         -2.7513    0.7762    0.5377 C.ar      1 <0>         0.0000
      2 C2         -1.7228    2.4310    1.9519 C.ar      1 <0>         0.0000
      3 C3         -3.9069    0.8031    1.3235 C.ar      1 <0>         0.0000
      4 C4         -2.8690    2.4805    2.7487 C.ar      1 <0>         0.0000
      5 C5         -0.8485   -0.6590   -3.7097 C.2       1 <0>         0.0000
      6 C6          0.6486    0.7996   -3.4844 C.2       1 <0>         0.0000
      7 C7         -1.6414    1.5768    0.8442 C.ar      1 <0>         0.0000
      8 C8         -3.9406    1.6568    2.4205 C.ar      1 <0>         0.0000
      9 C9          2.7861    1.0061    1.3478 C.3       1 <0>         0.0000
     10 C10         2.5931   -0.4778    1.6202 C.3       1 <0>         0.0000
     11 C11         1.3999    0.4154    1.3901 C.3       1 <0>         0.0000
     12 C12        -0.0798   -0.2107    3.1839 C.3       1 <0>         0.0000
     13 C13        -0.4037    1.5303   -0.0218 C.3       1 <0>         0.0000
     14 C14         1.4000    0.1653   -1.1404 C.3       1 <0>         0.0000
     15 C15         0.5201    0.2790    0.1338 C.3       1 <0>         0.0000
     16 N1         -0.2568    0.3800   -4.3607 N.2       1 <0>         0.0000
     17 N2         -0.3605   -0.9041   -2.4963 N.2       1 <0>         0.0000
     18 N3          0.6095    0.0467   -2.3621 N.pl3     1 <0>         0.0000
     19 O1         -0.2146   -0.9331    0.2968 O.3       1 <0>         0.0000
     20 O2          0.7081    0.8064    2.5490 O.3       1 <0>         0.0000
     21 F1         -5.0605    1.6930    3.1938 F         1 <0>         0.0000
     22 H1         -2.7164    0.1177   -0.3255 H         1 <0>         0.0000
     23 H2         -0.8678    3.0466    2.2136 H         1 <0>         0.0000
     24 H3         -4.7677    0.1820    1.0948 H         1 <0>         0.0000
     25 H4         -2.9362    3.1373    3.6108 H         1 <0>         0.0000
     26 H5         -1.6514   -1.2510   -4.1295 H         1 <0>         0.0000
     27 H6          1.3379    1.6236   -3.6178 H         1 <0>         0.0000
     28 H7          3.0430    1.6383    2.1913 H         1 <0>         0.0000
     29 H8          3.2345    1.3070    0.4069 H         1 <0>         0.0000
     30 H9          2.8816   -1.1929    0.8567 H         1 <0>         0.0000
     31 H10         2.7508   -0.8220    2.6371 H         1 <0>         0.0000
     32 H11        -0.3940    0.2120    4.1406 H         1 <0>         0.0000
     33 H12         0.5171   -1.1140    3.3581 H         1 <0>         0.0000
     34 H13        -0.9558   -0.4721    2.5872 H         1 <0>         0.0000
     35 H14         0.2111    2.4175    0.1615 H         1 <0>         0.0000
     36 H15        -0.7270    1.5834   -1.0661 H         1 <0>         0.0000
     37 H16         2.0179    1.0542   -1.2701 H         1 <0>         0.0000
     38 H17         2.0461   -0.7119   -1.0652 H         1 <0>         0.0000
     39 H18        -0.5778   -1.1920   -0.5750 H         1 <0>         0.0000
@<TRIPOS>BOND
     1    1    3 ar
     2    1    7 ar
     3    1   22 1
     4    2    4 ar
     5    2    7 ar
     6    2   23 1
     7    3    8 ar
     8    3   24 1
     9    4    8 ar
    10    4   25 1
    11    5   16 1
    12    5   17 2
    13    5   26 1
    14    6   16 2
    15    6   18 1
    16    6   27 1
    17    7   13 1
    18    8   21 1
    19    9   10 1
    20    9   11 1
    21    9   28 1
    22    9   29 1
    23   10   11 1
    24   10   30 1
    25   10   31 1
    26   11   15 1
    27   11   20 1
    28   12   20 1
    29   12   32 1
    30   12   33 1
    31   12   34 1
    32   13   15 1
    33   13   35 1
    34   13   36 1
    35   14   15 1
    36   14   18 1
    37   14   37 1
    38   14   38 1
    39   15   19 1
    40   17   18 1
    41   19   39 1
