@<TRIPOS>MOLECULE
*****
    7     6     0     0     0
SMALL
NO_CHARGES

@<TRIPOS>ATOM
      1 C1          1.0233   -0.4741   -1.8555 C.2       1 <0>         0.0000
      2 C2          0.1711   -0.8572   -0.6582 C.3       1 <0>         0.0000
      3 O1          1.3510    0.7433   -1.9165 O.co2     1 <0>         0.0000
      4 O2          1.2950   -1.4269   -2.6389 O.co2     1 <0>         0.0000
      5 H1         -0.8883   -0.7483   -0.9083 H         1 <0>         0.0000
      6 H2          0.3901   -0.2231    0.2063 H         1 <0>         0.0000
      7 H3          0.3659   -1.8977   -0.3813 H         1 <0>         0.0000
@<TRIPOS>BOND
     1    1    2 1
     2    1    3 1
     3    1    4 2
     4    2    5 1
     5    2    6 1
     6    2    7 1
