@<TRIPOS>MOLECULE
*****
   40    42     0     0     0
SMALL
NO_CHARGES

@<TRIPOS>ATOM
      1 C1          2.4434   -2.2103    1.7837 C.ar      1 <0>         0.0000
      2 C2          2.3203   -0.4767    0.1054 C.ar      1 <0>         0.0000
      3 C3          3.4015   -5.7885   -0.0171 C.ar      1 <0>         0.0000
      4 C4          1.8636   -4.3783   -1.2350 C.ar      1 <0>         0.0000
      5 C5          1.3651   -1.6356    2.4564 C.ar      1 <0>         0.0000
      6 C6          1.2420    0.0980    0.7781 C.ar      1 <0>         0.0000
      7 C7          2.4664   -6.8234   -0.0347 C.ar      1 <0>         0.0000
      8 C8          0.9286   -5.4132   -1.2527 C.ar      1 <0>         0.0000
      9 C9          2.9210   -1.6309    0.6081 C.ar      1 <0>         0.0000
     10 C10         3.1001   -4.5660   -0.6172 C.ar      1 <0>         0.0000
     11 C11         0.7644   -0.4815    1.9537 C.ar      1 <0>         0.0000
     12 C12         1.2300   -6.6357   -0.6525 C.ar      1 <0>         0.0000
     13 C13         4.0314   -2.2217   -0.0846 C.2       1 <0>         0.0000
     14 C14         4.0665   -3.4963   -0.5990 C.2       1 <0>         0.0000
     15 C15         5.9584   -2.4270   -0.9649 C.2       1 <0>         0.0000
     16 C16        -0.7255   -0.5644    3.8054 C.3       1 <0>         0.0000
     17 C17        -0.9263   -7.3858   -1.3185 C.3       1 <0>         0.0000
     18 C18         7.3338   -2.2171   -1.4531 C.3       1 <0>         0.0000
     19 N1          5.2120   -1.5612   -0.3159 N.2       1 <0>         0.0000
     20 N2          5.3069   -3.6131   -1.1602 N.pl3     1 <0>         0.0000
     21 O1         -0.2879    0.0795    2.6098 O.3       1 <0>         0.0000
     22 O2          0.3176   -7.6456   -0.6698 O.3       1 <0>         0.0000
     23 F1          7.8466   -0.9736   -1.1784 F         1 <0>         0.0000
     24 F2          8.2565   -3.0889   -0.9307 F         1 <0>         0.0000
     25 F3          7.4530   -2.3530   -2.8127 F         1 <0>         0.0000
     26 H1          2.9009   -3.1101    2.1882 H         1 <0>         0.0000
     27 H2          2.6812   -0.0127   -0.8095 H         1 <0>         0.0000
     28 H3          4.3609   -5.9503    0.4685 H         1 <0>         0.0000
     29 H4          1.6137   -3.4312   -1.7072 H         1 <0>         0.0000
     30 H5          0.9971   -2.0912    3.3717 H         1 <0>         0.0000
     31 H6          0.7790    0.9975    0.3815 H         1 <0>         0.0000
     32 H7          2.7069   -7.7735    0.4345 H         1 <0>         0.0000
     33 H8         -0.0329   -5.2611   -1.7355 H         1 <0>         0.0000
     34 H9         -1.5704   -0.0149    4.2278 H         1 <0>         0.0000
     35 H10         0.0970   -0.5980    4.5242 H         1 <0>         0.0000
     36 H11        -1.0395   -1.5832    3.5661 H         1 <0>         0.0000
     37 H12        -1.5611   -8.2734   -1.2598 H         1 <0>         0.0000
     38 H13        -0.7452   -7.1227   -2.3637 H         1 <0>         0.0000
     39 H14        -1.4222   -6.5522   -0.8157 H         1 <0>         0.0000
     40 H15         5.6776   -4.4270   -1.6334 H         1 <0>         0.0000
@<TRIPOS>BOND
     1    1    5 ar
     2    1    9 ar
     3    1   26 1
     4    2    6 ar
     5    2    9 ar
     6    2   27 1
     7    3    7 ar
     8    3   10 ar
     9    3   28 1
    10    4    8 ar
    11    4   10 ar
    12    4   29 1
    13    5   11 ar
    14    5   30 1
    15    6   11 ar
    16    6   31 1
    17    7   12 ar
    18    7   32 1
    19    8   12 ar
    20    8   33 1
    21    9   13 1
    22   10   14 1
    23   11   21 1
    24   12   22 1
    25   13   14 2
    26   13   19 1
    27   14   20 1
    28   15   18 1
    29   15   19 2
    30   15   20 1
    31   16   21 1
    32   16   34 1
    33   16   35 1
    34   16   36 1
    35   17   22 1
    36   17   37 1
    37   17   38 1
    38   17   39 1
    39   18   23 1
    40   18   24 1
    41   18   25 1
    42   20   40 1
