@<TRIPOS>MOLECULE
*****
   27    29     0     0     0
SMALL
NO_CHARGES

@<TRIPOS>ATOM
      1 C1         -0.2098    5.2244    0.4273 C.ar      1 <0>         0.0000
      2 C2          0.0503    4.2266   -0.5451 C.ar      1 <0>         0.0000
      3 C3         -0.3792    1.8138    3.8917 C.ar      1 <0>         0.0000
      4 C4         -0.3692    4.8706    1.7504 C.ar      1 <0>         0.0000
      5 C5          0.1481    2.8987   -0.1808 C.ar      1 <0>         0.0000
      6 C6         -0.4562    3.1361    3.5193 C.ar      1 <0>         0.0000
      7 C7         -0.1135    0.8121    2.9229 C.ar      1 <0>         0.0000
      8 C8         -0.2792    3.5114    2.1585 C.ar      1 <0>         0.0000
      9 C9         -0.0137    2.4998    1.1775 C.ar      1 <0>         0.0000
     10 C10         0.0733    1.1267    1.5906 C.ar      1 <0>         0.0000
     11 C11         0.7111   -1.3823    0.9719 C.3       1 <0>         0.0000
     12 C12         1.8912   -1.2639   -0.0237 C.3       1 <0>         0.0000
     13 C13         0.3278    0.0611    0.5529 C.3       1 <0>         0.0000
     14 N1          1.6042    0.1899   -0.2494 N.3       1 <0>         0.0000
     15 H1         -0.2822    6.2665    0.1265 H         1 <0>         0.0000
     16 H2          0.1773    4.5117   -1.5863 H         1 <0>         0.0000
     17 H3         -0.5224    1.5268    4.9304 H         1 <0>         0.0000
     18 H4         -0.5697    5.6301    2.5030 H         1 <0>         0.0000
     19 H5          0.3728    2.1485   -0.9319 H         1 <0>         0.0000
     20 H6         -0.6576    3.9089    4.2577 H         1 <0>         0.0000
     21 H7         -0.0698   -0.2232    3.2464 H         1 <0>         0.0000
     22 H8         -0.0341   -2.1582    0.7766 H         1 <0>         0.0000
     23 H9          1.0495   -1.4645    2.0072 H         1 <0>         0.0000
     24 H10         2.8854   -1.4769    0.3815 H         1 <0>         0.0000
     25 H11         1.7614   -1.8369   -0.9476 H         1 <0>         0.0000
     26 H12        -0.5154    0.0537   -0.1504 H         1 <0>         0.0000
     27 H13         2.2688    0.7647    0.2670 H         1 <0>         0.0000
@<TRIPOS>BOND
     1    1    2 ar
     2    1    4 ar
     3    1   15 1
     4    2    5 ar
     5    2   16 1
     6    3    6 ar
     7    3    7 ar
     8    3   17 1
     9    4    8 ar
    10    4   18 1
    11    5    9 ar
    12    5   19 1
    13    6    8 ar
    14    6   20 1
    15    7   10 ar
    16    7   21 1
    17    8    9 ar
    18    9   10 ar
    19   10   13 1
    20   11   12 1
    21   11   13 1
    22   11   22 1
    23   11   23 1
    24   12   14 1
    25   12   24 1
    26   12   25 1
    27   13   14 1
    28   13   26 1
    29   14   27 1
