@<TRIPOS>MOLECULE
*****
   34    35     0     0     0
SMALL
NO_CHARGES

@<TRIPOS>ATOM
      1 C1          2.2109   -1.9458   -0.4450 C.2       1 <0>         0.0000
      2 C2          0.8242    1.4839   -0.7005 C.3       1 <0>         0.0000
      3 C3         -2.2607    0.0597    0.7411 C.3       1 <0>         0.0000
      4 C4          1.8923    0.4962   -0.2134 C.3       1 <0>         0.0000
      5 C5          0.1032   -1.0439    0.6587 C.3       1 <0>         0.0000
      6 C6         -0.9198   -0.0957    0.0676 C.3       1 <0>         0.0000
      7 C7         -0.4218    1.3322    0.1491 C.3       1 <0>         0.0000
      8 C8         -2.7282    1.3899    0.1323 C.3       1 <0>         0.0000
      9 C9         -3.5515    2.2282    1.0925 C.3       1 <0>         0.0000
     10 C10         2.1240   -5.6181   -0.5542 C.3       1 <0>         0.0000
     11 C11         1.6499   -3.3343   -0.2676 C.3       1 <0>         0.0000
     12 N1          1.3904   -0.8836   -0.0556 N.am      1 <0>         0.0000
     13 O1          3.3420   -1.8091   -0.9184 O.2       1 <0>         0.0000
     14 O2         -1.5383    2.1227   -0.2581 O.3       1 <0>         0.0000
     15 O3          2.6021   -4.2842   -0.6995 O.3       1 <0>         0.0000
     16 H1          1.1986    2.5122   -0.6430 H         1 <0>         0.0000
     17 H2          0.5911    1.3040   -1.7573 H         1 <0>         0.0000
     18 H3         -2.9529   -0.7602    0.5284 H         1 <0>         0.0000
     19 H4         -2.1464    0.1340    1.8293 H         1 <0>         0.0000
     20 H5          2.7478    0.5176   -0.8963 H         1 <0>         0.0000
     21 H6          2.2599    0.8045    0.7731 H         1 <0>         0.0000
     22 H7          0.2949   -0.8208    1.7149 H         1 <0>         0.0000
     23 H8         -0.2688   -2.0685    0.6032 H         1 <0>         0.0000
     24 H9         -1.1019   -0.3757   -0.9811 H         1 <0>         0.0000
     25 H10        -0.1876    1.6140    1.1857 H         1 <0>         0.0000
     26 H11        -3.3004    1.2061   -0.7843 H         1 <0>         0.0000
     27 H12        -2.9889    2.4166    2.0095 H         1 <0>         0.0000
     28 H13        -4.4767    1.7089    1.3516 H         1 <0>         0.0000
     29 H14        -3.8058    3.1873    0.6361 H         1 <0>         0.0000
     30 H15         2.8881   -6.3193   -0.8984 H         1 <0>         0.0000
     31 H16         1.2091   -5.7438   -1.1387 H         1 <0>         0.0000
     32 H17         1.9090   -5.8058    0.5004 H         1 <0>         0.0000
     33 H18         0.7396   -3.4381   -0.8509 H         1 <0>         0.0000
     34 H19         1.4332   -3.4968    0.7841 H         1 <0>         0.0000
@<TRIPOS>BOND
     1    1   11 1
     2    1   12 am
     3    1   13 2
     4    2    4 1
     5    2    7 1
     6    2   16 1
     7    2   17 1
     8    3    6 1
     9    3    8 1
    10    3   18 1
    11    3   19 1
    12    4   12 1
    13    4   20 1
    14    4   21 1
    15    5    6 1
    16    5   12 1
    17    5   22 1
    18    5   23 1
    19    6    7 1
    20    6   24 1
    21    7   14 1
    22    7   25 1
    23    8    9 1
    24    8   14 1
    25    8   26 1
    26    9   27 1
    27    9   28 1
    28    9   29 1
    29   10   15 1
    30   10   30 1
    31   10   31 1
    32   10   32 1
    33   11   15 1
    34   11   33 1
    35   11   34 1
