@<TRIPOS>MOLECULE
*****
   23    23     0     0     0
SMALL
NO_CHARGES

@<TRIPOS>ATOM
      1 C1          2.4017   -3.5580    4.3259 C.1       1 <0>         0.0000
      2 C2          1.4505   -1.1532    0.0327 C.ar      1 <0>         0.0000
      3 C3          0.5943   -0.3367    0.7611 C.ar      1 <0>         0.0000
      4 C4          1.9230   -0.7865    2.7600 C.ar      1 <0>         0.0000
      5 C5          2.7836   -1.6283    2.0450 C.ar      1 <0>         0.0000
      6 C6          2.5151   -1.8010    0.6707 C.ar      1 <0>         0.0000
      7 C7          0.8527   -0.1750    2.1200 C.ar      1 <0>         0.0000
      8 C8          3.5226   -3.6475    3.3820 C.3       1 <0>         0.0000
      9 C9          3.9423   -2.2732    2.8021 C.3       1 <0>         0.0000
     10 N1          1.5032   -3.4907    5.0606 N.1       1 <0>         0.0000
     11 N2          4.3593   -1.3975    3.9047 N.3       1 <0>         0.0000
     12 N3          3.3345   -2.6699   -0.1841 N.pl3     1 <0>         0.0000
     13 O1          3.3872   -2.4089   -1.3897 O.3       1 <0>         0.0000
     14 O2          3.9163   -3.6316    0.3418 O.2       1 <0>         0.0000
     15 F1          0.0349    0.6164    2.8435 F         1 <0>         0.0000
     16 H1          1.3038   -1.3066   -1.0298 H         1 <0>         0.0000
     17 H2         -0.2496    0.1645    0.2987 H         1 <0>         0.0000
     18 H3          2.0969   -0.6185    3.8165 H         1 <0>         0.0000
     19 H4          4.3774   -4.0974    3.8994 H         1 <0>         0.0000
     20 H5          3.2496   -4.3151    2.5629 H         1 <0>         0.0000
     21 H6          4.7517   -2.4886    2.0980 H         1 <0>         0.0000
     22 H7          4.7747   -0.5443    3.5342 H         1 <0>         0.0000
     23 H8          5.0784   -1.8603    4.4582 H         1 <0>         0.0000
@<TRIPOS>BOND
     1    1    8 1
     2    1   10 3
     3    2    3 ar
     4    2    6 ar
     5    2   16 1
     6    3    7 ar
     7    3   17 1
     8    4    5 ar
     9    4    7 ar
    10    4   18 1
    11    5    6 ar
    12    5    9 1
    13    6   12 1
    14    7   15 1
    15    8    9 1
    16    8   19 1
    17    8   20 1
    18    9   11 1
    19    9   21 1
    20   11   22 1
    21   11   23 1
    22   12   13 1
    23   12   14 2
