@<TRIPOS>MOLECULE
*****
   20    20     0     0     0
SMALL
NO_CHARGES

@<TRIPOS>ATOM
      1 C1         -1.1850    0.7800    0.4540 C.ar      1 <0>         0.0000
      2 C2         -0.6020    0.8930   -0.8120 C.ar      1 <0>         0.0000
      3 C3         -0.5960   -0.0340    1.4260 C.ar      1 <0>         0.0000
      4 C4          0.5550    0.1770   -1.1040 C.ar      1 <0>         0.0000
      5 C5          0.5620   -0.7450    1.1220 C.ar      1 <0>         0.0000
      6 C6          1.1070   -0.6560   -0.1470 C.ar      1 <0>         0.0000
      7 C7          2.3760   -3.0870   -1.1140 C.3       1 <0>         0.0000
      8 N1          3.5150   -1.5550    0.8960 N.2       1 <0>         0.0000
      9 N2          3.4690   -0.5810   -1.5990 N.2       1 <0>         0.0000
     10 S1          2.6080   -1.4780   -0.4940 S.3       1 <0>         0.0000
     11 H1         -2.0660    1.3280    0.6830 H         1 <0>         0.0000
     12 H2         -1.0220    1.5320   -1.5500 H         1 <0>         0.0000
     13 H3         -1.0120   -0.1040    2.4010 H         1 <0>         0.0000
     14 H4          1.0760    0.2620   -2.0310 H         1 <0>         0.0000
     15 H5          1.0860   -1.3390    1.8350 H         1 <0>         0.0000
     16 H6          1.8700   -3.7350   -0.4230 H         1 <0>         0.0000
     17 H7          3.3280   -3.5530   -1.3050 H         1 <0>         0.0000
     18 H8          1.8470   -3.1060   -2.0490 H         1 <0>         0.0000
     19 H9          4.1560   -0.7870    0.7630 H         1 <0>         0.0000
     20 H10         4.4140   -0.6820   -1.2580 H         1 <0>         0.0000
@<TRIPOS>BOND
     1    1    2 ar
     2    1    3 ar
     3    1   11 1
     4    2    4 ar
     5    2   12 1
     6    3    5 ar
     7    3   13 1
     8    4    6 ar
     9    4   14 1
    10    5    6 ar
    11    5   15 1
    12    6   10 1
    13    7   10 1
    14    7   16 1
    15    7   17 1
    16    7   18 1
    17    8   10 2
    18    8   19 1
    19    9   10 2
    20    9   20 1
