@<TRIPOS>MOLECULE
*****
   32    32     0     0     0
SMALL
NO_CHARGES

@<TRIPOS>ATOM
      1 C1          1.1254   -1.4178   -5.5321 C.ar      1 <0>         0.0000
      2 C2         -0.0308   -0.8097   -6.0233 C.ar      1 <0>         0.0000
      3 C3          1.4196   -1.3823   -4.1665 C.ar      1 <0>         0.0000
      4 C4         -0.5979   -0.1010   -3.7884 C.ar      1 <0>         0.0000
      5 C5         -0.9072   -0.1460   -5.1520 C.ar      1 <0>         0.0000
      6 C6          0.5551   -0.7181   -3.2876 C.ar      1 <0>         0.0000
      7 C7         -0.0923   -0.8385   -0.9426 C.2       1 <0>         0.0000
      8 C8         -3.3794   -0.5077   -5.5481 C.3       1 <0>         0.0000
      9 C9          3.1525   -1.4443   -1.1307 C.3       1 <0>         0.0000
     10 C10        -2.1933    0.4677   -5.6593 C.3       1 <0>         0.0000
     11 C11         0.2452   -0.5473    0.5287 C.3       1 <0>         0.0000
     12 C12         2.2539   -0.2604   -1.5091 C.3       1 <0>         0.0000
     13 N1          0.8749   -0.6212   -1.8903 N.am      1 <0>         0.0000
     14 O1         -1.2352   -1.2230   -1.2050 O.2       1 <0>         0.0000
     15 O2         -0.8438   -0.8955    1.3478 O.3       1 <0>         0.0000
     16 H1          1.8011   -1.9316   -6.2110 H         1 <0>         0.0000
     17 H2         -0.2554   -0.8486   -7.0869 H         1 <0>         0.0000
     18 H3          2.3106   -1.8768   -3.7966 H         1 <0>         0.0000
     19 H4         -1.2668    0.4109   -3.1050 H         1 <0>         0.0000
     20 H5         -3.1947   -1.4135   -6.1351 H         1 <0>         0.0000
     21 H6         -4.3024   -0.0446   -5.9138 H         1 <0>         0.0000
     22 H7         -3.5353   -0.8124   -4.5085 H         1 <0>         0.0000
     23 H8          2.7278   -2.0271   -0.3093 H         1 <0>         0.0000
     24 H9          3.3073   -2.1227   -1.9726 H         1 <0>         0.0000
     25 H10         4.1321   -1.0734   -0.8105 H         1 <0>         0.0000
     26 H11        -2.4184    1.3761   -5.0890 H         1 <0>         0.0000
     27 H12        -2.0685    0.7741   -6.7040 H         1 <0>         0.0000
     28 H13         1.1356   -1.1013    0.8456 H         1 <0>         0.0000
     29 H14         0.4701    0.5261    0.6271 H         1 <0>         0.0000
     30 H15         2.6836    0.2804   -2.3549 H         1 <0>         0.0000
     31 H16         2.2142    0.4517   -0.6804 H         1 <0>         0.0000
     32 H17        -1.5515   -1.1702    0.7274 H         1 <0>         0.0000
@<TRIPOS>BOND
     1    1    2 ar
     2    1    3 ar
     3    1   16 1
     4    2    5 ar
     5    2   17 1
     6    3    6 ar
     7    3   18 1
     8    4    5 ar
     9    4    6 ar
    10    4   19 1
    11    5   10 1
    12    6   13 1
    13    7   11 1
    14    7   13 am
    15    7   14 2
    16    8   10 1
    17    8   20 1
    18    8   21 1
    19    8   22 1
    20    9   12 1
    21    9   23 1
    22    9   24 1
    23    9   25 1
    24   10   26 1
    25   10   27 1
    26   11   15 1
    27   11   28 1
    28   11   29 1
    29   12   13 1
    30   12   30 1
    31   12   31 1
    32   15   32 1
