@<TRIPOS>MOLECULE
*****
   42    44     0     0     0
SMALL
NO_CHARGES

@<TRIPOS>ATOM
      1 C1          3.6030   -0.8550    1.0510 C.1       1 <0>         0.0000
      2 C2          2.6019   -1.2365    0.4777 C.1       1 <0>         0.0000
      3 C3          6.9915    0.6233    3.1300 C.ar      1 <0>         0.0000
      4 C4         -0.9781   -4.5444   -3.5437 C.ar      1 <0>         0.0000
      5 C5          6.6977   -0.7451    3.1536 C.ar      1 <0>         0.0000
      6 C6          6.1647    1.4997    2.4176 C.ar      1 <0>         0.0000
      7 C7         -0.3062   -3.3824   -3.9306 C.ar      1 <0>         0.0000
      8 C8         -1.6692   -4.5641   -2.3266 C.ar      1 <0>         0.0000
      9 C9          5.5853   -1.2379    2.4712 C.ar      1 <0>         0.0000
     10 C10         5.0515    1.0148    1.7305 C.ar      1 <0>         0.0000
     11 C11        -0.3184   -2.2523   -3.1053 C.ar      1 <0>         0.0000
     12 C12        -1.6751   -3.4349   -1.5081 C.ar      1 <0>         0.0000
     13 C13         4.7500   -0.3617    1.7505 C.ar      1 <0>         0.0000
     14 C14        -0.9938   -2.2648   -1.8772 C.ar      1 <0>         0.0000
     15 C15        -0.3343    1.1425   -0.3201 C.2       1 <0>         0.0000
     16 C16        -0.7926    0.3145   -1.5155 C.3       1 <0>         0.0000
     17 C17        -0.9927   -1.0894   -0.9243 C.3       1 <0>         0.0000
     18 C18         0.0781   -1.1302    0.2157 C.3       1 <0>         0.0000
     19 C19         0.5075    0.6947    1.9650 C.3       1 <0>         0.0000
     20 C20         1.4302   -1.7258   -0.2607 C.3       1 <0>         0.0000
     21 N1          0.1510    0.2674    0.6215 N.am      1 <0>         0.0000
     22 O1         -0.3889    2.3622   -0.2050 O.2       1 <0>         0.0000
     23 O2          1.2771   -3.1432   -0.1323 O.3       1 <0>         0.0000
     24 H1          7.8583    1.0041    3.6635 H         1 <0>         0.0000
     25 H2         -0.9730   -5.4209   -4.1865 H         1 <0>         0.0000
     26 H3          7.3366   -1.4284    3.7069 H         1 <0>         0.0000
     27 H4          6.3884    2.5630    2.3974 H         1 <0>         0.0000
     28 H5          0.2221   -3.3491   -4.8803 H         1 <0>         0.0000
     29 H6         -2.2018   -5.4597   -2.0169 H         1 <0>         0.0000
     30 H7          5.3518   -2.2985    2.4899 H         1 <0>         0.0000
     31 H8          4.4078    1.6910    1.1753 H         1 <0>         0.0000
     32 H9          0.1987   -1.3575   -3.4393 H         1 <0>         0.0000
     33 H10        -2.2047   -3.4640   -0.5581 H         1 <0>         0.0000
     34 H11        -1.6972    0.7403   -1.9523 H         1 <0>         0.0000
     35 H12        -0.0086    0.3535   -2.2782 H         1 <0>         0.0000
     36 H13        -1.9592   -1.0824   -0.4084 H         1 <0>         0.0000
     37 H14        -0.2527   -1.7524    1.0538 H         1 <0>         0.0000
     38 H15        -0.1091    0.1673    2.7032 H         1 <0>         0.0000
     39 H16         0.3121    1.7663    2.0310 H         1 <0>         0.0000
     40 H17         1.5596    0.5034    2.1844 H         1 <0>         0.0000
     41 H18         1.5721   -1.4572   -1.3174 H         1 <0>         0.0000
     42 H19         1.9937   -3.5726   -0.6253 H         1 <0>         0.0000
@<TRIPOS>BOND
     1    1    2 3
     2    1   13 1
     3    2   20 1
     4    3    6 ar
     5    3    5 ar
     6    3   24 1
     7    4    8 ar
     8    4    7 ar
     9    4   25 1
    10    5    9 ar
    11    5   26 1
    12    6   10 ar
    13    6   27 1
    14    7   11 ar
    15    7   28 1
    16    8   12 ar
    17    8   29 1
    18    9   13 ar
    19    9   30 1
    20   10   13 ar
    21   10   31 1
    22   11   14 ar
    23   11   32 1
    24   12   14 ar
    25   12   33 1
    26   14   17 1
    27   15   16 1
    28   15   21 am
    29   15   22 2
    30   16   17 1
    31   16   34 1
    32   16   35 1
    33   17   18 1
    34   17   36 1
    35   18   20 1
    36   18   21 1
    37   18   37 1
    38   19   21 1
    39   19   38 1
    40   19   39 1
    41   19   40 1
    42   20   23 1
    43   20   41 1
    44   23   42 1
