@<TRIPOS>MOLECULE
*****
   51    54     0     0     0
SMALL
NO_CHARGES

@<TRIPOS>ATOM
      1 C1         -7.9684   -8.5497  -11.7573 C.ar      1 <0>         0.0000
      2 C2         -7.3637   -9.4752  -10.8652 C.ar      1 <0>         0.0000
      3 C3         -7.5805   -7.2265  -11.7530 C.ar      1 <0>         0.0000
      4 C4         -6.1266   -5.4302  -10.8006 C.ar      1 <0>         0.0000
      5 C5         -1.0655   -1.9577   -6.4196 C.ar      1 <0>         0.0000
      6 C6         -0.5409   -4.1310   -5.5250 C.ar      1 <0>         0.0000
      7 C7         -6.3837   -9.0659   -9.9852 C.ar      1 <0>         0.0000
      8 C8         -2.0374   -2.5269   -7.2379 C.ar      1 <0>         0.0000
      9 C9         -1.5145   -4.7145   -6.3409 C.ar      1 <0>         0.0000
     10 C10        -5.1444   -5.0740   -9.9039 C.ar      1 <0>         0.0000
     11 C11        -6.5729   -6.7755  -10.8576 C.ar      1 <0>         0.0000
     12 C12        -0.3057   -2.7524   -5.5493 C.ar      1 <0>         0.0000
     13 C13        -5.9633   -7.7082   -9.9586 C.ar      1 <0>         0.0000
     14 C14        -2.2698   -3.9088   -7.2036 C.ar      1 <0>         0.0000
     15 C15        -4.6042   -6.0772   -9.0547 C.ar      1 <0>         0.0000
     16 C16         2.0711   -2.8729   -4.7862 C.2       1 <0>         0.0000
     17 C17        -0.9905   -0.9260   -1.4423 C.3       1 <0>         0.0000
     18 C18         0.3309   -1.4687   -0.8601 C.3       1 <0>         0.0000
     19 C19        -1.1051   -1.5467   -2.8624 C.3       1 <0>         0.0000
     20 C20         1.2294   -1.6280   -2.0945 C.3       1 <0>         0.0000
     21 C21         0.2646   -2.2235   -3.1410 C.3       1 <0>         0.0000
     22 C22        -3.5122   -5.7721   -8.0523 C.3       1 <0>         0.0000
     23 C23         0.7226   -2.1247   -4.6090 C.3       1 <0>         0.0000
     24 N1         -4.9916   -7.3394   -9.0742 N.ar      1 <0>         0.0000
     25 O1          2.3135   -3.9430   -4.2712 O.2       1 <0>         0.0000
     26 O2          2.9559   -2.2426   -5.5842 O.3       1 <0>         0.0000
     27 O3          0.9086   -0.7537   -5.0187 O.3       1 <0>         0.0000
     28 O4         -3.2457   -4.3730   -8.0451 O.3       1 <0>         0.0000
     29 H1         -8.7389   -8.8908  -12.4437 H         1 <0>         0.0000
     30 H2         -7.6793  -10.5152  -10.8799 H         1 <0>         0.0000
     31 H3         -8.0401   -6.5134  -12.4339 H         1 <0>         0.0000
     32 H4         -6.5650   -4.6906  -11.4674 H         1 <0>         0.0000
     33 H5         -0.8935   -0.8882   -6.4531 H         1 <0>         0.0000
     34 H6          0.0494   -4.7684   -4.8738 H         1 <0>         0.0000
     35 H7         -5.9098   -9.7588   -9.2960 H         1 <0>         0.0000
     36 H8         -2.6279   -1.9144   -7.9132 H         1 <0>         0.0000
     37 H9         -1.6652   -5.7868   -6.2950 H         1 <0>         0.0000
     38 H10        -4.7775   -4.0573   -9.8298 H         1 <0>         0.0000
     39 H11        -1.8515   -1.1621   -0.8105 H         1 <0>         0.0000
     40 H12        -0.9390    0.1665   -1.5124 H         1 <0>         0.0000
     41 H13         0.7625   -0.8173   -0.0941 H         1 <0>         0.0000
     42 H14         0.1703   -2.4521   -0.4026 H         1 <0>         0.0000
     43 H15        -1.9128   -2.2793   -2.9285 H         1 <0>         0.0000
     44 H16        -1.3227   -0.7786   -3.6096 H         1 <0>         0.0000
     45 H17         1.5972   -0.6326   -2.3923 H         1 <0>         0.0000
     46 H18         2.1059   -2.2595   -1.9293 H         1 <0>         0.0000
     47 H19         0.1874   -3.2920   -2.9265 H         1 <0>         0.0000
     48 H20        -3.8339   -6.1105   -7.0597 H         1 <0>         0.0000
     49 H21        -2.6092   -6.3332   -8.3253 H         1 <0>         0.0000
     50 H22         2.5357   -1.3954   -5.8465 H         1 <0>         0.0000
     51 H23         1.1686   -0.2421   -4.2352 H         1 <0>         0.0000
@<TRIPOS>BOND
     1    1    2 ar
     2    1    3 ar
     3    1   29 1
     4    2    7 ar
     5    2   30 1
     6    3   11 ar
     7    3   31 1
     8    4   10 ar
     9    4   11 ar
    10    4   32 1
    11    5    8 ar
    12    5   12 ar
    13    5   33 1
    14    6    9 ar
    15    6   12 ar
    16    6   34 1
    17    7   13 ar
    18    7   35 1
    19    8   14 ar
    20    8   36 1
    21    9   14 ar
    22    9   37 1
    23   10   15 ar
    24   10   38 1
    25   11   13 ar
    26   12   23 1
    27   13   24 ar
    28   14   28 1
    29   15   22 1
    30   15   24 ar
    31   16   23 1
    32   16   25 2
    33   16   26 1
    34   17   18 1
    35   17   19 1
    36   17   39 1
    37   17   40 1
    38   18   20 1
    39   18   41 1
    40   18   42 1
    41   19   21 1
    42   19   43 1
    43   19   44 1
    44   20   21 1
    45   20   45 1
    46   20   46 1
    47   21   23 1
    48   21   47 1
    49   22   28 1
    50   22   48 1
    51   22   49 1
    52   23   27 1
    53   26   50 1
    54   27   51 1
