@<TRIPOS>MOLECULE
*****
   27    28     0     0     0
SMALL
NO_CHARGES

@<TRIPOS>ATOM
      1 C1         -1.6855   -1.0079   -1.0294 C.ar      1 <0>         0.0000
      2 C2         -0.5090   -0.9587   -0.2811 C.ar      1 <0>         0.0000
      3 C3         -2.2516   -2.2536   -1.3747 C.ar      1 <0>         0.0000
      4 C4          1.2380   -3.9180    0.8846 C.2       1 <0>         0.0000
      5 C5          0.1793   -4.5010    0.2249 C.2       1 <0>         0.0000
      6 C6         -0.6037   -3.4072   -0.2981 C.ar      1 <0>         0.0000
      7 C7          0.0360   -2.1886    0.0873 C.ar      1 <0>         0.0000
      8 C8         -0.0775   -5.9763    0.0976 C.3       1 <0>         0.0000
      9 C9          0.3277   -8.0343   -1.3010 C.3       1 <0>         0.0000
     10 C10         0.0491   -6.5320   -1.3347 C.3       1 <0>         0.0000
     11 N1         -1.7367   -3.4358   -1.0291 N.ar      1 <0>         0.0000
     12 N2          1.1611   -2.5312    0.8069 N.pl3     1 <0>         0.0000
     13 N3         -1.2061   -6.3333   -2.0753 N.3       1 <0>         0.0000
     14 O1          1.6249   -8.2507   -0.7244 O.3       1 <0>         0.0000
     15 H1         -2.1714   -0.0928   -1.3546 H         1 <0>         0.0000
     16 H2         -0.0493   -0.0122   -0.0061 H         1 <0>         0.0000
     17 H3         -3.1672   -2.2824   -1.9631 H         1 <0>         0.0000
     18 H4          2.0542   -4.3930    1.4135 H         1 <0>         0.0000
     19 H5          0.6365   -6.5079    0.7327 H         1 <0>         0.0000
     20 H6         -1.0849   -6.2178    0.4599 H         1 <0>         0.0000
     21 H7          0.2894   -8.4303   -2.3264 H         1 <0>         0.0000
     22 H8         -0.4586   -8.5316   -0.7158 H         1 <0>         0.0000
     23 H9          0.9181   -6.0472   -1.8088 H         1 <0>         0.0000
     24 H10         1.8179   -1.8860    1.2212 H         1 <0>         0.0000
     25 H11        -1.0303   -6.3837   -3.0772 H         1 <0>         0.0000
     26 H12        -1.5853   -5.4037   -1.8831 H         1 <0>         0.0000
     27 H13         1.7708   -9.2063   -0.6633 H         1 <0>         0.0000
@<TRIPOS>BOND
     1    1    2 ar
     2    1    3 ar
     3    1   15 1
     4    2    7 ar
     5    2   16 1
     6    3   11 ar
     7    3   17 1
     8    4    5 2
     9    4   12 1
    10    4   18 1
    11    5    6 1
    12    5    8 1
    13    6    7 ar
    14    6   11 ar
    15    7   12 1
    16    8   10 1
    17    8   19 1
    18    8   20 1
    19    9   10 1
    20    9   14 1
    21    9   21 1
    22    9   22 1
    23   10   13 1
    24   10   23 1
    25   12   24 1
    26   13   25 1
    27   13   26 1
    28   14   27 1
