@<TRIPOS>MOLECULE
*****
   28    29     0     0     0
SMALL
NO_CHARGES

@<TRIPOS>ATOM
      1 C1         -2.3492   -1.3984   -0.5872 C.ar      1 <0>         0.0000
      2 C2         -1.1473   -1.0818    0.0510 C.ar      1 <0>         0.0000
      3 C3         -2.5877   -2.7033   -1.0491 C.ar      1 <0>         0.0000
      4 C4          1.5081   -3.4809    0.6372 C.2       1 <0>         0.0000
      5 C5          0.5750   -4.2852    0.0123 C.2       1 <0>         0.0000
      6 C6         -0.5379   -3.4258   -0.2738 C.ar      1 <0>         0.0000
      7 C7         -0.2301   -2.1200    0.2044 C.ar      1 <0>         0.0000
      8 C8          0.6939   -5.7640   -0.2455 C.3       1 <0>         0.0000
      9 C9          0.6770   -7.6437   -1.9680 C.3       1 <0>         0.0000
     10 C10         0.2179   -6.2226   -1.6313 C.3       1 <0>         0.0000
     11 N1         -1.7046   -3.7016   -0.9019 N.ar      1 <0>         0.0000
     12 N2          1.0302   -2.1901    0.7583 N.pl3     1 <0>         0.0000
     13 N3         -1.2883   -6.1544   -1.7074 N.4       1 <0>         0.0000
     14 O1          2.0927   -7.6050   -1.9952 O.3       1 <0>         0.0000
     15 H1         -3.1081   -0.6386   -0.7391 H         1 <0>         0.0000
     16 H2         -0.9480   -0.0736    0.4036 H         1 <0>         0.0000
     17 H3         -3.5175   -2.9471   -1.5554 H         1 <0>         0.0000
     18 H4          2.4888   -3.7411    1.0146 H         1 <0>         0.0000
     19 H5          0.1452   -6.3347    0.5186 H         1 <0>         0.0000
     20 H6          1.7397   -6.0668   -0.1589 H         1 <0>         0.0000
     21 H7          0.3031   -8.3464   -1.2056 H         1 <0>         0.0000
     22 H8          0.2620   -7.9427   -2.9427 H         1 <0>         0.0000
     23 H9          0.5925   -5.5396   -2.3983 H         1 <0>         0.0000
     24 H10         1.5386   -1.4196    1.1728 H         1 <0>         0.0000
     25 H11        -1.6247   -6.3816   -2.6485 H         1 <0>         0.0000
     26 H12        -1.6434   -5.0912   -1.4111 H         1 <0>         0.0000
     27 H13        -1.7163   -6.8266   -1.0623 H         1 <0>         0.0000
     28 H14         2.4373   -8.4772   -2.2445 H         1 <0>         0.0000
@<TRIPOS>BOND
     1    1    2 ar
     2    1    3 ar
     3    1   15 1
     4    2    7 ar
     5    2   16 1
     6    3   11 ar
     7    3   17 1
     8    4    5 2
     9    4   12 1
    10    4   18 1
    11    5    6 1
    12    5    8 1
    13    6    7 ar
    14    6   11 ar
    15    7   12 1
    16    8   10 1
    17    8   19 1
    18    8   20 1
    19    9   10 1
    20    9   14 1
    21    9   21 1
    22    9   22 1
    23   10   13 1
    24   10   23 1
    25   12   24 1
    26   13   25 1
    27   13   26 1
    28   13   27 1
    29   14   28 1
