@<TRIPOS>MOLECULE
*****
   28    29     0     0     0
SMALL
NO_CHARGES

@<TRIPOS>ATOM
      1 C1         -1.4359   -1.2338   -1.6286 C.ar      1 <0>         0.0000
      2 C2         -0.5680   -1.0852   -0.5439 C.ar      1 <0>         0.0000
      3 C3         -1.8015   -2.5136   -2.0777 C.ar      1 <0>         0.0000
      4 C4          0.8617   -3.8737    1.2812 C.2       1 <0>         0.0000
      5 C5          0.0924   -4.5479    0.3530 C.2       1 <0>         0.0000
      6 C6         -0.5291   -3.5264   -0.4404 C.ar      1 <0>         0.0000
      7 C7         -0.1098   -2.2581    0.0535 C.ar      1 <0>         0.0000
      8 C8         -0.0924   -6.0392    0.2549 C.3       1 <0>         0.0000
      9 C9          0.0976   -8.1291   -1.1933 C.3       1 <0>         0.0000
     10 C10        -0.0588   -6.6063   -1.1712 C.3       1 <0>         0.0000
     11 N1         -1.3598   -3.6416   -1.5028 N.ar      1 <0>         0.0000
     12 N2          0.7403   -2.5081    1.1095 N.pl3     1 <0>         0.0000
     13 N3         -1.3207   -6.2250   -1.9072 N.4       1 <0>         0.0000
     14 O1          1.3495   -8.4065   -0.5917 O.3       1 <0>         0.0000
     15 H1         -1.8313   -0.3630   -2.1401 H         1 <0>         0.0000
     16 H2         -0.2708   -0.1004   -0.1940 H         1 <0>         0.0000
     17 H3         -2.4674   -2.6295   -2.9282 H         1 <0>         0.0000
     18 H4          1.4907   -4.2748    2.0656 H         1 <0>         0.0000
     19 H5         -1.0374   -6.3434    0.7295 H         1 <0>         0.0000
     20 H6          0.7024   -6.5428    0.8094 H         1 <0>         0.0000
     21 H7         -0.7331   -8.5969   -0.6402 H         1 <0>         0.0000
     22 H8          0.0612   -8.4870   -2.2336 H         1 <0>         0.0000
     23 H9          0.7666   -6.1583   -1.7308 H         1 <0>         0.0000
     24 H10         1.2164   -1.8088    1.6647 H         1 <0>         0.0000
     25 H11        -1.2870   -6.5262   -2.8862 H         1 <0>         0.0000
     26 H12        -1.4669   -5.0765   -1.8556 H         1 <0>         0.0000
     27 H13        -2.1396   -6.6710   -1.4810 H         1 <0>         0.0000
     28 H14         1.5165   -9.3622   -0.6138 H         1 <0>         0.0000
@<TRIPOS>BOND
     1    1    2 ar
     2    1    3 ar
     3    1   15 1
     4    2    7 ar
     5    2   16 1
     6    3   11 ar
     7    3   17 1
     8    4    5 2
     9    4   12 1
    10    4   18 1
    11    5    6 1
    12    5    8 1
    13    6    7 ar
    14    6   11 ar
    15    7   12 1
    16    8   10 1
    17    8   19 1
    18    8   20 1
    19    9   10 1
    20    9   14 1
    21    9   21 1
    22    9   22 1
    23   10   13 1
    24   10   23 1
    25   12   24 1
    26   13   25 1
    27   13   26 1
    28   13   27 1
    29   14   28 1
