@<TRIPOS>MOLECULE
*****
   48    48     0     0     0
SMALL
NO_CHARGES

@<TRIPOS>ATOM
      1 C1          0.6282    1.2241   -0.9751 C.2       1 <0>         0.0000
      2 C2         -1.8536    0.5232   -2.9759 C.2       1 <0>         0.0000
      3 C3         -1.7306    1.6344    1.3122 C.3       1 <0>         0.0000
      4 C4         -1.0905    3.0892   -0.3384 C.3       1 <0>         0.0000
      5 C5         -1.6059    0.7619    0.0664 C.3       1 <0>         0.0000
      6 C6         -0.8533    1.6675   -0.9657 C.3       1 <0>         0.0000
      7 C7          3.4999    2.0257   -0.8669 C.3       1 <0>         0.0000
      8 C8          3.0155    2.1881    1.5996 C.3       1 <0>         0.0000
      9 C9          2.9568   -0.0683    0.4830 C.3       1 <0>         0.0000
     10 C10        -0.7581   -2.0091   -3.9764 C.3       1 <0>         0.0000
     11 C11        -1.3672   -2.8556   -1.6881 C.3       1 <0>         0.0000
     12 C12        -3.2027   -2.2364   -3.2986 C.3       1 <0>         0.0000
     13 C13         2.7084    1.4333    0.3035 C.3       1 <0>         0.0000
     14 C14        -1.7755   -1.9228   -2.8327 C.3       1 <0>         0.0000
     15 N1         -1.3854    1.6453   -2.3288 N.am      1 <0>         0.0000
     16 O1         -1.7967    3.9428   -3.5639 O.3       1 <0>         0.0000
     17 O2          1.1089    0.4948   -1.8131 O.2       1 <0>         0.0000
     18 O3         -2.3676    0.5289   -4.0818 O.2       1 <0>         0.0000
     19 O4          0.4190    3.4563   -2.5420 O.2       1 <0>         0.0000
     20 O5         -0.2396    2.3064   -4.6476 O.2       1 <0>         0.0000
     21 O6         -1.9661    2.9286    0.8023 O.3       1 <0>         0.0000
     22 O7          1.2758    1.6896    0.1174 O.3       1 <0>         0.0000
     23 O8         -1.7096   -0.6049   -2.2105 O.3       1 <0>         0.0000
     24 F1         -0.9213   -0.4154    0.4011 F         1 <0>         0.0000
     25 S1         -0.6799    2.9917   -3.4293 S.o2      1 <0>         0.0000
     26 H1         -2.5730    1.3472    1.9484 H         1 <0>         0.0000
     27 H2         -0.7966    1.5748    1.8917 H         1 <0>         0.0000
     28 H3         -0.1473    3.5339   -0.0251 H         1 <0>         0.0000
     29 H4         -1.5976    3.7502   -1.0351 H         1 <0>         0.0000
     30 H5         -2.5791    0.4759   -0.3276 H         1 <0>         0.0000
     31 H6          3.3167    1.4747   -1.7890 H         1 <0>         0.0000
     32 H7          3.2054    3.0660   -1.0316 H         1 <0>         0.0000
     33 H8          4.5707    1.9921   -0.6340 H         1 <0>         0.0000
     34 H9          2.4088    1.7987    2.4235 H         1 <0>         0.0000
     35 H10         2.7939    3.2530    1.4815 H         1 <0>         0.0000
     36 H11         4.0730    2.0767    1.8610 H         1 <0>         0.0000
     37 H12         2.3117   -0.4658    1.2732 H         1 <0>         0.0000
     38 H13         2.7522   -0.6113   -0.4398 H         1 <0>         0.0000
     39 H14         4.0015   -0.2340    0.7708 H         1 <0>         0.0000
     40 H15        -1.0446   -1.3645   -4.8082 H         1 <0>         0.0000
     41 H16         0.2254   -1.6926   -3.6174 H         1 <0>         0.0000
     42 H17        -0.6921   -3.0446   -4.3310 H         1 <0>         0.0000
     43 H18        -2.0604   -2.7594   -0.8470 H         1 <0>         0.0000
     44 H19        -0.3672   -2.5971   -1.3311 H         1 <0>         0.0000
     45 H20        -1.3704   -3.8959   -2.0323 H         1 <0>         0.0000
     46 H21        -3.9055   -2.1138   -2.4669 H         1 <0>         0.0000
     47 H22        -3.4994   -1.5715   -4.1098 H         1 <0>         0.0000
     48 H23        -3.2579   -3.2761   -3.6434 H         1 <0>         0.0000
@<TRIPOS>BOND
     1    1    6 1
     2    1   17 2
     3    1   22 1
     4    2   15 am
     5    2   18 2
     6    2   23 1
     7    3    5 1
     8    3   21 1
     9    3   26 1
    10    3   27 1
    11    4    6 1
    12    4   21 1
    13    4   28 1
    14    4   29 1
    15    5    6 1
    16    5   24 1
    17    5   30 1
    18    6   15 1
    19    7   13 1
    20    7   31 1
    21    7   32 1
    22    7   33 1
    23    8   13 1
    24    8   34 1
    25    8   35 1
    26    8   36 1
    27    9   13 1
    28    9   37 1
    29    9   38 1
    30    9   39 1
    31   10   14 1
    32   10   40 1
    33   10   41 1
    34   10   42 1
    35   11   14 1
    36   11   43 1
    37   11   44 1
    38   11   45 1
    39   12   14 1
    40   12   46 1
    41   12   47 1
    42   12   48 1
    43   13   22 1
    44   14   23 1
    45   15   25 1
    46   16   25 1
    47   19   25 2
    48   20   25 2
