@<TRIPOS>MOLECULE
*****
   16    17     0     0     0
SMALL
NO_CHARGES

@<TRIPOS>ATOM
      1 C1         -1.4907   -0.7576   -0.2538 C.3       1 <0>         0.0000
      2 C2          0.6485   -0.5236   -1.2977 C.3       1 <0>         0.0000
      3 C3         -0.4588   -0.1851    0.6425 C.3       1 <0>         0.0000
      4 C4          0.3068    0.6267   -0.4256 C.3       1 <0>         0.0000
      5 C5          0.2211    1.0835    0.9879 C.3       1 <0>         0.0000
      6 N1         -0.6637   -1.2234   -1.4004 N.3       1 <0>         0.0000
      7 O1          1.4337    0.9762    1.7510 O.3       1 <0>         0.0000
      8 H1         -2.0203   -1.5987    0.2039 H         1 <0>         0.0000
      9 H2         -2.2243   -0.0136   -0.5827 H         1 <0>         0.0000
     10 H3          0.9824   -0.2083   -2.2902 H         1 <0>         0.0000
     11 H4          1.4125   -1.1720   -0.8530 H         1 <0>         0.0000
     12 H5          0.0114   -1.0244    1.1622 H         1 <0>         0.0000
     13 H6         -0.1995    1.3573   -1.0637 H         1 <0>         0.0000
     14 H7         -0.4106    1.9382    1.2016 H         1 <0>         0.0000
     15 H8         -0.4990   -2.2266   -1.3158 H         1 <0>         0.0000
     16 H9          1.1892    0.5358    2.5759 H         1 <0>         0.0000
@<TRIPOS>BOND
     1    1    3 1
     2    1    6 1
     3    1    8 1
     4    1    9 1
     5    2    4 1
     6    2    6 1
     7    2   10 1
     8    2   11 1
     9    3    4 1
    10    3    5 1
    11    3   12 1
    12    4    5 1
    13    4   13 1
    14    5    7 1
    15    5   14 1
    16    6   15 1
    17    7   16 1
