@<TRIPOS>MOLECULE
*****
   36    38     0     0     0
SMALL
NO_CHARGES

@<TRIPOS>ATOM
      1 C1          0.0426   -3.4660   -1.0311 C.ar      1 <0>         0.0000
      2 C2          0.1478   -4.2926   -2.1519 C.ar      1 <0>         0.0000
      3 C3          1.7916   -2.7676   -3.0901 C.ar      1 <0>         0.0000
      4 C4          0.7155   -5.3117    2.5110 C.2       1 <0>         0.0000
      5 C5          1.9035   -3.5947    2.2405 C.2       1 <0>         0.0000
      6 C6          0.7911   -2.2879   -0.8965 C.ar      1 <0>         0.0000
      7 C7          1.0304   -3.9293   -3.1606 C.ar      1 <0>         0.0000
      8 C8          1.6478   -1.9691   -1.9612 C.ar      1 <0>         0.0000
      9 C9         -1.6025   -0.2455   -0.4198 C.3       1 <0>         0.0000
     10 C10        -0.6023    0.2798   -1.4125 C.3       1 <0>         0.0000
     11 C11        -0.1478   -0.0837   -0.0129 C.3       1 <0>         0.0000
     12 C12         1.5052    2.1845    0.1176 C.3       1 <0>         0.0000
     13 C13        -0.0023   -2.0378    1.5300 C.3       1 <0>         0.0000
     14 C14         0.6790   -1.3700    0.3114 C.3       1 <0>         0.0000
     15 N1          2.0035   -4.8701    2.5978 N.2       1 <0>         0.0000
     16 N2         -0.1664   -4.3955    2.1257 N.2       1 <0>         0.0000
     17 N3          0.6152   -3.2870    1.9538 N.pl3     1 <0>         0.0000
     18 O1          2.0189   -1.0414    0.6970 O.3       1 <0>         0.0000
     19 F1          1.1552   -4.7194   -4.2530 F         1 <0>         0.0000
     20 F2          2.3508   -0.8132   -1.9480 F         1 <0>         0.0000
     21 S1          0.2139    1.3140    1.0872 S.3       1 <0>         0.0000
     22 H1         -0.6294   -3.7759   -0.2401 H         1 <0>         0.0000
     23 H2         -0.4307   -5.2065   -2.2360 H         1 <0>         0.0000
     24 H3          2.4676   -2.4819   -3.8887 H         1 <0>         0.0000
     25 H4          0.4160   -6.3275    2.7353 H         1 <0>         0.0000
     26 H5          2.7082   -2.8804    2.1505 H         1 <0>         0.0000
     27 H6         -2.3284    0.4384    0.0068 H         1 <0>         0.0000
     28 H7         -1.9616   -1.2596   -0.5723 H         1 <0>         0.0000
     29 H8         -0.3130   -0.3683   -2.2308 H         1 <0>         0.0000
     30 H9         -0.6363    1.3344   -1.6633 H         1 <0>         0.0000
     31 H10         1.9437    2.9345    0.7804 H         1 <0>         0.0000
     32 H11         1.0655    2.6855   -0.7470 H         1 <0>         0.0000
     33 H12         2.2756    1.4870   -0.2135 H         1 <0>         0.0000
     34 H13         0.0272   -1.3181    2.3541 H         1 <0>         0.0000
     35 H14        -1.0479   -2.2711    1.3397 H         1 <0>         0.0000
     36 H15         1.9393   -0.2951    1.3234 H         1 <0>         0.0000
@<TRIPOS>BOND
     1    1    2 ar
     2    1    6 ar
     3    1   22 1
     4    2    7 ar
     5    2   23 1
     6    3    7 ar
     7    3    8 ar
     8    3   24 1
     9    4   15 1
    10    4   16 2
    11    4   25 1
    12    5   15 2
    13    5   17 1
    14    5   26 1
    15    6    8 ar
    16    6   14 1
    17    7   19 1
    18    8   20 1
    19    9   10 1
    20    9   11 1
    21    9   27 1
    22    9   28 1
    23   10   11 1
    24   10   29 1
    25   10   30 1
    26   11   14 1
    27   11   21 1
    28   12   21 1
    29   12   31 1
    30   12   32 1
    31   12   33 1
    32   13   14 1
    33   13   17 1
    34   13   34 1
    35   13   35 1
    36   14   18 1
    37   16   17 1
    38   18   36 1
