@<TRIPOS>MOLECULE
*****
   32    34     0     0     0
SMALL
NO_CHARGES

@<TRIPOS>ATOM
      1 C1          0.6654    0.5648   -1.1508 C.ar      1 <0>         0.0000
      2 C2         -1.1574   -0.8681    0.3784 C.ar      1 <0>         0.0000
      3 C3         -0.5941    0.2690   -1.6900 C.ar      1 <0>         0.0000
      4 C4         -1.5158   -0.4635   -0.9180 C.ar      1 <0>         0.0000
      5 C5          1.0319    0.1632    0.1357 C.ar      1 <0>         0.0000
      6 C6          0.0893   -0.5517    0.8990 C.ar      1 <0>         0.0000
      7 C7          2.5038    0.2281    1.8879 C.2       1 <0>         0.0000
      8 C8         -0.9179    0.7049   -3.1091 C.3       1 <0>         0.0000
      9 C9         -2.9050   -0.7912   -1.4366 C.3       1 <0>         0.0000
     10 C10        -2.4181    0.6753   -3.4200 C.3       1 <0>         0.0000
     11 C11        -3.0285   -0.6516   -2.9577 C.3       1 <0>         0.0000
     12 C12         1.3754   -0.1471    2.8366 C.3       1 <0>         0.0000
     13 C13         0.6925    1.1012    3.4059 C.3       1 <0>         0.0000
     14 N1          2.3281    0.4092    0.6254 N.2       1 <0>         0.0000
     15 N2          3.7284    0.4915    2.4754 N.pl3     1 <0>         0.0000
     16 O1          0.4357   -0.9964    2.1612 O.3       1 <0>         0.0000
     17 H1          1.3995    1.1120   -1.7385 H         1 <0>         0.0000
     18 H2         -1.8537   -1.4330    0.9943 H         1 <0>         0.0000
     19 H3         -0.5120    1.7073   -3.2869 H         1 <0>         0.0000
     20 H4         -0.3974    0.0379   -3.8109 H         1 <0>         0.0000
     21 H5         -3.1850   -1.8032   -1.1221 H         1 <0>         0.0000
     22 H6         -3.6278   -0.1146   -0.9585 H         1 <0>         0.0000
     23 H7         -2.9209    1.5035   -2.9030 H         1 <0>         0.0000
     24 H8         -2.5789    0.8245   -4.4937 H         1 <0>         0.0000
     25 H9         -2.5037   -1.4810   -3.4500 H         1 <0>         0.0000
     26 H10        -4.0817   -0.7200   -3.2528 H         1 <0>         0.0000
     27 H11         1.7604   -0.7632    3.6555 H         1 <0>         0.0000
     28 H12         0.2849    1.7163    2.5988 H         1 <0>         0.0000
     29 H13         1.4109    1.7029    3.9705 H         1 <0>         0.0000
     30 H14        -0.1253    0.8045    4.0690 H         1 <0>         0.0000
     31 H15         4.4833    0.6086    1.8065 H         1 <0>         0.0000
     32 H16         3.9754   -0.0717    3.2803 H         1 <0>         0.0000
@<TRIPOS>BOND
     1    1    3 ar
     2    1    5 ar
     3    1   17 1
     4    2    4 ar
     5    2    6 ar
     6    2   18 1
     7    3    4 ar
     8    3    8 1
     9    4    9 1
    10    5    6 ar
    11    5   14 1
    12    6   16 1
    13    7   12 1
    14    7   14 2
    15    7   15 1
    16    8   10 1
    17    8   19 1
    18    8   20 1
    19    9   11 1
    20    9   21 1
    21    9   22 1
    22   10   11 1
    23   10   23 1
    24   10   24 1
    25   11   25 1
    26   11   26 1
    27   12   13 1
    28   12   16 1
    29   12   27 1
    30   13   28 1
    31   13   29 1
    32   13   30 1
    33   15   31 1
    34   15   32 1
