@<TRIPOS>MOLECULE
*****
   34    36     0     0     0
SMALL
NO_CHARGES

@<TRIPOS>ATOM
      1 C1         -2.7898   -2.7951   -1.7140 C.ar      1 <0>         0.0000
      2 C2         -2.9299   -2.7891    0.6795 C.ar      1 <0>         0.0000
      3 C3         -1.9579   -1.6690   -1.6216 C.ar      1 <0>         0.0000
      4 C4         -3.2868   -3.3669   -0.5493 C.ar      1 <0>         0.0000
      5 C5         -1.5816   -1.2017   -0.3467 C.ar      1 <0>         0.0000
      6 C6         -4.3898    0.5854   -1.8504 C.3       1 <0>         0.0000
      7 C7         -4.8094    1.1262   -3.2001 C.3       1 <0>         0.0000
      8 C8          0.6283   -0.4337    0.6876 C.3       1 <0>         0.0000
      9 C9          0.7650   -0.1359   -0.7879 C.3       1 <0>         0.0000
     10 C10        -3.3632    0.8071   -2.9244 C.3       1 <0>         0.0000
     11 C11        -0.6015   -0.0831   -0.1176 C.3       1 <0>         0.0000
     12 C12        -1.2397    1.2723    0.1525 C.3       1 <0>         0.0000
     13 C13        -1.5360   -0.9863   -2.8929 C.3       1 <0>         0.0000
     14 N1         -2.0934   -1.7581    0.7661 N.ar      1 <0>         0.0000
     15 N2         -2.7515   -0.3705   -3.6030 N.4       1 <0>         0.0000
     16 Cl1        -4.3227   -4.7610   -0.6043 Cl        1 <0>         0.0000
     17 H1         -3.0439   -3.2372   -2.6767 H         1 <0>         0.0000
     18 H2         -3.3256   -3.1904    1.6104 H         1 <0>         0.0000
     19 H3         -4.3534    1.2556   -0.9987 H         1 <0>         0.0000
     20 H4         -4.6663   -0.4348   -1.6038 H         1 <0>         0.0000
     21 H5         -5.3717    0.4663   -3.8560 H         1 <0>         0.0000
     22 H6         -5.0679    2.1753   -3.2961 H         1 <0>         0.0000
     23 H7          0.7474   -1.4634    1.0082 H         1 <0>         0.0000
     24 H8          0.9834    0.3038    1.4003 H         1 <0>         0.0000
     25 H9          1.2214    0.8041   -1.0870 H         1 <0>         0.0000
     26 H10         1.0050   -0.9773   -1.4335 H         1 <0>         0.0000
     27 H11        -2.6396    1.6090   -2.8312 H         1 <0>         0.0000
     28 H12        -0.4762    2.0143    0.4025 H         1 <0>         0.0000
     29 H13        -1.9336    1.2036    0.9959 H         1 <0>         0.0000
     30 H14        -1.7926    1.6476   -0.7157 H         1 <0>         0.0000
     31 H15        -0.8395   -0.1699   -2.7161 H         1 <0>         0.0000
     32 H16        -1.1002   -1.6821   -3.6158 H         1 <0>         0.0000
     33 H17        -3.4660   -1.0996   -3.7133 H         1 <0>         0.0000
     34 H18        -2.4775   -0.0957   -4.5548 H         1 <0>         0.0000
@<TRIPOS>BOND
     1    1    3 ar
     2    1    4 ar
     3    1   17 1
     4    2    4 ar
     5    2   14 ar
     6    2   18 1
     7    3    5 ar
     8    3   13 1
     9    4   16 1
    10    5   11 1
    11    5   14 ar
    12    6    7 1
    13    6   10 1
    14    6   19 1
    15    6   20 1
    16    7   10 1
    17    7   21 1
    18    7   22 1
    19    8    9 1
    20    8   11 1
    21    8   23 1
    22    8   24 1
    23    9   11 1
    24    9   25 1
    25    9   26 1
    26   10   15 1
    27   10   27 1
    28   11   12 1
    29   12   28 1
    30   12   29 1
    31   12   30 1
    32   13   15 1
    33   13   31 1
    34   13   32 1
    35   15   33 1
    36   15   34 1
