@<TRIPOS>MOLECULE
*****
   29    30     0     0     0
SMALL
NO_CHARGES

@<TRIPOS>ATOM
      1 C1          0.7212    2.8168   -0.1864 C.ar      1 <0>         0.0000
      2 C2          1.3139    2.3742    1.0025 C.ar      1 <0>         0.0000
      3 C3         -0.0839    1.9510   -0.9319 C.ar      1 <0>         0.0000
      4 C4          1.1157    1.0589    1.4391 C.ar      1 <0>         0.0000
      5 C5         -0.2974    0.6327   -0.5081 C.ar      1 <0>         0.0000
      6 C6          0.3258    0.2000    0.6794 C.ar      1 <0>         0.0000
      7 C7         -1.1174   -1.4644   -0.9221 C.2       1 <0>         0.0000
      8 C8         -0.1324   -2.0374    0.0796 C.3       1 <0>         0.0000
      9 C9          1.8053   -5.7513   -0.5634 C.3       1 <0>         0.0000
     10 C10         1.1791   -2.4409   -0.6090 C.3       1 <0>         0.0000
     11 C11         2.1577   -3.1263    0.3486 C.3       1 <0>         0.0000
     12 N1         -1.1671   -0.2122   -1.2207 N.2       1 <0>         0.0000
     13 N2         -1.8923   -2.3850   -1.5994 N.pl3     1 <0>         0.0000
     14 O1          0.1029   -1.0860    1.1295 O.3       1 <0>         0.0000
     15 S1          1.6058   -4.7637    0.9601 S.3       1 <0>         0.0000
     16 H1          0.8784    3.8366   -0.5269 H         1 <0>         0.0000
     17 H2          1.9325    3.0475    1.5897 H         1 <0>         0.0000
     18 H3         -0.5712    2.2800   -1.8456 H         1 <0>         0.0000
     19 H4          1.5646    0.6910    2.3578 H         1 <0>         0.0000
     20 H5         -0.5561   -2.9095    0.5859 H         1 <0>         0.0000
     21 H6          1.5712   -6.7867   -0.3047 H         1 <0>         0.0000
     22 H7          2.8369   -5.7040   -0.9243 H         1 <0>         0.0000
     23 H8          1.1246   -5.4274   -1.3552 H         1 <0>         0.0000
     24 H9          1.6496   -1.5398   -1.0202 H         1 <0>         0.0000
     25 H10         0.9451   -3.0900   -1.4587 H         1 <0>         0.0000
     26 H11         3.1378   -3.2454   -0.1242 H         1 <0>         0.0000
     27 H12         2.2957   -2.5144    1.2440 H         1 <0>         0.0000
     28 H13        -2.6303   -1.9700   -2.1597 H         1 <0>         0.0000
     29 H14        -2.1740   -3.2097   -1.0829 H         1 <0>         0.0000
@<TRIPOS>BOND
     1    1    2 ar
     2    1    3 ar
     3    1   16 1
     4    2    4 ar
     5    2   17 1
     6    3    5 ar
     7    3   18 1
     8    4    6 ar
     9    4   19 1
    10    5    6 ar
    11    5   12 1
    12    6   14 1
    13    7    8 1
    14    7   12 2
    15    7   13 1
    16    8   10 1
    17    8   14 1
    18    8   20 1
    19    9   15 1
    20    9   21 1
    21    9   22 1
    22    9   23 1
    23   10   11 1
    24   10   24 1
    25   10   25 1
    26   11   15 1
    27   11   26 1
    28   11   27 1
    29   13   28 1
    30   13   29 1
