@<TRIPOS>MOLECULE
*****
   30    31     0     0     0
SMALL
NO_CHARGES

@<TRIPOS>ATOM
      1 C1          0.4075    2.6739   -1.2088 C.ar      1 <0>         0.0000
      2 C2         -0.6807    2.8096   -0.3369 C.ar      1 <0>         0.0000
      3 C3          0.9750    1.4181   -1.4308 C.ar      1 <0>         0.0000
      4 C4         -1.2077    1.7001    0.3315 C.ar      1 <0>         0.0000
      5 C5          0.4388    0.3140   -0.7679 C.ar      1 <0>         0.0000
      6 C6         -0.6367    0.4505    0.1170 C.ar      1 <0>         0.0000
      7 C7          0.5858   -2.0193   -0.2175 C.cat     1 <0>         0.0000
      8 C8         -0.1985   -1.6785    1.0400 C.3       1 <0>         0.0000
      9 C9          3.4906   -3.2522    4.5859 C.3       1 <0>         0.0000
     10 C10         0.7280   -1.2514    2.1912 C.3       1 <0>         0.0000
     11 C11         1.6256   -2.3767    2.7127 C.3       1 <0>         0.0000
     12 N1          0.9208   -1.0092   -1.0010 N.pl3     1 <0>         0.0000
     13 N2          0.9207   -3.2800   -0.4791 N.pl3     1 <0>         0.0000
     14 O1         -1.1614   -0.6747    0.7197 O.3       1 <0>         0.0000
     15 S1          2.5873   -1.7337    4.1313 S.3       1 <0>         0.0000
     16 H1          0.8132    3.5433   -1.7155 H         1 <0>         0.0000
     17 H2         -1.1187    3.7885   -0.1692 H         1 <0>         0.0000
     18 H3          1.8167    1.3012   -2.1093 H         1 <0>         0.0000
     19 H4         -2.0488    1.7895    1.0117 H         1 <0>         0.0000
     20 H5         -0.7887   -2.5502    1.3326 H         1 <0>         0.0000
     21 H6          4.1187   -2.9977    5.4421 H         1 <0>         0.0000
     22 H7          4.1332   -3.5917    3.7691 H         1 <0>         0.0000
     23 H8          2.8015   -4.0478    4.8810 H         1 <0>         0.0000
     24 H9          0.0672   -0.9035    2.9913 H         1 <0>         0.0000
     25 H10         1.3368   -0.3962    1.8815 H         1 <0>         0.0000
     26 H11         1.0187   -3.2294    3.0425 H         1 <0>         0.0000
     27 H12         2.3214   -2.7235    1.9395 H         1 <0>         0.0000
     28 H13         1.4693   -1.1670   -1.8436 H         1 <0>         0.0000
     29 H14         1.4531   -3.5544   -1.2995 H         1 <0>         0.0000
     30 H15         0.6472   -4.0197    0.1575 H         1 <0>         0.0000
@<TRIPOS>BOND
     1    1    2 ar
     2    1    3 ar
     3    1   16 1
     4    2    4 ar
     5    2   17 1
     6    3    5 ar
     7    3   18 1
     8    4    6 ar
     9    4   19 1
    10    5    6 ar
    11    5   12 1
    12    6   14 1
    13    7    8 1
    14    7   12 1
    15    7   13 2
    16    8   10 1
    17    8   14 1
    18    8   20 1
    19    9   15 1
    20    9   21 1
    21    9   22 1
    22    9   23 1
    23   10   11 1
    24   10   24 1
    25   10   25 1
    26   11   15 1
    27   11   26 1
    28   11   27 1
    29   12   28 1
    30   13   29 1
    31   13   30 1
