@<TRIPOS>MOLECULE
*****
   52    56     0     0     0
SMALL
NO_CHARGES

@<TRIPOS>ATOM
      1 C1         -3.6206   -0.3256   -0.8389 C.2       1 <0>         0.0000
      2 C2         -2.7288    0.7856   -0.5758 C.2       1 <0>         0.0000
      3 C3         -1.7215    0.4337    0.2807 C.2       1 <0>         0.0000
      4 C4         -4.8084   -0.3353   -1.6726 C.2       1 <0>         0.0000
      5 C5         -3.2650   -1.4746   -0.1638 C.2       1 <0>         0.0000
      6 C6         -5.1401   -2.7327   -1.0118 C.2       1 <0>         0.0000
      7 C7          0.7216    1.1264    2.9250 C.2       1 <0>         0.0000
      8 C8         -6.7622   -2.8437   -3.6112 C.3       1 <0>         0.0000
      9 C9         -0.9449    1.5784    4.5086 C.3       1 <0>         0.0000
     10 C10        -1.5149    1.8089    3.0972 C.3       1 <0>         0.0000
     11 C11        -2.1174   -5.9755    0.5235 C.3       1 <0>         0.0000
     12 C12        -2.9459   -5.5378   -1.3382 C.3       1 <0>         0.0000
     13 C13        -6.3779   -1.4968   -4.1754 C.3       1 <0>         0.0000
     14 C14        -2.4986   -4.6425   -0.1582 C.3       1 <0>         0.0000
     15 C15        -6.5789   -1.6719   -2.6827 C.3       1 <0>         0.0000
     16 C16        -2.9152    2.1436   -1.1974 C.3       1 <0>         0.0000
     17 C17        -5.0018   -1.2950   -4.7740 C.3       1 <0>         0.0000
     18 C18        -0.5650    1.2284    0.8153 C.3       1 <0>         0.0000
     19 C19        -3.5750   -3.8290    0.5509 C.3       1 <0>         0.0000
     20 N1         -5.4307   -1.6108   -1.7953 N.am      1 <0>         0.0000
     21 N2         -3.9857   -2.6440   -0.2185 N.am      1 <0>         0.0000
     22 N3          0.4928    1.5500    4.2324 N.am      1 <0>         0.0000
     23 N4         -0.5029    1.1684    2.2653 N.am      1 <0>         0.0000
     24 O1         -5.2756    0.6388   -2.2545 O.2       1 <0>         0.0000
     25 O2         -5.8247   -3.7482   -1.0129 O.2       1 <0>         0.0000
     26 O3          1.7943    0.7853    2.4431 O.2       1 <0>         0.0000
     27 O4         -2.5148   -6.7406   -0.6411 O.3       1 <0>         0.0000
     28 S1         -1.8435   -1.2504    0.8111 S.3       1 <0>         0.0000
     29 H1         -7.7729   -3.2215   -3.7309 H         1 <0>         0.0000
     30 H2         -5.9985   -3.6135   -3.5956 H         1 <0>         0.0000
     31 H3         -1.2089    2.3827    5.1994 H         1 <0>         0.0000
     32 H4         -1.3022    0.6236    4.9181 H         1 <0>         0.0000
     33 H5         -2.4976    1.3514    2.9569 H         1 <0>         0.0000
     34 H6         -1.5906    2.8828    2.8677 H         1 <0>         0.0000
     35 H7         -1.0552   -6.1089    0.7578 H         1 <0>         0.0000
     36 H8         -2.7197   -6.2373    1.4040 H         1 <0>         0.0000
     37 H9         -4.0227   -5.5455   -1.5338 H         1 <0>         0.0000
     38 H10        -2.3946   -5.4000   -2.2749 H         1 <0>         0.0000
     39 H11        -7.1668   -0.9223   -4.6551 H         1 <0>         0.0000
     40 H12        -1.6351   -4.0148   -0.3909 H         1 <0>         0.0000
     41 H13        -7.4695   -1.2230   -2.2533 H         1 <0>         0.0000
     42 H14        -3.9168    2.5271   -0.9885 H         1 <0>         0.0000
     43 H15        -2.1757    2.8596   -0.8335 H         1 <0>         0.0000
     44 H16        -2.8316    2.0832   -2.2866 H         1 <0>         0.0000
     45 H17        -4.2398   -1.8579   -4.2248 H         1 <0>         0.0000
     46 H18        -4.7197   -0.2388   -4.7575 H         1 <0>         0.0000
     47 H19        -4.9835   -1.6452   -5.8119 H         1 <0>         0.0000
     48 H20         0.3917    0.8408    0.4517 H         1 <0>         0.0000
     49 H21        -0.6500    2.2674    0.4705 H         1 <0>         0.0000
     50 H22        -3.2171   -3.4881    1.5285 H         1 <0>         0.0000
     51 H23        -4.4689   -4.4322    0.7094 H         1 <0>         0.0000
     52 H24         1.1407    1.1964    4.9256 H         1 <0>         0.0000
@<TRIPOS>BOND
     1    1    2 1
     2    1    5 2
     3    1    4 1
     4    2    3 2
     5    2   16 1
     6    3   18 1
     7    3   28 1
     8    4   20 am
     9    4   24 2
    10    5   21 1
    11    5   28 1
    12    6   21 am
    13    6   20 am
    14    6   25 2
    15    7   22 am
    16    7   23 am
    17    7   26 2
    18    8   13 1
    19    8   15 1
    20    8   29 1
    21    8   30 1
    22    9   10 1
    23    9   22 1
    24    9   31 1
    25    9   32 1
    26   10   23 1
    27   10   33 1
    28   10   34 1
    29   11   14 1
    30   11   27 1
    31   11   35 1
    32   11   36 1
    33   12   14 1
    34   12   27 1
    35   12   37 1
    36   12   38 1
    37   13   15 1
    38   13   17 1
    39   13   39 1
    40   14   19 1
    41   14   40 1
    42   15   20 1
    43   15   41 1
    44   16   42 1
    45   16   43 1
    46   16   44 1
    47   17   45 1
    48   17   46 1
    49   17   47 1
    50   18   23 1
    51   18   48 1
    52   18   49 1
    53   19   21 1
    54   19   50 1
    55   19   51 1
    56   22   52 1
