@<TRIPOS>MOLECULE
*****
   35    37     0     0     0
SMALL
NO_CHARGES

@<TRIPOS>ATOM
      1 C1          0.5158    0.3861   -1.2233 C.ar      1 <0>         0.0000
      2 C2         -1.3545   -1.0703    0.2245 C.ar      1 <0>         0.0000
      3 C3         -0.7446    0.1426   -1.7864 C.ar      1 <0>         0.0000
      4 C4         -1.6904   -0.6020   -1.0565 C.ar      1 <0>         0.0000
      5 C5          0.8598   -0.0791    0.0476 C.ar      1 <0>         0.0000
      6 C6         -0.1066   -0.8050    0.7700 C.ar      1 <0>         0.0000
      7 C7          2.3100   -0.1187    1.8180 C.2       1 <0>         0.0000
      8 C8         -1.0434    0.6473   -3.1882 C.3       1 <0>         0.0000
      9 C9         -3.0799   -0.8778   -1.6034 C.3       1 <0>         0.0000
     10 C10        -2.5400    0.6601   -3.5171 C.3       1 <0>         0.0000
     11 C11        -3.1815   -0.6727   -3.1187 C.3       1 <0>         0.0000
     12 C12         1.1599   -0.5011    2.7354 C.3       1 <0>         0.0000
     13 C13        -0.6601    0.4006    4.2786 C.3       1 <0>         0.0000
     14 C14         0.4959    0.7481    3.3371 C.3       1 <0>         0.0000
     15 N1          2.1552    0.1154    0.5609 N.2       1 <0>         0.0000
     16 N2          3.5326    0.0914    2.4295 N.pl3     1 <0>         0.0000
     17 O1          0.2180   -1.3107    2.0145 O.3       1 <0>         0.0000
     18 H1          1.2677    0.9418   -1.7797 H         1 <0>         0.0000
     19 H2         -2.0690   -1.6468    0.8081 H         1 <0>         0.0000
     20 H3         -0.6168    1.6486   -3.3165 H         1 <0>         0.0000
     21 H4         -0.5267    0.0024   -3.9131 H         1 <0>         0.0000
     22 H5         -3.3848   -1.8958   -1.3346 H         1 <0>         0.0000
     23 H6         -3.7944   -0.2063   -1.1061 H         1 <0>         0.0000
     24 H7         -3.0333    1.4754   -2.9711 H         1 <0>         0.0000
     25 H8         -2.6848    0.8579   -4.5852 H         1 <0>         0.0000
     26 H9         -2.6665   -1.4911   -3.6390 H         1 <0>         0.0000
     27 H10        -4.2320   -0.7080   -3.4289 H         1 <0>         0.0000
     28 H11         1.5149   -1.1508    3.5431 H         1 <0>         0.0000
     29 H12        -1.4291   -0.1743    3.7556 H         1 <0>         0.0000
     30 H13        -1.1237    1.3095    4.6749 H         1 <0>         0.0000
     31 H14        -0.3135   -0.1979    5.1294 H         1 <0>         0.0000
     32 H15         1.2684    1.3186    3.8651 H         1 <0>         0.0000
     33 H16         0.1408    1.3818    2.5168 H         1 <0>         0.0000
     34 H17         4.2997    0.2126    1.7753 H         1 <0>         0.0000
     35 H18         3.7535   -0.5060    3.2173 H         1 <0>         0.0000
@<TRIPOS>BOND
     1    1    3 ar
     2    1    5 ar
     3    1   18 1
     4    2    4 ar
     5    2    6 ar
     6    2   19 1
     7    3    4 ar
     8    3    8 1
     9    4    9 1
    10    5    6 ar
    11    5   15 1
    12    6   17 1
    13    7   12 1
    14    7   15 2
    15    7   16 1
    16    8   10 1
    17    8   20 1
    18    8   21 1
    19    9   11 1
    20    9   22 1
    21    9   23 1
    22   10   11 1
    23   10   24 1
    24   10   25 1
    25   11   26 1
    26   11   27 1
    27   12   14 1
    28   12   17 1
    29   12   28 1
    30   13   14 1
    31   13   29 1
    32   13   30 1
    33   13   31 1
    34   14   32 1
    35   14   33 1
    36   16   34 1
    37   16   35 1
