@<TRIPOS>MOLECULE
*****
   42    43     0     0     0
SMALL
NO_CHARGES

@<TRIPOS>ATOM
      1 C1          3.9551   -0.7508    2.6924 C.ar      1 <0>         0.0000
      2 C2          4.6398   -0.5463    3.8914 C.ar      1 <0>         0.0000
      3 C3          2.5557   -0.6773    5.0791 C.ar      1 <0>         0.0000
      4 C4          2.5692   -0.9180    2.6481 C.ar      1 <0>         0.0000
      5 C5          3.9485   -0.5111    5.1108 C.ar      1 <0>         0.0000
      6 C6          1.8711   -0.8681    3.8717 C.ar      1 <0>         0.0000
      7 C7         -0.2122   -2.3519    1.2741 C.2       1 <0>         0.0000
      8 C8         -0.5719   -0.9022    0.9692 C.3       1 <0>         0.0000
      9 C9          0.7640   -0.1379    0.9345 C.3       1 <0>         0.0000
     10 C10         1.8724   -1.1707    1.3249 C.3       1 <0>         0.0000
     11 C11        -1.6763   -1.5203    4.5930 C.3       1 <0>         0.0000
     12 C12         5.4567    1.0609    6.3629 C.3       1 <0>         0.0000
     13 C13         5.7446   -1.4343    6.6060 C.3       1 <0>         0.0000
     14 C14         3.7916   -0.2815    7.6527 C.3       1 <0>         0.0000
     15 C15        -0.2379   -1.2414    4.9946 C.3       1 <0>         0.0000
     16 C16         4.7166   -0.2947    6.4230 C.3       1 <0>         0.0000
     17 N1          1.1547   -2.4464    1.2911 N.am      1 <0>         0.0000
     18 O1         -0.9940   -3.2789    1.4600 O.2       1 <0>         0.0000
     19 O2          0.5113   -1.0039    3.7938 O.3       1 <0>         0.0000
     20 H1          4.5144   -0.7889    1.7594 H         1 <0>         0.0000
     21 H2          5.7183   -0.4231    3.8667 H         1 <0>         0.0000
     22 H3          1.9929   -0.6495    6.0015 H         1 <0>         0.0000
     23 H4         -1.1156   -0.8649    0.0210 H         1 <0>         0.0000
     24 H5         -1.2460   -0.5500    1.7509 H         1 <0>         0.0000
     25 H6          0.9717    0.2529   -0.0645 H         1 <0>         0.0000
     26 H7          0.7722    0.7052    1.6261 H         1 <0>         0.0000
     27 H8          2.6504   -1.1780    0.5541 H         1 <0>         0.0000
     28 H9         -2.1197   -0.6454    4.1079 H         1 <0>         0.0000
     29 H10        -1.7302   -2.3653    3.9019 H         1 <0>         0.0000
     30 H11        -2.2684   -1.7515    5.4848 H         1 <0>         0.0000
     31 H12         6.0086    1.2353    7.2936 H         1 <0>         0.0000
     32 H13         6.1738    1.0957    5.5377 H         1 <0>         0.0000
     33 H14         4.7488    1.8850    6.2251 H         1 <0>         0.0000
     34 H15         6.3044   -1.2964    7.5381 H         1 <0>         0.0000
     35 H16         5.2437   -2.4072    6.6485 H         1 <0>         0.0000
     36 H17         6.4659   -1.4658    5.7844 H         1 <0>         0.0000
     37 H18         4.3857   -0.1226    8.5585 H         1 <0>         0.0000
     38 H19         3.0530    0.5254    7.5994 H         1 <0>         0.0000
     39 H20         3.2585   -1.2307    7.7727 H         1 <0>         0.0000
     40 H21         0.1961   -2.0982    5.5258 H         1 <0>         0.0000
     41 H22        -0.1765   -0.3624    5.6497 H         1 <0>         0.0000
     42 H23         1.5780   -3.2935    1.6523 H         1 <0>         0.0000
@<TRIPOS>BOND
     1    1    2 ar
     2    1    4 ar
     3    1   20 1
     4    2    5 ar
     5    2   21 1
     6    3    5 ar
     7    3    6 ar
     8    3   22 1
     9    4    6 ar
    10    4   10 1
    11    5   16 1
    12    6   19 1
    13    7    8 1
    14    7   17 am
    15    7   18 2
    16    8    9 1
    17    8   23 1
    18    8   24 1
    19    9   10 1
    20    9   25 1
    21    9   26 1
    22   10   17 1
    23   10   27 1
    24   11   15 1
    25   11   28 1
    26   11   29 1
    27   11   30 1
    28   12   16 1
    29   12   31 1
    30   12   32 1
    31   12   33 1
    32   13   16 1
    33   13   34 1
    34   13   35 1
    35   13   36 1
    36   14   16 1
    37   14   37 1
    38   14   38 1
    39   14   39 1
    40   15   19 1
    41   15   40 1
    42   15   41 1
    43   17   42 1
