@<TRIPOS>MOLECULE
*****
   29    29     0     0     0
SMALL
NO_CHARGES

@<TRIPOS>ATOM
      1 C1          1.0764    0.3557    6.5544 C.2       1 <0>         0.0000
      2 C2         -0.5209   -1.1510    6.6718 C.2       1 <0>         0.0000
      3 C3          0.0148   -0.2119    5.8246 C.2       1 <0>         0.0000
      4 C4          1.1299   -1.7775    1.0918 C.3       1 <0>         0.0000
      5 C5         -0.1667    0.3629    1.2529 C.3       1 <0>         0.0000
      6 C6          2.2080    0.2691    2.0530 C.3       1 <0>         0.0000
      7 C7          0.0391   -1.8933    8.9988 C.3       1 <0>         0.0000
      8 C8          0.8955   -0.5127    1.9258 C.3       1 <0>         0.0000
      9 N1          1.2087   -0.1780    7.7717 N.2       1 <0>         0.0000
     10 N2          0.2232   -1.0908    7.8132 N.pl3     1 <0>         0.0000
     11 N3          0.4313   -0.8895    3.2486 N.pl3     1 <0>         0.0000
     12 O1         -1.9103   -0.1792    4.0630 O.2       1 <0>         0.0000
     13 O2         -0.0940    1.5551    3.9301 O.2       1 <0>         0.0000
     14 S1         -0.5131    0.1904    4.1862 S.o2      1 <0>         0.0000
     15 H1          1.7604    1.1363    6.2529 H         1 <0>         0.0000
     16 H2         -1.3475   -1.8398    6.5627 H         1 <0>         0.0000
     17 H3          1.8872   -2.4218    1.5533 H         1 <0>         0.0000
     18 H4          0.2094   -2.3624    0.9869 H         1 <0>         0.0000
     19 H5          1.4872   -1.5269    0.0861 H         1 <0>         0.0000
     20 H6         -0.3519    1.2751    1.8320 H         1 <0>         0.0000
     21 H7         -1.1224   -0.1677    1.1706 H         1 <0>         0.0000
     22 H8          0.1418    0.6605    0.2445 H         1 <0>         0.0000
     23 H9          2.0691    1.1805    2.6460 H         1 <0>         0.0000
     24 H10         2.9856   -0.3328    2.5362 H         1 <0>         0.0000
     25 H11         2.5828    0.5765    1.0697 H         1 <0>         0.0000
     26 H12         0.6439   -2.7975    8.8913 H         1 <0>         0.0000
     27 H13         0.3558   -1.3236    9.8769 H         1 <0>         0.0000
     28 H14        -1.0191   -2.1497    9.1009 H         1 <0>         0.0000
     29 H15         0.3275   -1.9021    3.4383 H         1 <0>         0.0000
@<TRIPOS>BOND
     1    1    3 1
     2    1    9 2
     3    1   15 1
     4    2    3 2
     5    2   10 1
     6    2   16 1
     7    3   14 1
     8    4    8 1
     9    4   17 1
    10    4   18 1
    11    4   19 1
    12    5    8 1
    13    5   20 1
    14    5   21 1
    15    5   22 1
    16    6    8 1
    17    6   23 1
    18    6   24 1
    19    6   25 1
    20    7   10 1
    21    7   26 1
    22    7   27 1
    23    7   28 1
    24    8   11 1
    25    9   10 1
    26   11   14 1
    27   11   29 1
    28   12   14 2
    29   13   14 2
