@<TRIPOS>MOLECULE
*****
   27    28     0     0     0
SMALL
NO_CHARGES

@<TRIPOS>ATOM
      1 C1         -0.9250   -0.9470    1.6872 C.ar      1 <0>         0.0000
      2 C2          0.7919   -5.7277    5.8013 C.ar      1 <0>         0.0000
      3 C3          0.1507   -0.3404    1.0295 C.ar      1 <0>         0.0000
      4 C4          0.8017   -6.3231    4.5360 C.ar      1 <0>         0.0000
      5 C5         -0.6976   -1.5589    2.9172 C.ar      1 <0>         0.0000
      6 C6          0.8183   -4.3398    5.9189 C.ar      1 <0>         0.0000
      7 C7          1.4052   -0.3775    1.6404 C.ar      1 <0>         0.0000
      8 C8          0.8345   -5.4776    3.4275 C.ar      1 <0>         0.0000
      9 C9          0.6024   -1.5437    3.4336 C.ar      1 <0>         0.0000
     10 C10         0.8573   -3.5826    4.7328 C.ar      1 <0>         0.0000
     11 C11         1.2119   -1.3543    5.8039 C.2       1 <0>         0.0000
     12 C12         1.1443    0.1466    5.5876 C.3       1 <0>         0.0000
     13 N1          1.6357   -0.9714    2.8211 N.ar      1 <0>         0.0000
     14 N2          0.8633   -4.1431    3.5174 N.ar      1 <0>         0.0000
     15 N3          0.8571   -2.1572    4.7131 N.am      1 <0>         0.0000
     16 O1          1.5451   -1.8218    6.8868 O.2       1 <0>         0.0000
     17 H1         -1.9206   -0.9391    1.2515 H         1 <0>         0.0000
     18 H2          0.7616   -6.3387    6.6999 H         1 <0>         0.0000
     19 H3          0.0232    0.1501    0.0690 H         1 <0>         0.0000
     20 H4          0.7839   -7.4015    4.4103 H         1 <0>         0.0000
     21 H5         -1.4939   -2.0480    3.4689 H         1 <0>         0.0000
     22 H6          0.8241   -3.8550    6.8831 H         1 <0>         0.0000
     23 H7          2.2677    0.0852    1.1638 H         1 <0>         0.0000
     24 H8          0.8421   -5.8839    2.4171 H         1 <0>         0.0000
     25 H9          0.2309    0.4532    5.0711 H         1 <0>         0.0000
     26 H10         1.9916    0.4762    4.9813 H         1 <0>         0.0000
     27 H11         1.1942    0.6182    6.5692 H         1 <0>         0.0000
@<TRIPOS>BOND
     1    1    3 ar
     2    1    5 ar
     3    1   17 1
     4    2    4 ar
     5    2    6 ar
     6    2   18 1
     7    3    7 ar
     8    3   19 1
     9    4    8 ar
    10    4   20 1
    11    5    9 ar
    12    5   21 1
    13    6   10 ar
    14    6   22 1
    15    7   13 ar
    16    7   23 1
    17    8   14 ar
    18    8   24 1
    19    9   13 ar
    20    9   15 1
    21   10   14 ar
    22   10   15 1
    23   11   12 1
    24   11   15 am
    25   11   16 2
    26   12   25 1
    27   12   26 1
    28   12   27 1
