@<TRIPOS>MOLECULE
*****
   40    42     0     0     0
SMALL
NO_CHARGES

@<TRIPOS>ATOM
      1 C1          1.5704   -2.5493    3.1755 C.2       1 <0>         0.0000
      2 C2          2.7074   -2.1472    2.5154 C.2       1 <0>         0.0000
      3 C3          1.1685   -2.1999    1.0150 C.2       1 <0>         0.0000
      4 C4          1.5096   -2.8367    4.6449 C.3       1 <0>         0.0000
      5 C5          0.9848   -1.1913   -1.1848 C.3       1 <0>         0.0000
      6 C6         -0.0010   -3.3664   -0.7738 C.3       1 <0>         0.0000
      7 C7          2.0705   -1.8497   -2.0404 C.3       1 <0>         0.0000
      8 C8          1.1148   -4.0132   -1.5961 C.3       1 <0>         0.0000
      9 C9          3.9450   -2.6831    4.4450 C.3       1 <0>         0.0000
     10 C10        -0.8487   -2.7764    2.4212 C.3       1 <0>         0.0000
     11 C11         5.1246   -2.2304    2.3354 C.3       1 <0>         0.0000
     12 C12         2.5776   -3.7115   -3.4905 C.3       1 <0>         0.0000
     13 N1          2.4645   -1.9439    1.1747 N.2       1 <0>         0.0000
     14 N2          0.5678   -2.5620    2.1986 N.pl3     1 <0>         0.0000
     15 N3          2.7779   -2.3984    5.2701 N.3       1 <0>         0.0000
     16 N4          3.9458   -1.9674    3.1539 N.pl3     1 <0>         0.0000
     17 N5          0.4221   -2.0898   -0.1639 N.pl3     1 <0>         0.0000
     18 N6          1.5682   -3.0928   -2.6406 N.3       1 <0>         0.0000
     19 H1          0.6927   -2.3048    5.1492 H         1 <0>         0.0000
     20 H2          1.3601   -3.9048    4.8572 H         1 <0>         0.0000
     21 H3          1.3866   -0.3078   -0.6859 H         1 <0>         0.0000
     22 H4          0.1564   -0.8819   -1.8333 H         1 <0>         0.0000
     23 H5         -0.8558   -3.1574   -1.4274 H         1 <0>         0.0000
     24 H6         -0.3333   -4.0502    0.0111 H         1 <0>         0.0000
     25 H7          2.3497   -1.1639   -2.8492 H         1 <0>         0.0000
     26 H8          2.9632   -2.0288   -1.4190 H         1 <0>         0.0000
     27 H9          1.9426   -4.3086   -0.9230 H         1 <0>         0.0000
     28 H10         0.7318   -4.9240   -2.0717 H         1 <0>         0.0000
     29 H11         4.8455   -2.3907    4.9939 H         1 <0>         0.0000
     30 H12         3.9798   -3.7746    4.2819 H         1 <0>         0.0000
     31 H13        -1.1547   -2.2941    3.3541 H         1 <0>         0.0000
     32 H14        -1.4016   -2.3282    1.5934 H         1 <0>         0.0000
     33 H15        -1.0964   -3.8429    2.4822 H         1 <0>         0.0000
     34 H16         6.0199   -1.9340    2.8916 H         1 <0>         0.0000
     35 H17         5.0674   -1.6396    1.4200 H         1 <0>         0.0000
     36 H18         5.2201   -3.2935    2.0526 H         1 <0>         0.0000
     37 H19         2.8644   -3.0169   -4.2870 H         1 <0>         0.0000
     38 H20         2.1666   -4.6129   -3.9578 H         1 <0>         0.0000
     39 H21         3.4929   -3.9961   -2.9373 H         1 <0>         0.0000
     40 H22         2.7346   -1.3901    5.4082 H         1 <0>         0.0000
@<TRIPOS>BOND
     1    1    2 2
     2    1    4 1
     3    1   14 1
     4    2   13 1
     5    2   16 1
     6    3   13 2
     7    3   14 1
     8    3   17 1
     9    4   15 1
    10    4   19 1
    11    4   20 1
    12    5    7 1
    13    5   17 1
    14    5   21 1
    15    5   22 1
    16    6    8 1
    17    6   17 1
    18    6   23 1
    19    6   24 1
    20    7   18 1
    21    7   25 1
    22    7   26 1
    23    8   18 1
    24    8   27 1
    25    8   28 1
    26    9   15 1
    27    9   16 1
    28    9   29 1
    29    9   30 1
    30   10   14 1
    31   10   31 1
    32   10   32 1
    33   10   33 1
    34   11   16 1
    35   11   34 1
    36   11   35 1
    37   11   36 1
    38   12   18 1
    39   12   37 1
    40   12   38 1
    41   12   39 1
    42   15   40 1
