@<TRIPOS>MOLECULE
*****
   35    37     0     0     0
SMALL
NO_CHARGES

@<TRIPOS>ATOM
      1 C1          6.1365   -1.2450   -3.3254 C.ar      1 <0>         0.0000
      2 C2          6.8573   -1.6793   -4.4673 C.ar      1 <0>         0.0000
      3 C3          4.7577   -1.3002   -3.3065 C.ar      1 <0>         0.0000
      4 C4          6.1838   -2.1814   -5.5610 C.ar      1 <0>         0.0000
      5 C5          2.8339   -2.8476   -6.6395 C.ar      1 <0>         0.0000
      6 C6          4.0341   -1.7830   -4.4308 C.ar      1 <0>         0.0000
      7 C7          1.9891   -2.3727   -5.5943 C.ar      1 <0>         0.0000
      8 C8          4.7643   -2.2537   -5.5658 C.ar      1 <0>         0.0000
      9 C9          2.5985   -1.8361   -4.4638 C.ar      1 <0>         0.0000
     10 C10         0.4495   -0.2081   -1.1085 C.3       1 <0>         0.0000
     11 C11         1.6121    0.5475   -1.7659 C.3       1 <0>         0.0000
     12 C12         0.6125   -1.7223   -1.2969 C.3       1 <0>         0.0000
     13 C13         1.7859    0.1255   -3.2277 C.3       1 <0>         0.0000
     14 C14         0.7684   -2.0655   -2.7826 C.3       1 <0>         0.0000
     15 C15         0.4945   -2.4116   -5.8151 C.3       1 <0>         0.0000
     16 N1          4.1489   -2.7931   -6.6609 N.ar      1 <0>         0.0000
     17 N2          1.9052   -1.3330   -3.3364 N.pl3     1 <0>         0.0000
     18 H1          6.6768   -0.8793   -2.4557 H         1 <0>         0.0000
     19 H2          7.9432   -1.6294   -4.4707 H         1 <0>         0.0000
     20 H3          4.2052   -0.9971   -2.4240 H         1 <0>         0.0000
     21 H4          6.7086   -2.5400   -6.4418 H         1 <0>         0.0000
     22 H5          2.3602   -3.2708   -7.5273 H         1 <0>         0.0000
     23 H6         -0.4965    0.1120   -1.5675 H         1 <0>         0.0000
     24 H7          0.3839    0.0427   -0.0439 H         1 <0>         0.0000
     25 H8          1.4473    1.6301   -1.7168 H         1 <0>         0.0000
     26 H9          2.5411    0.3337   -1.2229 H         1 <0>         0.0000
     27 H10         1.4998   -2.0718   -0.7557 H         1 <0>         0.0000
     28 H11        -0.2549   -2.2563   -0.8913 H         1 <0>         0.0000
     29 H12         0.9247    0.4878   -3.8195 H         1 <0>         0.0000
     30 H13         2.6815    0.5819   -3.6557 H         1 <0>         0.0000
     31 H14         0.9524   -3.1358   -2.9107 H         1 <0>         0.0000
     32 H15        -0.1785   -1.8263   -3.2953 H         1 <0>         0.0000
     33 H16         0.0043   -3.2015   -5.2363 H         1 <0>         0.0000
     34 H17         0.0242   -1.4638   -5.5400 H         1 <0>         0.0000
     35 H18         0.2755   -2.5967   -6.8706 H         1 <0>         0.0000
@<TRIPOS>BOND
     1    1    2 ar
     2    1    3 ar
     3    1   18 1
     4    2    4 ar
     5    2   19 1
     6    3    6 ar
     7    3   20 1
     8    4    8 ar
     9    4   21 1
    10    5    7 ar
    11    5   16 ar
    12    5   22 1
    13    6    8 ar
    14    6    9 ar
    15    7    9 ar
    16    7   15 1
    17    8   16 ar
    18    9   17 1
    19   10   12 1
    20   10   11 1
    21   10   23 1
    22   10   24 1
    23   11   13 1
    24   11   25 1
    25   11   26 1
    26   12   14 1
    27   12   27 1
    28   12   28 1
    29   13   17 1
    30   13   29 1
    31   13   30 1
    32   14   17 1
    33   14   31 1
    34   14   32 1
    35   15   33 1
    36   15   34 1
    37   15   35 1
