@<TRIPOS>MOLECULE
*****
   31    31     0     0     0
SMALL
NO_CHARGES

@<TRIPOS>ATOM
      1 C1          2.5251   -2.3333   -1.7926 C.ar      1 <0>         0.0000
      2 C2          2.3918   -1.5394   -0.6498 C.ar      1 <0>         0.0000
      3 C3          2.8396   -1.7255   -3.0090 C.ar      1 <0>         0.0000
      4 C4          2.8750    0.3467   -2.0466 C.ar      1 <0>         0.0000
      5 C5          2.5701   -0.1573   -0.7708 C.ar      1 <0>         0.0000
      6 C6          3.9167    2.6936    1.0405 C.2       1 <0>         0.0000
      7 C7          1.8044    0.3829    1.6662 C.2       1 <0>         0.0000
      8 C8          5.2975    3.2515    1.3357 C.3       1 <0>         0.0000
      9 C9          0.5665    1.1857    3.6226 C.3       1 <0>         0.0000
     10 C10         4.9022    0.3933    0.8623 C.3       1 <0>         0.0000
     11 C11         2.4791    0.8486    0.3618 C.3       1 <0>         0.0000
     12 N1          3.0148   -0.4015   -3.1458 N.ar      1 <0>         0.0000
     13 N2          1.0982    1.3709    2.2782 N.am      1 <0>         0.0000
     14 N3          3.8182    1.3663    0.7216 N.am      1 <0>         0.0000
     15 O1          2.9167    3.4272    1.0826 O.2       1 <0>         0.0000
     16 O2          1.9400   -0.7495    2.1393 O.2       1 <0>         0.0000
     17 H1          2.3902   -3.4101   -1.7395 H         1 <0>         0.0000
     18 H2          2.1592   -1.9732    0.3154 H         1 <0>         0.0000
     19 H3          2.9547   -2.3207   -3.9137 H         1 <0>         0.0000
     20 H4          3.0163    1.4200   -2.1800 H         1 <0>         0.0000
     21 H5          6.0454    2.9237    0.6089 H         1 <0>         0.0000
     22 H6          5.2232    4.3387    1.3200 H         1 <0>         0.0000
     23 H7          5.6341    2.9434    2.3316 H         1 <0>         0.0000
     24 H8         -0.1572    1.9770    3.8291 H         1 <0>         0.0000
     25 H9          1.3580    1.2130    4.3818 H         1 <0>         0.0000
     26 H10         0.0691    0.2164    3.6842 H         1 <0>         0.0000
     27 H11         4.5089   -0.5112    1.3327 H         1 <0>         0.0000
     28 H12         5.6888    0.7889    1.5024 H         1 <0>         0.0000
     29 H13         5.3302    0.1266   -0.1097 H         1 <0>         0.0000
     30 H14         1.9295    1.7142   -0.0096 H         1 <0>         0.0000
     31 H15         1.2712    2.3174    1.9465 H         1 <0>         0.0000
@<TRIPOS>BOND
     1    1    2 ar
     2    1    3 ar
     3    1   17 1
     4    2    5 ar
     5    2   18 1
     6    3   12 ar
     7    3   19 1
     8    4    5 ar
     9    4   12 ar
    10    4   20 1
    11    5   11 1
    12    6    8 1
    13    6   14 am
    14    6   15 2
    15    7   11 1
    16    7   13 am
    17    7   16 2
    18    8   21 1
    19    8   22 1
    20    8   23 1
    21    9   13 1
    22    9   24 1
    23    9   25 1
    24    9   26 1
    25   10   14 1
    26   10   27 1
    27   10   28 1
    28   10   29 1
    29   11   14 1
    30   11   30 1
    31   13   31 1
