@<TRIPOS>MOLECULE
*****
   30    30     0     0     0
SMALL
NO_CHARGES

@<TRIPOS>ATOM
      1 C1          5.4981   -2.1364   -1.4513 C.ar      1 <0>         0.0000
      2 C2          5.6758   -2.5106   -0.1147 C.ar      1 <0>         0.0000
      3 C3          4.5469   -1.1642   -1.7758 C.ar      1 <0>         0.0000
      4 C4          4.9035   -1.9152    0.8856 C.ar      1 <0>         0.0000
      5 C5          3.7821   -0.5643   -0.7725 C.ar      1 <0>         0.0000
      6 C6          3.9577   -0.9321    0.5666 C.ar      1 <0>         0.0000
      7 C7          3.4985    1.9960    4.5338 C.2       1 <0>         0.0000
      8 C8          2.4741    2.5186    5.5262 C.3       1 <0>         0.0000
      9 C9          4.2368    2.0616    1.4039 C.3       1 <0>         0.0000
     10 C10         3.1539   -0.2856    1.6771 C.3       1 <0>         0.0000
     11 C11         3.8599    0.9029    2.3510 C.3       1 <0>         0.0000
     12 N1          2.9929    1.3857    3.4207 N.am      1 <0>         0.0000
     13 O1          4.7106    2.1078    4.7294 O.2       1 <0>         0.0000
     14 O2          5.3852    1.7862    0.6060 O.3       1 <0>         0.0000
     15 O3          1.8816    0.2131    1.2292 O.3       1 <0>         0.0000
     16 H1          6.0944   -2.6010   -2.2324 H         1 <0>         0.0000
     17 H2          6.4078   -3.2706    0.1463 H         1 <0>         0.0000
     18 H3          4.4075   -0.8652   -2.8116 H         1 <0>         0.0000
     19 H4          5.0391   -2.2164    1.9231 H         1 <0>         0.0000
     20 H5          3.0614    0.2079   -1.0244 H         1 <0>         0.0000
     21 H6          2.6680    2.0646    6.5015 H         1 <0>         0.0000
     22 H7          2.6093    3.5983    5.6348 H         1 <0>         0.0000
     23 H8          1.4394    2.3155    5.2360 H         1 <0>         0.0000
     24 H9          4.3904    2.9575    2.0169 H         1 <0>         0.0000
     25 H10         3.4194    2.2588    0.7066 H         1 <0>         0.0000
     26 H11         2.9869   -1.0338    2.4655 H         1 <0>         0.0000
     27 H12         4.7752    0.5356    2.8238 H         1 <0>         0.0000
     28 H13         1.9974    1.3915    3.2370 H         1 <0>         0.0000
     29 H14         6.1516    1.7343    1.1987 H         1 <0>         0.0000
     30 H15         1.4105   -0.5163    0.7959 H         1 <0>         0.0000
@<TRIPOS>BOND
     1    1    3 ar
     2    1    2 ar
     3    1   16 1
     4    2    4 ar
     5    2   17 1
     6    3    5 ar
     7    3   18 1
     8    4    6 ar
     9    4   19 1
    10    5    6 ar
    11    5   20 1
    12    6   10 1
    13    7    8 1
    14    7   12 am
    15    7   13 2
    16    8   21 1
    17    8   22 1
    18    8   23 1
    19    9   11 1
    20    9   14 1
    21    9   24 1
    22    9   25 1
    23   10   11 1
    24   10   15 1
    25   10   26 1
    26   11   12 1
    27   11   27 1
    28   12   28 1
    29   14   29 1
    30   15   30 1
