@<TRIPOS>MOLECULE
*****
   26    26     0     0     0
SMALL
NO_CHARGES

@<TRIPOS>ATOM
      1 C1          1.8173   -0.5434    0.2180 C.ar      1 <0>         0.0000
      2 C2          2.7391    0.1188    1.0338 C.ar      1 <0>         0.0000
      3 C3          0.9910   -1.5311    0.7665 C.ar      1 <0>         0.0000
      4 C4          2.8279   -0.2067    2.3913 C.ar      1 <0>         0.0000
      5 C5          1.0767   -1.8478    2.1231 C.ar      1 <0>         0.0000
      6 C6          1.9961   -1.1858    2.9466 C.ar      1 <0>         0.0000
      7 C7          0.0738    1.3310    4.0195 C.2       1 <0>         0.0000
      8 C8          0.4369    2.7552    3.6380 C.3       1 <0>         0.0000
      9 C9          0.8926   -0.6990    5.1652 C.3       1 <0>         0.0000
     10 C10         2.0274   -1.4547    4.4327 C.3       1 <0>         0.0000
     11 N1          0.9218    0.7329    4.9268 N.am      1 <0>         0.0000
     12 O1         -0.9017    0.7565    3.5464 O.2       1 <0>         0.0000
     13 O2          1.8892   -2.8618    4.6538 O.3       1 <0>         0.0000
     14 H1          1.7448   -0.2945   -0.8377 H         1 <0>         0.0000
     15 H2          3.3919    0.8805    0.6144 H         1 <0>         0.0000
     16 H3          0.2718   -2.0479    0.1363 H         1 <0>         0.0000
     17 H4          3.5567    0.3026    3.0193 H         1 <0>         0.0000
     18 H5          0.4308   -2.6081    2.5509 H         1 <0>         0.0000
     19 H6          0.9283    2.7299    2.6600 H         1 <0>         0.0000
     20 H7         -0.4783    3.3421    3.5408 H         1 <0>         0.0000
     21 H8          1.1072    3.2404    4.3541 H         1 <0>         0.0000
     22 H9          0.9620   -0.8947    6.2442 H         1 <0>         0.0000
     23 H10        -0.0711   -1.0661    4.8093 H         1 <0>         0.0000
     24 H11         2.9937   -1.1074    4.8322 H         1 <0>         0.0000
     25 H12         1.7608    1.2371    5.1817 H         1 <0>         0.0000
     26 H13         1.8323   -3.0156    5.6107 H         1 <0>         0.0000
@<TRIPOS>BOND
     1    1    3 ar
     2    1    2 ar
     3    1   14 1
     4    2    4 ar
     5    2   15 1
     6    3    5 ar
     7    3   16 1
     8    4    6 ar
     9    4   17 1
    10    5    6 ar
    11    5   18 1
    12    6   10 1
    13    7    8 1
    14    7   11 am
    15    7   12 2
    16    8   19 1
    17    8   20 1
    18    8   21 1
    19    9   10 1
    20    9   11 1
    21    9   22 1
    22    9   23 1
    23   10   13 1
    24   10   24 1
    25   11   25 1
    26   13   26 1
