@<TRIPOS>MOLECULE
*****
   31    31     0     0     0
SMALL
NO_CHARGES

@<TRIPOS>ATOM
      1 C1          2.8909   -1.8909   -2.7815 C.ar      1 <0>         0.0000
      2 C2          2.9688   -0.8583   -1.8473 C.ar      1 <0>         0.0000
      3 C3          2.8595   -3.2093   -2.3154 C.ar      1 <0>         0.0000
      4 C4          2.9797   -2.5276   -0.1327 C.ar      1 <0>         0.0000
      5 C5          3.0113   -1.1703   -0.4841 C.ar      1 <0>         0.0000
      6 C6          4.8738    1.6369    1.0657 C.2       1 <0>         0.0000
      7 C7          2.4385   -0.3904    1.9008 C.2       1 <0>         0.0000
      8 C8          3.7780    2.6943    1.0424 C.3       1 <0>         0.0000
      9 C9          0.3315   -1.1598    2.9376 C.3       1 <0>         0.0000
     10 C10         5.5056   -0.7231    0.9666 C.3       1 <0>         0.0000
     11 C11         3.1364   -0.0609    0.5503 C.3       1 <0>         0.0000
     12 N1          2.9034   -3.5320   -1.0155 N.ar      1 <0>         0.0000
     13 N2          1.1331   -0.7723    1.7824 N.am      1 <0>         0.0000
     14 N3          4.5222    0.3375    0.7440 N.am      1 <0>         0.0000
     15 O1          6.0312    1.9448    1.3422 O.2       1 <0>         0.0000
     16 O2          3.0056   -0.2360    2.9769 O.2       1 <0>         0.0000
     17 H1          2.8558   -1.6850   -3.8474 H         1 <0>         0.0000
     18 H2          3.0068    0.1798   -2.1707 H         1 <0>         0.0000
     19 H3          2.7978   -4.0412   -3.0151 H         1 <0>         0.0000
     20 H4          3.0213   -2.8210    0.9154 H         1 <0>         0.0000
     21 H5          2.9755    2.4580    1.7473 H         1 <0>         0.0000
     22 H6          4.2369    3.6388    1.3331 H         1 <0>         0.0000
     23 H7          3.3408    2.8123    0.0450 H         1 <0>         0.0000
     24 H8          0.3822   -2.2395    3.1229 H         1 <0>         0.0000
     25 H9         -0.7106   -0.8725    2.7747 H         1 <0>         0.0000
     26 H10         0.7175   -0.6386    3.8139 H         1 <0>         0.0000
     27 H11         5.1984   -1.3573    1.8045 H         1 <0>         0.0000
     28 H12         6.4553   -0.2504    1.2082 H         1 <0>         0.0000
     29 H13         5.6238   -1.3360    0.0687 H         1 <0>         0.0000
     30 H14         2.5953    0.7978    0.1485 H         1 <0>         0.0000
     31 H15         0.7904   -1.0132    0.8611 H         1 <0>         0.0000
@<TRIPOS>BOND
     1    1    2 ar
     2    1    3 ar
     3    1   17 1
     4    2    5 ar
     5    2   18 1
     6    3   12 ar
     7    3   19 1
     8    4    5 ar
     9    4   12 ar
    10    4   20 1
    11    5   11 1
    12    6    8 1
    13    6   14 am
    14    6   15 2
    15    7   11 1
    16    7   13 am
    17    7   16 2
    18    8   21 1
    19    8   22 1
    20    8   23 1
    21    9   13 1
    22    9   24 1
    23    9   25 1
    24    9   26 1
    25   10   14 1
    26   10   27 1
    27   10   28 1
    28   10   29 1
    29   11   14 1
    30   11   30 1
    31   13   31 1
