@<TRIPOS>MOLECULE
*****
   24    23     0     0     0
SMALL
NO_CHARGES

@<TRIPOS>ATOM
      1 C1          0.7854   -2.9032    1.0886 C.2       1 <0>         0.0000
      2 C2          0.7086   -1.7230   -1.0751 C.3       1 <0>         0.0000
      3 C3         -3.5267   -2.3689    3.1575 C.3       1 <0>         0.0000
      4 C4         -0.2964   -2.4785    3.3226 C.3       1 <0>         0.0000
      5 C5         -0.9839   -1.1840    2.8777 C.3       1 <0>         0.0000
      6 C6         -0.0486   -3.5258    2.2234 C.3       1 <0>         0.0000
      7 N1          0.6100   -4.6882    2.8260 N.3       1 <0>         0.0000
      8 N2          0.0776   -2.4621    0.0106 N.am      1 <0>         0.0000
      9 O1          2.0139   -2.8222    1.1727 O.2       1 <0>         0.0000
     10 S1         -2.5631   -1.3858    1.9590 S.3       1 <0>         0.0000
     11 H1          0.8017   -0.6542   -0.8442 H         1 <0>         0.0000
     12 H2          0.1168   -1.8403   -1.9863 H         1 <0>         0.0000
     13 H3          1.7090   -2.1259   -1.2381 H         1 <0>         0.0000
     14 H4         -4.5363   -2.4628    2.7511 H         1 <0>         0.0000
     15 H5         -3.5814   -1.8553    4.1214 H         1 <0>         0.0000
     16 H6         -3.1068   -3.3681    3.2959 H         1 <0>         0.0000
     17 H7          0.6715   -2.2057    3.7620 H         1 <0>         0.0000
     18 H8         -0.8709   -2.9673    4.1146 H         1 <0>         0.0000
     19 H9         -0.3466   -0.6139    2.1953 H         1 <0>         0.0000
     20 H10        -1.1739   -0.5487    3.7485 H         1 <0>         0.0000
     21 H11        -1.0148   -3.8529    1.8260 H         1 <0>         0.0000
     22 H12         1.5841   -4.4311    2.9961 H         1 <0>         0.0000
     23 H13         0.6495   -5.4402    2.1382 H         1 <0>         0.0000
     24 H14        -0.9318   -2.4160    0.1090 H         1 <0>         0.0000
@<TRIPOS>BOND
     1    1    6 1
     2    1    8 am
     3    1    9 2
     4    2    8 1
     5    2   11 1
     6    2   12 1
     7    2   13 1
     8    3   10 1
     9    3   14 1
    10    3   15 1
    11    3   16 1
    12    4    5 1
    13    4    6 1
    14    4   17 1
    15    4   18 1
    16    5   10 1
    17    5   19 1
    18    5   20 1
    19    6    7 1
    20    6   21 1
    21    7   22 1
    22    7   23 1
    23    8   24 1
