@<TRIPOS>MOLECULE
*****
   29    30     0     0     0
SMALL
NO_CHARGES

@<TRIPOS>ATOM
      1 C1          2.0497   -1.0399   -0.1594 C.ar      1 <0>         0.0000
      2 C2          3.1988   -1.1807    0.6276 C.ar      1 <0>         0.0000
      3 C3          0.7982   -0.9389    0.4564 C.ar      1 <0>         0.0000
      4 C4          3.1045   -1.1981    2.0199 C.ar      1 <0>         0.0000
      5 C5          0.6887   -0.9725    1.8489 C.ar      1 <0>         0.0000
      6 C6          1.1820   -0.7082    6.1465 C.2       1 <0>         0.0000
      7 C7          2.2553   -1.6270    6.0479 C.2       1 <0>         0.0000
      8 C8          1.8478   -1.0833    2.6260 C.ar      1 <0>         0.0000
      9 C9          0.8970   -0.3564    4.8391 C.2       1 <0>         0.0000
     10 C10        -0.1284    0.6125    4.3339 C.2       1 <0>         0.0000
     11 C11        -0.6114    2.5886    2.9913 C.3       1 <0>         0.0000
     12 C12         1.7464    2.0437    3.4923 C.3       1 <0>         0.0000
     13 N1          2.6037   -1.8483    4.7810 N.2       1 <0>         0.0000
     14 N2          1.7646   -1.0686    4.0445 N.pl3     1 <0>         0.0000
     15 N3          0.3383    1.7053    3.6557 N.am      1 <0>         0.0000
     16 O1         -1.3271    0.4012    4.5369 O.2       1 <0>         0.0000
     17 H1          2.1285   -1.0204   -1.2429 H         1 <0>         0.0000
     18 H2          4.1741   -1.2706    0.1568 H         1 <0>         0.0000
     19 H3         -0.1020   -0.8530   -0.1461 H         1 <0>         0.0000
     20 H4          3.9846   -1.3034    2.6448 H         1 <0>         0.0000
     21 H5         -0.2872   -0.9358    2.3212 H         1 <0>         0.0000
     22 H6          0.6860   -0.3374    7.0326 H         1 <0>         0.0000
     23 H7          2.7798   -2.1441    6.8421 H         1 <0>         0.0000
     24 H8         -0.5532    3.6004    3.4101 H         1 <0>         0.0000
     25 H9         -1.6180    2.1995    3.1358 H         1 <0>         0.0000
     26 H10        -0.3845    2.6393    1.9192 H         1 <0>         0.0000
     27 H11         2.0918    1.8253    2.4744 H         1 <0>         0.0000
     28 H12         2.3625    1.4904    4.1995 H         1 <0>         0.0000
     29 H13         1.8827    3.1135    3.6855 H         1 <0>         0.0000
@<TRIPOS>BOND
     1    1    3 ar
     2    1    2 ar
     3    1   17 1
     4    2    4 ar
     5    2   18 1
     6    3    5 ar
     7    3   19 1
     8    4    8 ar
     9    4   20 1
    10    5    8 ar
    11    5   21 1
    12    6    7 1
    13    6    9 2
    14    6   22 1
    15    7   13 2
    16    7   23 1
    17    8   14 1
    18    9   10 1
    19    9   14 1
    20   10   15 am
    21   10   16 2
    22   11   15 1
    23   11   24 1
    24   11   25 1
    25   11   26 1
    26   12   15 1
    27   12   27 1
    28   12   28 1
    29   12   29 1
    30   13   14 1
