@<TRIPOS>MOLECULE
*****
   26    25     0     0     0
SMALL
NO_CHARGES

@<TRIPOS>ATOM
      1 C1         -1.5333   -0.9932    1.3147 C.2       1 <0>         0.0000
      2 C2          0.3632    0.7356   -0.7078 C.2       1 <0>         0.0000
      3 C3         -1.7222   -1.1037    2.8167 C.3       1 <0>         0.0000
      4 C4         -1.8752    1.8001   -1.0826 C.3       1 <0>         0.0000
      5 C5          0.6081   -1.4711   -1.9727 C.3       1 <0>         0.0000
      6 C6          3.2390   -0.2497   -0.4380 C.3       1 <0>         0.0000
      7 C7         -1.1618    0.5403   -0.5885 C.3       1 <0>         0.0000
      8 N1         -1.4876    0.2793    0.8119 N.am      1 <0>         0.0000
      9 N2          1.0774   -0.2552   -1.3173 N.am      1 <0>         0.0000
     10 O1         -1.4497   -1.9929    0.5969 O.2       1 <0>         0.0000
     11 O2          0.8872    1.7379   -0.2193 O.2       1 <0>         0.0000
     12 O3          2.4229    0.0273   -1.5901 O.3       1 <0>         0.0000
     13 H1         -2.5945   -1.7319    3.0139 H         1 <0>         0.0000
     14 H2         -0.8506   -1.6085    3.2429 H         1 <0>         0.0000
     15 H3         -1.8551   -0.1389    3.3136 H         1 <0>         0.0000
     16 H4         -1.5360    2.6777   -0.5259 H         1 <0>         0.0000
     17 H5         -2.9561    1.6854   -0.9622 H         1 <0>         0.0000
     18 H6         -1.6553    1.9708   -2.1408 H         1 <0>         0.0000
     19 H7          0.3694   -1.2938   -3.0281 H         1 <0>         0.0000
     20 H8         -0.2513   -1.8764   -1.4389 H         1 <0>         0.0000
     21 H9          1.4143   -2.2056   -1.9165 H         1 <0>         0.0000
     22 H10         4.2641   -0.0684   -0.7680 H         1 <0>         0.0000
     23 H11         3.1282   -1.2954   -0.1262 H         1 <0>         0.0000
     24 H12         2.9814    0.4260    0.3812 H         1 <0>         0.0000
     25 H13        -1.5129   -0.3231   -1.1485 H         1 <0>         0.0000
     26 H14        -1.3542    1.0509    1.4545 H         1 <0>         0.0000
@<TRIPOS>BOND
     1    1    3 1
     2    1    8 am
     3    1   10 2
     4    2    7 1
     5    2    9 am
     6    2   11 2
     7    3   13 1
     8    3   14 1
     9    3   15 1
    10    4    7 1
    11    4   16 1
    12    4   17 1
    13    4   18 1
    14    5    9 1
    15    5   19 1
    16    5   20 1
    17    5   21 1
    18    6   12 1
    19    6   22 1
    20    6   23 1
    21    6   24 1
    22    7    8 1
    23    7   25 1
    24    8   26 1
    25    9   12 1
