@<TRIPOS>MOLECULE
*****
   26    26     0     0     0
SMALL
NO_CHARGES

@<TRIPOS>ATOM
      1 C1          1.9107   -1.2562   -0.3831 C.ar      1 <0>         0.0000
      2 C2          0.9630   -2.0423    0.2810 C.ar      1 <0>         0.0000
      3 C3          2.7079   -0.3679    0.3472 C.ar      1 <0>         0.0000
      4 C4          0.8112   -1.9400    1.6672 C.ar      1 <0>         0.0000
      5 C5          2.5582   -0.2698    1.7333 C.ar      1 <0>         0.0000
      6 C6          1.6092   -1.0537    2.4042 C.ar      1 <0>         0.0000
      7 C7          0.9851    1.2866    6.2914 C.2       1 <0>         0.0000
      8 C8          0.8697    1.2982    7.8067 C.3       1 <0>         0.0000
      9 C9          0.3379    0.1425    4.2131 C.3       1 <0>         0.0000
     10 C10         1.4212   -0.8966    3.8990 C.3       1 <0>         0.0000
     11 N1          0.1952    0.3726    5.6416 N.am      1 <0>         0.0000
     12 O1          1.7230    2.0691    5.6916 O.2       1 <0>         0.0000
     13 O2          0.9932   -2.1089    4.5407 O.3       1 <0>         0.0000
     14 H1          2.0294   -1.3368   -1.4606 H         1 <0>         0.0000
     15 H2          0.3418   -2.7350   -0.2815 H         1 <0>         0.0000
     16 H3          3.4484    0.2440   -0.1616 H         1 <0>         0.0000
     17 H4          0.0770   -2.5498    2.1865 H         1 <0>         0.0000
     18 H5          3.1799    0.4213    2.2990 H         1 <0>         0.0000
     19 H6          1.8578    1.1105    8.2357 H         1 <0>         0.0000
     20 H7          0.5582    2.2965    8.1254 H         1 <0>         0.0000
     21 H8          0.1619    0.5625    8.1988 H         1 <0>         0.0000
     22 H9         -0.6175   -0.2051    3.8075 H         1 <0>         0.0000
     23 H10         0.5954    1.0909    3.7415 H         1 <0>         0.0000
     24 H11         2.3600   -0.5473    4.3491 H         1 <0>         0.0000
     25 H12        -0.2013   -0.3839    6.1838 H         1 <0>         0.0000
     26 H13         1.6690   -2.7865    4.3805 H         1 <0>         0.0000
@<TRIPOS>BOND
     1    1    3 ar
     2    1    2 ar
     3    1   14 1
     4    2    4 ar
     5    2   15 1
     6    3    5 ar
     7    3   16 1
     8    4    6 ar
     9    4   17 1
    10    5    6 ar
    11    5   18 1
    12    6   10 1
    13    7    8 1
    14    7   11 am
    15    7   12 2
    16    8   19 1
    17    8   20 1
    18    8   21 1
    19    9   10 1
    20    9   11 1
    21    9   22 1
    22    9   23 1
    23   10   13 1
    24   10   24 1
    25   11   25 1
    26   13   26 1
