@<TRIPOS>MOLECULE
*****
   27    28     0     0     0
SMALL
NO_CHARGES

@<TRIPOS>ATOM
      1 C1         -1.0504   -0.6899    2.4092 C.ar      1 <0>         0.0000
      2 C2          0.8907   -5.5987    6.3416 C.ar      1 <0>         0.0000
      3 C3         -0.0579   -0.3080    1.5001 C.ar      1 <0>         0.0000
      4 C4          0.4820   -6.2118    5.1532 C.ar      1 <0>         0.0000
      5 C5         -0.6659   -1.2909    3.6051 C.ar      1 <0>         0.0000
      6 C6          1.1264   -4.2259    6.3741 C.ar      1 <0>         0.0000
      7 C7          1.2754   -0.5481    1.8366 C.ar      1 <0>         0.0000
      8 C8          0.3247   -5.3981    4.0319 C.ar      1 <0>         0.0000
      9 C9          0.6987   -1.4894    3.8368 C.ar      1 <0>         0.0000
     10 C10         0.9407   -3.5010    5.1810 C.ar      1 <0>         0.0000
     11 C11         1.7772   -1.3012    6.0300 C.2       1 <0>         0.0000
     12 C12         1.8740    0.1823    5.7226 C.3       1 <0>         0.0000
     13 N1          1.6549   -1.1317    2.9836 N.ar      1 <0>         0.0000
     14 N2          0.5478   -4.0794    4.0392 N.ar      1 <0>         0.0000
     15 N3          1.1232   -2.0912    5.0778 N.am      1 <0>         0.0000
     16 O1          2.2407   -1.7613    7.0675 O.2       1 <0>         0.0000
     17 H1         -2.1014   -0.5201    2.1906 H         1 <0>         0.0000
     18 H2          1.0268   -6.1839    7.2476 H         1 <0>         0.0000
     19 H3         -0.3077    0.1645    0.5547 H         1 <0>         0.0000
     20 H4          0.2922   -7.2793    5.0950 H         1 <0>         0.0000
     21 H5         -1.3928   -1.6130    4.3437 H         1 <0>         0.0000
     22 H6          1.4528   -3.7294    7.2747 H         1 <0>         0.0000
     23 H7          2.0782   -0.2636    1.1585 H         1 <0>         0.0000
     24 H8          0.0081   -5.8187    3.0784 H         1 <0>         0.0000
     25 H9          0.9222    0.6006    5.3845 H         1 <0>         0.0000
     26 H10         2.6084    0.3549    4.9318 H         1 <0>         0.0000
     27 H11         2.1969    0.6824    6.6358 H         1 <0>         0.0000
@<TRIPOS>BOND
     1    1    3 ar
     2    1    5 ar
     3    1   17 1
     4    2    4 ar
     5    2    6 ar
     6    2   18 1
     7    3    7 ar
     8    3   19 1
     9    4    8 ar
    10    4   20 1
    11    5    9 ar
    12    5   21 1
    13    6   10 ar
    14    6   22 1
    15    7   13 ar
    16    7   23 1
    17    8   14 ar
    18    8   24 1
    19    9   13 ar
    20    9   15 1
    21   10   14 ar
    22   10   15 1
    23   11   12 1
    24   11   15 am
    25   11   16 2
    26   12   25 1
    27   12   26 1
    28   12   27 1
