@<TRIPOS>MOLECULE
*****
   24    23     0     0     0
SMALL
NO_CHARGES

@<TRIPOS>ATOM
      1 C1          0.3505   -2.8104    2.1976 C.2       1 <0>         0.0000
      2 C2          2.5606   -1.8555    1.6363 C.3       1 <0>         0.0000
      3 C3         -0.7192   -4.4599    7.2569 C.3       1 <0>         0.0000
      4 C4         -1.0481   -3.0522    4.2388 C.3       1 <0>         0.0000
      5 C5         -2.1901   -3.7767    4.9619 C.3       1 <0>         0.0000
      6 C6         -0.3731   -3.8302    3.0951 C.3       1 <0>         0.0000
      7 N1          0.5636   -4.8437    3.6135 N.3       1 <0>         0.0000
      8 N2          1.7008   -2.7896    2.3420 N.am      1 <0>         0.0000
      9 O1         -0.2844   -2.0709    1.4419 O.2       1 <0>         0.0000
     10 S1         -1.7549   -5.2473    5.9755 S.3       1 <0>         0.0000
     11 H1          3.4084   -2.3805    1.1840 H         1 <0>         0.0000
     12 H2          2.9443   -1.0774    2.3076 H         1 <0>         0.0000
     13 H3          1.9718   -1.3794    0.8511 H         1 <0>         0.0000
     14 H4         -0.4884   -5.2301    7.9965 H         1 <0>         0.0000
     15 H5         -1.2650   -3.6502    7.7497 H         1 <0>         0.0000
     16 H6          0.2167   -4.0778    6.8421 H         1 <0>         0.0000
     17 H7         -1.4756   -2.1432    3.8025 H         1 <0>         0.0000
     18 H8         -0.2800   -2.7319    4.9520 H         1 <0>         0.0000
     19 H9         -2.9205   -4.1486    4.2359 H         1 <0>         0.0000
     20 H10        -2.7158   -3.0718    5.6149 H         1 <0>         0.0000
     21 H11        -1.1652   -4.2565    2.4620 H         1 <0>         0.0000
     22 H12         0.7857   -5.5096    2.8741 H         1 <0>         0.0000
     23 H13         0.1022   -5.3754    4.3530 H         1 <0>         0.0000
     24 H14         2.0739   -3.4326    3.0346 H         1 <0>         0.0000
@<TRIPOS>BOND
     1    1    6 1
     2    1    8 am
     3    1    9 2
     4    2    8 1
     5    2   11 1
     6    2   12 1
     7    2   13 1
     8    3   10 1
     9    3   14 1
    10    3   15 1
    11    3   16 1
    12    4    5 1
    13    4    6 1
    14    4   17 1
    15    4   18 1
    16    5   10 1
    17    5   19 1
    18    5   20 1
    19    6    7 1
    20    6   21 1
    21    7   22 1
    22    7   23 1
    23    8   24 1
