@<TRIPOS>MOLECULE
*****
   24    23     0     0     0
SMALL
NO_CHARGES

@<TRIPOS>ATOM
      1 C1          0.8242   -2.9107    2.0019 C.2       1 <0>         0.0000
      2 C2          1.1904   -3.0691   -0.4392 C.3       1 <0>         0.0000
      3 C3          0.5610   -2.8305    7.7983 C.3       1 <0>         0.0000
      4 C4          0.0231   -2.6975    4.3955 C.3       1 <0>         0.0000
      5 C5          1.2730   -2.2374    5.1625 C.3       1 <0>         0.0000
      6 C6          0.2950   -3.6676    3.2355 C.3       1 <0>         0.0000
      7 N1          1.3053   -4.6750    3.6001 N.3       1 <0>         0.0000
      8 N2          0.7349   -3.6170    0.8320 N.am      1 <0>         0.0000
      9 O1          1.3171   -1.7857    2.0560 O.2       1 <0>         0.0000
     10 S1          1.7744   -3.3496    6.5366 S.3       1 <0>         0.0000
     11 H1          0.4137   -2.4691   -0.9294 H         1 <0>         0.0000
     12 H2          1.4868   -3.8849   -1.1039 H         1 <0>         0.0000
     13 H3          2.0513   -2.4266   -0.2506 H         1 <0>         0.0000
     14 H4          0.7389   -3.4377    8.6896 H         1 <0>         0.0000
     15 H5         -0.4679   -2.9963    7.4647 H         1 <0>         0.0000
     16 H6          0.6931   -1.7760    8.0585 H         1 <0>         0.0000
     17 H7         -0.6835   -3.1687    5.0883 H         1 <0>         0.0000
     18 H8         -0.4818   -1.8203    3.9787 H         1 <0>         0.0000
     19 H9          1.1123   -1.2429    5.5893 H         1 <0>         0.0000
     20 H10         2.1306   -2.1714    4.4936 H         1 <0>         0.0000
     21 H11        -0.6758   -4.1167    2.9547 H         1 <0>         0.0000
     22 H12         1.3405   -5.4248    2.9136 H         1 <0>         0.0000
     23 H13         1.0899   -5.0811    4.5091 H         1 <0>         0.0000
     24 H14         0.1733   -4.4576    0.8196 H         1 <0>         0.0000
@<TRIPOS>BOND
     1    1    6 1
     2    1    8 am
     3    1    9 2
     4    2    8 1
     5    2   11 1
     6    2   12 1
     7    2   13 1
     8    3   10 1
     9    3   14 1
    10    3   15 1
    11    3   16 1
    12    4    5 1
    13    4    6 1
    14    4   17 1
    15    4   18 1
    16    5   10 1
    17    5   19 1
    18    5   20 1
    19    6    7 1
    20    6   21 1
    21    7   22 1
    22    7   23 1
    23    8   24 1
