@<TRIPOS>MOLECULE
*****
   30    30     0     0     0
SMALL
NO_CHARGES

@<TRIPOS>ATOM
      1 C1          5.0176   -1.9639   -0.7167 C.ar      1 <0>         0.0000
      2 C2          4.6007   -0.6813   -1.0922 C.ar      1 <0>         0.0000
      3 C3          4.5873   -2.5005    0.5013 C.ar      1 <0>         0.0000
      4 C4          3.7692    0.0628   -0.2502 C.ar      1 <0>         0.0000
      5 C5          3.7547   -1.7547    1.3418 C.ar      1 <0>         0.0000
      6 C6          3.3465   -0.4655    0.9775 C.ar      1 <0>         0.0000
      7 C7          4.8047   -0.2438    4.0030 C.2       1 <0>         0.0000
      8 C8          6.1876   -0.8661    4.0836 C.3       1 <0>         0.0000
      9 C9          2.6959    2.0231    3.8946 C.3       1 <0>         0.0000
     10 C10         2.5194    0.3752    1.9237 C.3       1 <0>         0.0000
     11 C11         3.4212    1.3846    2.7034 C.3       1 <0>         0.0000
     12 N1          4.7000    0.8241    3.1479 N.am      1 <0>         0.0000
     13 O1          3.8511   -0.6802    4.6488 O.2       1 <0>         0.0000
     14 O2          1.5519    2.7404    3.3845 O.3       1 <0>         0.0000
     15 O3          1.5512    1.0969    1.1629 O.3       1 <0>         0.0000
     16 H1          5.6618   -2.5436   -1.3731 H         1 <0>         0.0000
     17 H2          4.9183   -0.2648   -2.0451 H         1 <0>         0.0000
     18 H3          4.8930   -3.5023    0.7935 H         1 <0>         0.0000
     19 H4          3.4232    1.0485   -0.5474 H         1 <0>         0.0000
     20 H5          3.4215   -2.1742    2.2879 H         1 <0>         0.0000
     21 H6          6.3241   -1.3014    5.0744 H         1 <0>         0.0000
     22 H7          6.2486   -1.6698    3.3418 H         1 <0>         0.0000
     23 H8          6.9899   -0.1505    3.8819 H         1 <0>         0.0000
     24 H9          3.3804    2.7143    4.4017 H         1 <0>         0.0000
     25 H10         2.3877    1.2450    4.5973 H         1 <0>         0.0000
     26 H11         2.0288   -0.2819    2.6526 H         1 <0>         0.0000
     27 H12         3.6669    2.1821    1.9939 H         1 <0>         0.0000
     28 H13         5.4802    0.9668    2.5198 H         1 <0>         0.0000
     29 H14         0.9535    2.9281    4.1230 H         1 <0>         0.0000
     30 H15         1.1567    1.7545    1.7666 H         1 <0>         0.0000
@<TRIPOS>BOND
     1    1    3 ar
     2    1    2 ar
     3    1   16 1
     4    2    4 ar
     5    2   17 1
     6    3    5 ar
     7    3   18 1
     8    4    6 ar
     9    4   19 1
    10    5    6 ar
    11    5   20 1
    12    6   10 1
    13    7    8 1
    14    7   12 am
    15    7   13 2
    16    8   21 1
    17    8   22 1
    18    8   23 1
    19    9   11 1
    20    9   14 1
    21    9   24 1
    22    9   25 1
    23   10   11 1
    24   10   15 1
    25   10   26 1
    26   11   12 1
    27   11   27 1
    28   12   28 1
    29   14   29 1
    30   15   30 1
