@<TRIPOS>MOLECULE
*****
   36    38     0     0     0
SMALL
NO_CHARGES

@<TRIPOS>ATOM
      1 C1         -4.2705    1.3733   -8.4072 C.ar      1 <0>         0.0000
      2 C2         -5.5999    0.9101   -8.2991 C.ar      1 <0>         0.0000
      3 C3         -3.4959    1.6169   -7.2759 C.ar      1 <0>         0.0000
      4 C4         -6.1773    0.6676   -7.0533 C.ar      1 <0>         0.0000
      5 C5         -4.5932    1.0743   -3.8282 C.2       1 <0>         0.0000
      6 C6         -4.0578    1.4024   -6.0041 C.ar      1 <0>         0.0000
      7 C7         -3.5704    1.5124   -4.6465 C.2       1 <0>         0.0000
      8 C8         -5.3929    0.9120   -5.9201 C.ar      1 <0>         0.0000
      9 C9         -2.2367    1.8826   -4.1157 C.2       1 <0>         0.0000
     10 C10         0.0297    4.9908   -6.0264 C.3       1 <0>         0.0000
     11 C11        -1.3961    4.6638   -6.4865 C.3       1 <0>         0.0000
     12 C12         0.6831    3.7512   -5.4031 C.3       1 <0>         0.0000
     13 C13        -2.2137    4.0494   -5.3479 C.3       1 <0>         0.0000
     14 C14        -0.1813    3.1673   -4.2829 C.3       1 <0>         0.0000
     15 C15        -6.9598    0.2360   -4.0670 C.3       1 <0>         0.0000
     16 N1         -5.6945    0.7288   -4.5774 N.pl3     1 <0>         0.0000
     17 N2         -1.5331    2.8784   -4.7759 N.am      1 <0>         0.0000
     18 O1         -1.7622    1.2876   -3.1409 O.2       1 <0>         0.0000
     19 H1         -3.8447    1.5356   -9.3939 H         1 <0>         0.0000
     20 H2         -6.1792    0.7303   -9.2007 H         1 <0>         0.0000
     21 H3         -2.4686    1.9540   -7.3707 H         1 <0>         0.0000
     22 H4         -7.1953    0.2961   -6.9724 H         1 <0>         0.0000
     23 H5         -4.5982    0.9851   -2.7500 H         1 <0>         0.0000
     24 H6         -0.0059    5.7963   -5.2799 H         1 <0>         0.0000
     25 H7          0.6283    5.3627   -6.8656 H         1 <0>         0.0000
     26 H8         -1.9067    5.5650   -6.8449 H         1 <0>         0.0000
     27 H9         -1.3598    3.9580   -7.3249 H         1 <0>         0.0000
     28 H10         0.8287    2.9842   -6.1741 H         1 <0>         0.0000
     29 H11         1.6719    3.9968   -4.9993 H         1 <0>         0.0000
     30 H12        -2.3488    4.8029   -4.5538 H         1 <0>         0.0000
     31 H13        -3.2054    3.7654   -5.6939 H         1 <0>         0.0000
     32 H14         0.2397    2.2409   -3.8935 H         1 <0>         0.0000
     33 H15        -0.2366    3.8748   -3.4400 H         1 <0>         0.0000
     34 H16        -7.7810    0.9017   -4.3539 H         1 <0>         0.0000
     35 H17        -7.1682   -0.7683   -4.4514 H         1 <0>         0.0000
     36 H18        -6.9125    0.1893   -2.9780 H         1 <0>         0.0000
@<TRIPOS>BOND
     1    1    2 ar
     2    1    3 ar
     3    1   19 1
     4    2    4 ar
     5    2   20 1
     6    3    6 ar
     7    3   21 1
     8    4    8 ar
     9    4   22 1
    10    5    7 2
    11    5   16 1
    12    5   23 1
    13    6    7 1
    14    6    8 ar
    15    7    9 1
    16    8   16 1
    17    9   17 am
    18    9   18 2
    19   10   12 1
    20   10   11 1
    21   10   24 1
    22   10   25 1
    23   11   13 1
    24   11   26 1
    25   11   27 1
    26   12   14 1
    27   12   28 1
    28   12   29 1
    29   13   17 1
    30   13   30 1
    31   13   31 1
    32   14   17 1
    33   14   32 1
    34   14   33 1
    35   15   16 1
    36   15   34 1
    37   15   35 1
    38   15   36 1
