@<TRIPOS>MOLECULE
*****
   30    31     0     0     0
SMALL
NO_CHARGES

@<TRIPOS>ATOM
      1 C1         -3.9512    0.1346    2.2849 C.ar      1 <0>         0.0000
      2 C2         -2.6458    0.5990    2.1197 C.ar      1 <0>         0.0000
      3 C3         -4.1754   -1.1961    1.9114 C.ar      1 <0>         0.0000
      4 C4         -1.9845   -1.4310    1.3244 C.ar      1 <0>         0.0000
      5 C5          1.2757   -3.0290    0.4069 C.3       1 <0>         0.0000
      6 C6          0.3945   -1.0059   -0.7830 C.3       1 <0>         0.0000
      7 C7          0.9901   -3.8453   -0.8578 C.3       1 <0>         0.0000
      8 C8          0.1239   -1.8964   -1.9950 C.3       1 <0>         0.0000
      9 C9          0.3530   -1.8098    0.5287 C.3       1 <0>         0.0000
     10 C10         0.8855   -3.8040   -3.2641 C.3       1 <0>         0.0000
     11 N1         -1.6546   -0.1590    1.6414 N.ar      1 <0>         0.0000
     12 N2         -3.2175   -1.9879    1.4326 N.ar      1 <0>         0.0000
     13 N3          1.0747   -3.0115   -2.0560 N.3       1 <0>         0.0000
     14 N4         -1.0000   -2.2529    0.8674 N.pl3     1 <0>         0.0000
     15 H1         -4.7435    0.7661    2.6719 H         1 <0>         0.0000
     16 H2         -2.3793    1.6240    2.3775 H         1 <0>         0.0000
     17 H3         -5.1659   -1.6427    1.9988 H         1 <0>         0.0000
     18 H4          1.1816   -3.6647    1.2943 H         1 <0>         0.0000
     19 H5          2.3093   -2.6715    0.3603 H         1 <0>         0.0000
     20 H6          1.3894   -0.5568   -0.8845 H         1 <0>         0.0000
     21 H7         -0.3347   -0.1923   -0.7359 H         1 <0>         0.0000
     22 H8          1.7255   -4.6527   -0.9434 H         1 <0>         0.0000
     23 H9         -0.0027   -4.3397   -0.7843 H         1 <0>         0.0000
     24 H10        -0.9216   -2.2644   -1.9635 H         1 <0>         0.0000
     25 H11         0.2242   -1.3098   -2.9145 H         1 <0>         0.0000
     26 H12         0.6912   -1.1700    1.3474 H         1 <0>         0.0000
     27 H13         1.6395   -4.5967   -3.3102 H         1 <0>         0.0000
     28 H14         1.0079   -3.1678   -4.1466 H         1 <0>         0.0000
     29 H15        -0.1143   -4.2771   -3.3185 H         1 <0>         0.0000
     30 H16        -1.3224   -3.1590    0.5550 H         1 <0>         0.0000
@<TRIPOS>BOND
     1    1    3 ar
     2    1    2 ar
     3    1   15 1
     4    2   11 ar
     5    2   16 1
     6    3   12 ar
     7    3   17 1
     8    4   12 ar
     9    4   11 ar
    10    4   14 1
    11    5    7 1
    12    5    9 1
    13    5   18 1
    14    5   19 1
    15    6    8 1
    16    6    9 1
    17    6   20 1
    18    6   21 1
    19    7   13 1
    20    7   22 1
    21    7   23 1
    22    8   13 1
    23    8   24 1
    24    8   25 1
    25    9   14 1
    26    9   26 1
    27   10   13 1
    28   10   27 1
    29   10   28 1
    30   10   29 1
    31   14   30 1
