@<TRIPOS>MOLECULE
*****
   30    31     0     0     0
SMALL
NO_CHARGES

@<TRIPOS>ATOM
      1 C1          4.0886   -0.3094    7.3664 C.ar      1 <0>         0.0000
      2 C2          1.9045   -2.1829    0.2799 C.ar      1 <0>         0.0000
      3 C3          4.4253   -0.1993    6.0131 C.ar      1 <0>         0.0000
      4 C4          2.8214   -0.7909    7.7146 C.ar      1 <0>         0.0000
      5 C5          0.7807   -1.4905    0.7475 C.ar      1 <0>         0.0000
      6 C6          2.8268   -2.6683    1.2030 C.ar      1 <0>         0.0000
      7 C7          3.5158   -0.5603    5.0170 C.ar      1 <0>         0.0000
      8 C8          1.9153   -1.1785    6.7267 C.ar      1 <0>         0.0000
      9 C9          0.6151   -1.2600    2.1103 C.ar      1 <0>         0.0000
     10 C10         2.6454   -2.4988    2.5849 C.ar      1 <0>         0.0000
     11 C11         2.2547   -1.0702    5.3674 C.ar      1 <0>         0.0000
     12 C12         1.5406   -1.7456    3.0554 C.ar      1 <0>         0.0000
     13 C13         3.6530   -3.1699    3.4592 C.2       1 <0>         0.0000
     14 C14         4.0613   -4.1676    5.5580 C.3       1 <0>         0.0000
     15 N1          1.3057   -1.4689    4.4055 N.pl3     1 <0>         0.0000
     16 O1          4.8281   -3.3055    3.1602 O.2       1 <0>         0.0000
     17 O2          3.1169   -3.6515    4.5997 O.3       1 <0>         0.0000
     18 H1          4.7994   -0.0222    8.1360 H         1 <0>         0.0000
     19 H2          2.0542   -2.3432   -0.7837 H         1 <0>         0.0000
     20 H3          5.4010    0.1825    5.7238 H         1 <0>         0.0000
     21 H4          2.5414   -0.8829    8.7611 H         1 <0>         0.0000
     22 H5          0.0451   -1.1030    0.0472 H         1 <0>         0.0000
     23 H6          3.7039   -3.2169    0.8736 H         1 <0>         0.0000
     24 H7          3.7877   -0.4460    3.9729 H         1 <0>         0.0000
     25 H8          0.9467   -1.5894    7.0024 H         1 <0>         0.0000
     26 H9         -0.2308   -0.6719    2.4602 H         1 <0>         0.0000
     27 H10         3.4605   -4.4995    6.4043 H         1 <0>         0.0000
     28 H11         4.7465   -3.3740    5.8659 H         1 <0>         0.0000
     29 H12         4.6277   -4.9986    5.1318 H         1 <0>         0.0000
     30 H13         0.3531   -1.2043    4.6200 H         1 <0>         0.0000
@<TRIPOS>BOND
     1    1    4 ar
     2    1    3 ar
     3    1   18 1
     4    2    5 ar
     5    2    6 ar
     6    2   19 1
     7    3    7 ar
     8    3   20 1
     9    4    8 ar
    10    4   21 1
    11    5    9 ar
    12    5   22 1
    13    6   10 ar
    14    6   23 1
    15    7   11 ar
    16    7   24 1
    17    8   11 ar
    18    8   25 1
    19    9   12 ar
    20    9   26 1
    21   10   12 ar
    22   10   13 1
    23   11   15 1
    24   12   15 1
    25   13   16 2
    26   13   17 1
    27   14   17 1
    28   14   27 1
    29   14   28 1
    30   14   29 1
    31   15   30 1
