@<TRIPOS>MOLECULE
*****
   31    33     0     0     0
SMALL
NO_CHARGES

@<TRIPOS>ATOM
      1 C1          1.7317   -1.0814    0.2110 C.ar      1 <0>         0.0000
      2 C2          0.3718   -1.1715    0.5362 C.ar      1 <0>         0.0000
      3 C3          7.3411   -3.7308   -0.7794 C.ar      1 <0>         0.0000
      4 C4          7.8627   -3.2407    0.4287 C.ar      1 <0>         0.0000
      5 C5          2.5821   -2.1432    0.5188 C.ar      1 <0>         0.0000
      6 C6         -0.1193   -2.3089    1.1733 C.ar      1 <0>         0.0000
      7 C7          6.0445   -4.2215   -0.8138 C.ar      1 <0>         0.0000
      8 C8          7.0311   -3.2724    1.5454 C.ar      1 <0>         0.0000
      9 C9          2.1104   -3.3032    1.1515 C.ar      1 <0>         0.0000
     10 C10         0.7455   -3.3665    1.4871 C.ar      1 <0>         0.0000
     11 C11         5.2821   -4.2096    0.3800 C.ar      1 <0>         0.0000
     12 C12         2.2256   -5.7298    1.7571 C.3       1 <0>         0.0000
     13 C13         1.0890   -5.3823    2.7058 C.3       1 <0>         0.0000
     14 C14         3.0442   -4.4703    1.4570 C.3       1 <0>         0.0000
     15 N1          5.7727   -3.7373    1.5368 N.ar      1 <0>         0.0000
     16 N2          3.9983   -4.7281    0.3816 N.pl3     1 <0>         0.0000
     17 O1          0.1740   -4.4493    2.1111 O.3       1 <0>         0.0000
     18 H1          2.1230   -0.1930   -0.2770 H         1 <0>         0.0000
     19 H2         -0.3046   -0.3543    0.2989 H         1 <0>         0.0000
     20 H3          7.9436   -3.7274   -1.6845 H         1 <0>         0.0000
     21 H4          8.8718   -2.8475    0.4985 H         1 <0>         0.0000
     22 H5          3.6362   -2.0778    0.2649 H         1 <0>         0.0000
     23 H6         -1.1680   -2.4006    1.4416 H         1 <0>         0.0000
     24 H7          5.6148   -4.6099   -1.7340 H         1 <0>         0.0000
     25 H8          7.3857   -2.9004    2.5061 H         1 <0>         0.0000
     26 H9          2.8694   -6.4979    2.1966 H         1 <0>         0.0000
     27 H10         1.8034   -6.1377    0.8305 H         1 <0>         0.0000
     28 H11         0.4859   -6.2574    2.9563 H         1 <0>         0.0000
     29 H12         1.4799   -4.9500    3.6379 H         1 <0>         0.0000
     30 H13         3.6494   -4.2214    2.3314 H         1 <0>         0.0000
     31 H14         3.5832   -4.8370   -0.5362 H         1 <0>         0.0000
@<TRIPOS>BOND
     1    1    2 ar
     2    1    5 ar
     3    1   18 1
     4    2    6 ar
     5    2   19 1
     6    3    4 ar
     7    3    7 ar
     8    3   20 1
     9    4    8 ar
    10    4   21 1
    11    5    9 ar
    12    5   22 1
    13    6   10 ar
    14    6   23 1
    15    7   11 ar
    16    7   24 1
    17    8   15 ar
    18    8   25 1
    19    9   10 ar
    20    9   14 1
    21   10   17 1
    22   11   15 ar
    23   11   16 1
    24   12   13 1
    25   12   14 1
    26   12   26 1
    27   12   27 1
    28   13   17 1
    29   13   28 1
    30   13   29 1
    31   14   16 1
    32   14   30 1
    33   16   31 1
