@<TRIPOS>MOLECULE
*****
   30    30     0     0     0
SMALL
NO_CHARGES

@<TRIPOS>ATOM
      1 C1          5.2396   -1.8824   -1.5120 C.ar      1 <0>         0.0000
      2 C2          5.6381   -2.2158   -0.2143 C.ar      1 <0>         0.0000
      3 C3          4.1794   -0.9887   -1.7012 C.ar      1 <0>         0.0000
      4 C4          4.9808   -1.6546    0.8849 C.ar      1 <0>         0.0000
      5 C5          3.5292   -0.4239   -0.6016 C.ar      1 <0>         0.0000
      6 C6          3.9273   -0.7514    0.7012 C.ar      1 <0>         0.0000
      7 C7          6.4908    1.3027    2.3632 C.2       1 <0>         0.0000
      8 C8          7.7071    0.7850    3.1125 C.3       1 <0>         0.0000
      9 C9          3.1543    2.1602    3.1127 C.3       1 <0>         0.0000
     10 C10         3.2740   -0.0865    1.8910 C.3       1 <0>         0.0000
     11 C11         4.0100    1.2418    2.2466 C.3       1 <0>         0.0000
     12 N1          5.2784    0.9307    2.8860 N.am      1 <0>         0.0000
     13 O1          6.5970    1.9909    1.3507 O.2       1 <0>         0.0000
     14 O2          2.6247    1.3782    4.2041 O.3       1 <0>         0.0000
     15 O3          1.8954    0.1528    1.6038 O.3       1 <0>         0.0000
     16 H1          5.7472   -2.3184   -2.3688 H         1 <0>         0.0000
     17 H2          6.4552   -2.9156   -0.0575 H         1 <0>         0.0000
     18 H3          3.8603   -0.7310   -2.7080 H         1 <0>         0.0000
     19 H4          5.2887   -1.9267    1.8921 H         1 <0>         0.0000
     20 H5          2.7018    0.2642   -0.7464 H         1 <0>         0.0000
     21 H6          8.1939    0.0249    2.4938 H         1 <0>         0.0000
     22 H7          8.4160    1.6048    3.2480 H         1 <0>         0.0000
     23 H8          7.4699    0.3457    4.0862 H         1 <0>         0.0000
     24 H9          2.3377    2.5786    2.5127 H         1 <0>         0.0000
     25 H10         3.7775    2.9808    3.4866 H         1 <0>         0.0000
     26 H11         3.3558   -0.7523    2.7602 H         1 <0>         0.0000
     27 H12         4.2555    1.7790    1.3282 H         1 <0>         0.0000
     28 H13         5.2535    0.3968    3.7446 H         1 <0>         0.0000
     29 H14         2.1786    1.9752    4.8237 H         1 <0>         0.0000
     30 H15         1.4757    0.3605    2.4558 H         1 <0>         0.0000
@<TRIPOS>BOND
     1    1    3 ar
     2    1    2 ar
     3    1   16 1
     4    2    4 ar
     5    2   17 1
     6    3    5 ar
     7    3   18 1
     8    4    6 ar
     9    4   19 1
    10    5    6 ar
    11    5   20 1
    12    6   10 1
    13    7    8 1
    14    7   12 am
    15    7   13 2
    16    8   21 1
    17    8   22 1
    18    8   23 1
    19    9   11 1
    20    9   14 1
    21    9   24 1
    22    9   25 1
    23   10   11 1
    24   10   15 1
    25   10   26 1
    26   11   12 1
    27   11   27 1
    28   12   28 1
    29   14   29 1
    30   15   30 1
