@<TRIPOS>MOLECULE
*****
   36    37     0     0     0
SMALL
NO_CHARGES

@<TRIPOS>ATOM
      1 C1          0.2295    1.4044   -1.5095 C.2       1 <0>         0.0000
      2 C2         -0.8834    1.9643   -5.1717 C.3       1 <0>         0.0000
      3 C3         -2.2645    1.3225   -4.9881 C.3       1 <0>         0.0000
      4 C4         -0.2465    2.2662   -3.8091 C.3       1 <0>         0.0000
      5 C5         -2.1541    0.0805   -4.0898 C.3       1 <0>         0.0000
      6 C6          2.6734    1.1913   -2.1367 C.3       1 <0>         0.0000
      7 C7          2.0095    1.8955    0.0985 C.3       1 <0>         0.0000
      8 C8          3.5333    2.4517   -2.2605 C.3       1 <0>         0.0000
      9 C9          2.8732    3.1460   -0.0551 C.3       1 <0>         0.0000
     10 C10        -0.2130    0.9976   -2.9187 C.3       1 <0>         0.0000
     11 C11         4.8829    4.0458   -1.0528 C.3       1 <0>         0.0000
     12 N1         -1.5018    0.3177   -2.8006 N.3       1 <0>         0.0000
     13 N2          1.5665    1.4196   -1.2128 N.am      1 <0>         0.0000
     14 N3          4.0058    2.8858   -0.9475 N.3       1 <0>         0.0000
     15 O1         -0.6258    1.7477   -0.6863 O.2       1 <0>         0.0000
     16 H1         -0.2358    1.2766   -5.7342 H         1 <0>         0.0000
     17 H2         -0.9556    2.8831   -5.7650 H         1 <0>         0.0000
     18 H3         -2.9469    2.0480   -4.5250 H         1 <0>         0.0000
     19 H4         -2.6954    1.0479   -5.9590 H         1 <0>         0.0000
     20 H5          0.7661    2.6685   -3.9377 H         1 <0>         0.0000
     21 H6         -0.8327    3.0336   -3.2884 H         1 <0>         0.0000
     22 H7         -3.1429   -0.3460   -3.8914 H         1 <0>         0.0000
     23 H8         -1.5805   -0.6925   -4.6213 H         1 <0>         0.0000
     24 H9          2.3056    0.9013   -3.1185 H         1 <0>         0.0000
     25 H10         3.2936    0.3717   -1.7514 H         1 <0>         0.0000
     26 H11         2.5961    1.1031    0.5800 H         1 <0>         0.0000
     27 H12         1.1258    2.1017    0.7005 H         1 <0>         0.0000
     28 H13         4.4010    2.2328   -2.8930 H         1 <0>         0.0000
     29 H14         2.9420    3.2432   -2.7630 H         1 <0>         0.0000
     30 H15         2.2434    3.9759   -0.4299 H         1 <0>         0.0000
     31 H16         3.2612    3.4395    0.9263 H         1 <0>         0.0000
     32 H17         0.4832    0.2778   -3.3636 H         1 <0>         0.0000
     33 H18         5.7433    3.8028   -1.6848 H         1 <0>         0.0000
     34 H19         5.2568    4.3155   -0.0600 H         1 <0>         0.0000
     35 H20         4.3780    4.9315   -1.4829 H         1 <0>         0.0000
     36 H21        -2.0919    0.8617   -2.1735 H         1 <0>         0.0000
@<TRIPOS>BOND
     1    1   10 1
     2    1   13 am
     3    1   15 2
     4    2    3 1
     5    2    4 1
     6    2   16 1
     7    2   17 1
     8    3    5 1
     9    3   18 1
    10    3   19 1
    11    4   10 1
    12    4   20 1
    13    4   21 1
    14    5   12 1
    15    5   22 1
    16    5   23 1
    17    6    8 1
    18    6   13 1
    19    6   24 1
    20    6   25 1
    21    7    9 1
    22    7   13 1
    23    7   26 1
    24    7   27 1
    25    8   14 1
    26    8   28 1
    27    8   29 1
    28    9   14 1
    29    9   30 1
    30    9   31 1
    31   10   12 1
    32   10   32 1
    33   11   14 1
    34   11   33 1
    35   11   34 1
    36   11   35 1
    37   12   36 1
