@<TRIPOS>MOLECULE
*****
   24    23     0     0     0
SMALL
NO_CHARGES

@<TRIPOS>ATOM
      1 C1         -2.0345   -4.1170    3.5928 C.2       1 <0>         0.0000
      2 C2         -1.3967   -4.7255    1.2847 C.3       1 <0>         0.0000
      3 C3         -2.7686   -0.0119    5.9903 C.3       1 <0>         0.0000
      4 C4         -3.1992   -3.3095    5.6843 C.3       1 <0>         0.0000
      5 C5         -4.0858   -2.2704    4.9960 C.3       1 <0>         0.0000
      6 C6         -2.9070   -4.5208    4.7971 C.3       1 <0>         0.0000
      7 N1         -2.1511   -5.5241    5.5695 N.3       1 <0>         0.0000
      8 N2         -2.1358   -4.9619    2.5191 N.am      1 <0>         0.0000
      9 O1         -1.2746   -3.1525    3.6046 O.2       1 <0>         0.0000
     10 S1         -4.4231   -0.7873    6.0152 S.3       1 <0>         0.0000
     11 H1         -1.9037   -4.0006    0.6362 H         1 <0>         0.0000
     12 H2         -1.2782   -5.6690    0.7459 H         1 <0>         0.0000
     13 H3         -0.4129   -4.3285    1.5380 H         1 <0>         0.0000
     14 H4         -2.8709    0.9672    6.4644 H         1 <0>         0.0000
     15 H5         -2.4224    0.1232    4.9622 H         1 <0>         0.0000
     16 H6         -2.0348   -0.5992    6.5468 H         1 <0>         0.0000
     17 H7         -2.2399   -2.8704    5.9654 H         1 <0>         0.0000
     18 H8         -3.6904   -3.6490    6.6038 H         1 <0>         0.0000
     19 H9         -5.0734   -2.6885    4.7712 H         1 <0>         0.0000
     20 H10        -3.6397   -1.9429    4.0525 H         1 <0>         0.0000
     21 H11        -3.8656   -4.9167    4.4103 H         1 <0>         0.0000
     22 H12        -1.9711   -6.3513    5.0031 H         1 <0>         0.0000
     23 H13        -2.7056   -5.8230    6.3702 H         1 <0>         0.0000
     24 H14        -2.9047   -5.6185    2.5009 H         1 <0>         0.0000
@<TRIPOS>BOND
     1    1    6 1
     2    1    8 am
     3    1    9 2
     4    2    8 1
     5    2   11 1
     6    2   12 1
     7    2   13 1
     8    3   10 1
     9    3   14 1
    10    3   15 1
    11    3   16 1
    12    4    5 1
    13    4    6 1
    14    4   17 1
    15    4   18 1
    16    5   10 1
    17    5   19 1
    18    5   20 1
    19    6    7 1
    20    6   21 1
    21    7   22 1
    22    7   23 1
    23    8   24 1
