@<TRIPOS>MOLECULE
*****
   31    31     0     0     0
SMALL
NO_CHARGES

@<TRIPOS>ATOM
      1 C1          3.3038   -1.2707   -2.6833 C.ar      1 <0>         0.0000
      2 C2          3.4496   -0.2523   -1.7434 C.ar      1 <0>         0.0000
      3 C3          2.3941   -2.2991   -2.4205 C.ar      1 <0>         0.0000
      4 C4          1.8040   -1.3662   -0.4135 C.ar      1 <0>         0.0000
      5 C5          2.6939   -0.2942   -0.5682 C.ar      1 <0>         0.0000
      6 C6          5.1935    0.9462    0.6672 C.2       1 <0>         0.0000
      7 C7          2.2986    0.4649    1.8900 C.2       1 <0>         0.0000
      8 C8          6.4705    1.7698    0.6475 C.3       1 <0>         0.0000
      9 C9          2.6971   -0.9629    3.8408 C.3       1 <0>         0.0000
     10 C10         3.8434    3.0460    0.4639 C.3       1 <0>         0.0000
     11 C11         2.7331    0.8354    0.4498 C.3       1 <0>         0.0000
     12 N1          1.6489   -2.3510   -1.3092 N.ar      1 <0>         0.0000
     13 N2          2.9533   -0.5714    2.4623 N.am      1 <0>         0.0000
     14 N3          4.0025    1.5909    0.4621 N.am      1 <0>         0.0000
     15 O1          5.2478   -0.2785    0.8412 O.2       1 <0>         0.0000
     16 O2          1.4060    1.1122    2.4446 O.2       1 <0>         0.0000
     17 H1          3.8844   -1.2735   -3.6016 H         1 <0>         0.0000
     18 H2          4.1511    0.5593   -1.9157 H         1 <0>         0.0000
     19 H3          2.2571   -3.1128   -3.1314 H         1 <0>         0.0000
     20 H4          1.1854   -1.4396    0.4786 H         1 <0>         0.0000
     21 H5          6.5337    2.4243    1.5231 H         1 <0>         0.0000
     22 H6          7.3062    1.0710    0.6755 H         1 <0>         0.0000
     23 H7          6.5503    2.3930   -0.2481 H         1 <0>         0.0000
     24 H8          3.1577   -0.2685    4.5539 H         1 <0>         0.0000
     25 H9          3.1015   -1.9641    4.0039 H         1 <0>         0.0000
     26 H10         1.6208   -0.9731    4.0241 H         1 <0>         0.0000
     27 H11         3.3674    3.3752   -0.4665 H         1 <0>         0.0000
     28 H12         4.8054    3.5447    0.5530 H         1 <0>         0.0000
     29 H13         3.2135    3.3542    1.3052 H         1 <0>         0.0000
     30 H14         1.9745    1.5614    0.1485 H         1 <0>         0.0000
     31 H15         3.7765   -0.9189    1.9740 H         1 <0>         0.0000
@<TRIPOS>BOND
     1    1    2 ar
     2    1    3 ar
     3    1   17 1
     4    2    5 ar
     5    2   18 1
     6    3   12 ar
     7    3   19 1
     8    4    5 ar
     9    4   12 ar
    10    4   20 1
    11    5   11 1
    12    6    8 1
    13    6   14 am
    14    6   15 2
    15    7   11 1
    16    7   13 am
    17    7   16 2
    18    8   21 1
    19    8   22 1
    20    8   23 1
    21    9   13 1
    22    9   24 1
    23    9   25 1
    24    9   26 1
    25   10   14 1
    26   10   27 1
    27   10   28 1
    28   10   29 1
    29   11   14 1
    30   11   30 1
    31   13   31 1
