@<TRIPOS>MOLECULE
*****
   40    42     0     0     0
SMALL
NO_CHARGES

@<TRIPOS>ATOM
      1 C1          8.6940    1.7522    5.3596 C.1       1 <0>         0.0000
      2 C2          6.5805   -3.1239    5.9791 C.ar      1 <0>         0.0000
      3 C3          5.2818   -2.6222    6.1335 C.ar      1 <0>         0.0000
      4 C4          7.2541   -2.9907    4.7567 C.ar      1 <0>         0.0000
      5 C5          4.6249   -1.9827    5.0754 C.ar      1 <0>         0.0000
      6 C6          6.7442    1.9771    2.3377 C.2       1 <0>         0.0000
      7 C7          7.7217    1.6858    4.3197 C.2       1 <0>         0.0000
      8 C8          6.6131   -2.3480    3.7015 C.ar      1 <0>         0.0000
      9 C9          5.3151   -1.8523    3.8736 C.ar      1 <0>         0.0000
     10 C10         5.9695    1.2118    3.1841 C.2       1 <0>         0.0000
     11 C11         7.1061   -2.0198    2.3089 C.3       1 <0>         0.0000
     12 C12         5.8000   -1.6270    1.5840 C.3       1 <0>         0.0000
     13 C13        11.0468    1.2588    2.9770 C.3       1 <0>         0.0000
     14 C14         9.8904    1.1705    0.7721 C.3       1 <0>         0.0000
     15 N1          9.4994    1.7664    6.2001 N.1       1 <0>         0.0000
     16 N2          6.5749    1.0336    4.3995 N.2       1 <0>         0.0000
     17 N3          7.8711    2.2899    3.0697 N.pl3     1 <0>         0.0000
     18 N4          4.8379   -1.2372    2.6619 N.pl3     1 <0>         0.0000
     19 N5         10.3191    1.9854    1.9202 N.pl3     1 <0>         0.0000
     20 O1          3.4806    0.5618    3.8319 O.2       1 <0>         0.0000
     21 O2          4.1512    0.8443    1.3768 O.2       1 <0>         0.0000
     22 O3          8.7218    3.8042    1.2209 O.2       1 <0>         0.0000
     23 O4          9.8421    3.8751    3.5273 O.2       1 <0>         0.0000
     24 S1          4.4344    0.4102    2.7441 S.o2      1 <0>         0.0000
     25 S2          9.2781    3.1697    2.3989 S.o2      1 <0>         0.0000
     26 H1          7.0682   -3.6225    6.8122 H         1 <0>         0.0000
     27 H2          4.7721   -2.7332    7.0866 H         1 <0>         0.0000
     28 H3          8.2623   -3.3811    4.6392 H         1 <0>         0.0000
     29 H4          3.6250   -1.5793    5.1865 H         1 <0>         0.0000
     30 H5          6.5828    2.3419    1.3346 H         1 <0>         0.0000
     31 H6          7.8193   -1.1849    2.3443 H         1 <0>         0.0000
     32 H7          7.6032   -2.8602    1.8169 H         1 <0>         0.0000
     33 H8          5.9037   -0.8233    0.8554 H         1 <0>         0.0000
     34 H9          5.3654   -2.4907    1.0743 H         1 <0>         0.0000
     35 H10        11.3290    1.9439    3.7741 H         1 <0>         0.0000
     36 H11        11.9524    0.8492    2.5243 H         1 <0>         0.0000
     37 H12        10.4478    0.4381    3.3907 H         1 <0>         0.0000
     38 H13         9.4659    1.8115    0.0008 H         1 <0>         0.0000
     39 H14         9.1611    0.4041    1.0679 H         1 <0>         0.0000
     40 H15        10.7782    0.6786    0.3694 H         1 <0>         0.0000
@<TRIPOS>BOND
     1    1    7 1
     2    1   15 3
     3    2    3 ar
     4    2    4 ar
     5    2   26 1
     6    3    5 ar
     7    3   27 1
     8    4    8 ar
     9    4   28 1
    10    5    9 ar
    11    5   29 1
    12    6   10 2
    13    6   17 1
    14    6   30 1
    15    7   16 2
    16    7   17 1
    17    8    9 ar
    18    8   11 1
    19    9   18 1
    20   10   16 1
    21   10   24 1
    22   11   12 1
    23   11   31 1
    24   11   32 1
    25   12   18 1
    26   12   33 1
    27   12   34 1
    28   13   19 1
    29   13   35 1
    30   13   36 1
    31   13   37 1
    32   14   19 1
    33   14   38 1
    34   14   39 1
    35   14   40 1
    36   17   25 1
    37   18   24 1
    38   19   25 1
    39   20   24 2
    40   21   24 2
    41   22   25 2
    42   23   25 2
