@<TRIPOS>MOLECULE
*****
   17    18     0     0     0
SMALL
NO_CHARGES

@<TRIPOS>ATOM
      1 C1         -2.2421   -0.9320   -2.3873 C.ar      1 <0>         0.0000
      2 C2         -1.4023   -0.1100   -1.6324 C.ar      1 <0>         0.0000
      3 C3         -0.7373   -2.0031   -0.2838 C.ar      1 <0>         0.0000
      4 C4         -2.3273   -2.2934   -2.0872 C.ar      1 <0>         0.0000
      5 C5         -1.5776   -2.8176   -1.0416 C.ar      1 <0>         0.0000
      6 C6         -0.6515   -0.6443   -0.5831 C.ar      1 <0>         0.0000
      7 C7         -3.1999   -3.1858   -2.8609 C.2       1 <0>         0.0000
      8 C8         -2.4466   -5.0601   -1.4114 C.2       1 <0>         0.0000
      9 N1         -3.1867   -4.5105   -2.4526 N.am      1 <0>         0.0000
     10 O1         -3.8765   -2.7636   -3.7920 O.2       1 <0>         0.0000
     11 O2         -2.4921   -6.2518   -1.1126 O.2       1 <0>         0.0000
     12 O3         -1.6275   -4.1777   -0.6998 O.3       1 <0>         0.0000
     13 F1          0.1522    0.1500    0.1365 F         1 <0>         0.0000
     14 H1         -2.8174   -0.4955   -3.1991 H         1 <0>         0.0000
     15 H2         -1.3328    0.9491   -1.8624 H         1 <0>         0.0000
     16 H3         -0.1520   -2.4153    0.5329 H         1 <0>         0.0000
     17 H4         -3.7830   -5.1498   -2.9707 H         1 <0>         0.0000
@<TRIPOS>BOND
     1    1    2 ar
     2    1    4 ar
     3    1   14 1
     4    2    6 ar
     5    2   15 1
     6    3    5 ar
     7    3    6 ar
     8    3   16 1
     9    4    5 ar
    10    4    7 1
    11    5   12 1
    12    6   13 1
    13    7    9 am
    14    7   10 2
    15    8    9 am
    16    8   11 2
    17    8   12 1
    18    9   17 1
