@<TRIPOS>MOLECULE
*****
   19    18     0     0     0
SMALL
NO_CHARGES

@<TRIPOS>ATOM
      1 C1         -0.0050   -0.7660   -1.1520 C.3       1 <0>         0.0000
      2 C2          5.1970   -1.0670    0.2960 C.3       1 <0>         0.0000
      3 C3          3.5160   -1.3630    2.0160 C.3       1 <0>         0.0000
      4 C4          1.1940   -0.5470   -0.2040 C.3       1 <0>         0.0000
      5 N1          3.7670   -0.9700    0.6220 N.pl3     1 <0>         0.0000
      6 O1          2.4220   -2.8500   -0.3510 O.2       1 <0>         0.0000
      7 O2          3.1710   -1.0740   -1.8190 O.2       1 <0>         0.0000
      8 S1          2.6900   -1.4670   -0.5400 S.o2      1 <0>         0.0000
      9 H1         -0.2830   -1.8210   -1.1160 H         1 <0>         0.0000
     10 H2          0.3020   -0.4910   -2.1620 H         1 <0>         0.0000
     11 H3         -0.8340   -0.1400   -0.8210 H         1 <0>         0.0000
     12 H4          5.3570   -0.5780   -0.6570 H         1 <0>         0.0000
     13 H5          5.4550   -2.1170    0.2380 H         1 <0>         0.0000
     14 H6          5.7640   -0.5640    1.0680 H         1 <0>         0.0000
     15 H7          2.4930   -1.1140    2.2640 H         1 <0>         0.0000
     16 H8          4.1950   -0.8130    2.6550 H         1 <0>         0.0000
     17 H9          3.6840   -2.4300    2.0960 H         1 <0>         0.0000
     18 H10         0.7970   -0.7760    0.7730 H         1 <0>         0.0000
     19 H11         1.3730    0.5170   -0.2480 H         1 <0>         0.0000
@<TRIPOS>BOND
     1    1    4 1
     2    1    9 1
     3    1   10 1
     4    1   11 1
     5    2    5 1
     6    2   12 1
     7    2   13 1
     8    2   14 1
     9    3    5 1
    10    3   15 1
    11    3   16 1
    12    3   17 1
    13    4    8 1
    14    4   18 1
    15    4   19 1
    16    5    8 1
    17    6    8 2
    18    7    8 2
