@<TRIPOS>MOLECULE
*****
   41    43     0     0     0
SMALL
NO_CHARGES

@<TRIPOS>ATOM
      1 C1         -2.7934   -0.2031    1.0188 C.ar      1 <0>         0.0000
      2 C2         -1.4886   -1.8101    2.2484 C.ar      1 <0>         0.0000
      3 C3         -3.9535   -0.9272    1.2788 C.ar      1 <0>         0.0000
      4 C4         -2.6432   -2.5511    2.5185 C.ar      1 <0>         0.0000
      5 C5         -0.3867    0.2818    5.4105 C.2       1 <0>         0.0000
      6 C6         -1.8588    1.2551    4.2649 C.2       1 <0>         0.0000
      7 C7         -1.5496   -0.6341    1.5000 C.ar      1 <0>         0.0000
      8 C8         -3.8689   -2.1004    2.0336 C.ar      1 <0>         0.0000
      9 C9          1.0184    1.5778   -0.5564 C.3       1 <0>         0.0000
     10 C10        -0.4262    1.9085   -0.8213 C.3       1 <0>         0.0000
     11 C11        -0.0537    0.5771   -0.1949 C.3       1 <0>         0.0000
     12 C12         0.8656   -3.2692   -1.7987 C.3       1 <0>         0.0000
     13 C13        -0.4868    1.5141    2.1408 C.3       1 <0>         0.0000
     14 C14         0.8221   -2.1381   -0.7727 C.3       1 <0>         0.0000
     15 C15        -0.2975    0.2234    1.2840 C.3       1 <0>         0.0000
     16 N1         -1.6767    0.7147    5.4631 N.2       1 <0>         0.0000
     17 N2          0.2367    0.5312    4.2616 N.2       1 <0>         0.0000
     18 N3         -0.7244    1.1744    3.5330 N.pl3     1 <0>         0.0000
     19 O1          0.4149   -0.2911   -2.6568 O.2       1 <0>         0.0000
     20 O2         -1.6085   -1.2456   -1.4616 O.2       1 <0>         0.0000
     21 O3          0.8890   -0.4429    1.7118 O.3       1 <0>         0.0000
     22 S1         -0.2098   -0.7889   -1.4133 S.o2      1 <0>         0.0000
     23 Cl1        -5.3265   -3.0188    2.3686 Cl        1 <0>         0.0000
     24 H1         -2.8623    0.6855    0.3982 H         1 <0>         0.0000
     25 H2         -0.5330   -2.1590    2.6247 H         1 <0>         0.0000
     26 H3         -4.9108   -0.5988    0.8869 H         1 <0>         0.0000
     27 H4         -2.5897   -3.4639    3.1032 H         1 <0>         0.0000
     28 H5          0.1108   -0.2210    6.2296 H         1 <0>         0.0000
     29 H6         -2.7704    1.7031    3.8918 H         1 <0>         0.0000
     30 H7          1.6335    1.3524   -1.4200 H         1 <0>         0.0000
     31 H8          1.5343    2.0566    0.2687 H         1 <0>         0.0000
     32 H9         -0.9255    2.6452   -0.2018 H         1 <0>         0.0000
     33 H10        -0.7567    1.8900   -1.8548 H         1 <0>         0.0000
     34 H11        -0.1354   -3.6646   -1.9881 H         1 <0>         0.0000
     35 H12         1.2940   -2.9288   -2.7442 H         1 <0>         0.0000
     36 H13         1.4878   -4.0794   -1.4068 H         1 <0>         0.0000
     37 H14         0.4033    2.1439    2.0882 H         1 <0>         0.0000
     38 H15        -1.3528    2.0814    1.8034 H         1 <0>         0.0000
     39 H16         1.8036   -1.7037   -0.5731 H         1 <0>         0.0000
     40 H17         0.3738   -2.4470    0.1714 H         1 <0>         0.0000
     41 H18         0.9667   -0.3450    2.6856 H         1 <0>         0.0000
@<TRIPOS>BOND
     1    1    3 ar
     2    1    7 ar
     3    1   24 1
     4    2    4 ar
     5    2    7 ar
     6    2   25 1
     7    3    8 ar
     8    3   26 1
     9    4    8 ar
    10    4   27 1
    11    5   16 1
    12    5   17 2
    13    5   28 1
    14    6   16 2
    15    6   18 1
    16    6   29 1
    17    7   15 1
    18    8   23 1
    19    9   10 1
    20    9   11 1
    21    9   30 1
    22    9   31 1
    23   10   11 1
    24   10   32 1
    25   10   33 1
    26   11   15 1
    27   11   22 1
    28   12   14 1
    29   12   34 1
    30   12   35 1
    31   12   36 1
    32   13   15 1
    33   13   18 1
    34   13   37 1
    35   13   38 1
    36   14   22 1
    37   14   39 1
    38   14   40 1
    39   15   21 1
    40   17   18 1
    41   19   22 2
    42   20   22 2
    43   21   41 1
