@<TRIPOS>MOLECULE
*****
   51    54     0     0     0
SMALL
NO_CHARGES

@<TRIPOS>ATOM
      1 C1         -7.7657   -8.2136    7.4055 C.ar      1 <0>         0.0000
      2 C2         -3.3501   -4.8542   -4.0738 C.ar      1 <0>         0.0000
      3 C3         -8.6489   -7.5899    6.5142 C.ar      1 <0>         0.0000
      4 C4         -6.4261   -8.3481    7.0387 C.ar      1 <0>         0.0000
      5 C5         -2.0791   -4.3083   -4.2839 C.ar      1 <0>         0.0000
      6 C6         -3.8109   -5.0474   -2.7696 C.ar      1 <0>         0.0000
      7 C7         -8.2010   -7.1156    5.2837 C.ar      1 <0>         0.0000
      8 C8         -5.9649   -7.8609    5.8104 C.ar      1 <0>         0.0000
      9 C9         -1.2715   -3.9687   -3.1959 C.ar      1 <0>         0.0000
     10 C10        -3.0205   -4.7142   -1.6565 C.ar      1 <0>         0.0000
     11 C11        -6.8459   -7.2360    4.9074 C.ar      1 <0>         0.0000
     12 C12        -1.7348   -4.1779   -1.8954 C.ar      1 <0>         0.0000
     13 C13        -2.5553   -4.6567    0.7177 C.2       1 <0>         0.0000
     14 C14        -3.4628   -4.8253   -0.2580 C.2       1 <0>         0.0000
     15 C15        -6.7657   -5.3756    3.3173 C.3       1 <0>         0.0000
     16 C16        -5.0725   -7.0965    3.2146 C.3       1 <0>         0.0000
     17 C17        -6.5707   -5.0994    1.8309 C.3       1 <0>         0.0000
     18 C18        -4.8954   -6.7992    1.7294 C.3       1 <0>         0.0000
     19 C19        -1.0916   -4.4500    0.4155 C.3       1 <0>         0.0000
     20 C20        -0.3564   -5.7987    0.3550 C.3       1 <0>         0.0000
     21 C21        -0.4410   -3.5100    1.4295 C.3       1 <0>         0.0000
     22 C22        -4.9297   -5.0645    0.0415 C.3       1 <0>         0.0000
     23 N1         -6.4305   -6.7697    3.6386 N.pl3     1 <0>         0.0000
     24 N2         -5.1946   -5.3964    1.4374 N.3       1 <0>         0.0000
     25 O1         -0.9249   -3.7808   -0.8690 O.3       1 <0>         0.0000
     26 H1         -8.1188   -8.5894    8.3618 H         1 <0>         0.0000
     27 H2         -3.9783   -5.1240   -4.9181 H         1 <0>         0.0000
     28 H3         -9.7003   -7.4877    6.7723 H         1 <0>         0.0000
     29 H4         -5.7223   -8.8265    7.7157 H         1 <0>         0.0000
     30 H5         -1.7119   -4.1508   -5.2947 H         1 <0>         0.0000
     31 H6         -4.8033   -5.4607   -2.6196 H         1 <0>         0.0000
     32 H7         -8.9130   -6.6733    4.5934 H         1 <0>         0.0000
     33 H8         -4.9125   -7.9621    5.5710 H         1 <0>         0.0000
     34 H9         -0.2816   -3.5434   -3.3342 H         1 <0>         0.0000
     35 H10        -2.8618   -4.7015    1.7586 H         1 <0>         0.0000
     36 H11        -6.1311   -4.6846    3.8983 H         1 <0>         0.0000
     37 H12        -7.8041   -5.1759    3.5829 H         1 <0>         0.0000
     38 H13        -4.8969   -8.1630    3.3792 H         1 <0>         0.0000
     39 H14        -4.3163   -6.5314    3.7884 H         1 <0>         0.0000
     40 H15        -7.3007   -5.6974    1.2528 H         1 <0>         0.0000
     41 H16        -6.7726   -4.0404    1.6385 H         1 <0>         0.0000
     42 H17        -3.8618   -7.0107    1.4423 H         1 <0>         0.0000
     43 H18        -5.5521   -7.4729    1.1471 H         1 <0>         0.0000
     44 H19         0.7053   -5.6444    0.1359 H         1 <0>         0.0000
     45 H20        -0.7889   -6.4336   -0.4239 H         1 <0>         0.0000
     46 H21        -0.4458   -6.3231    1.3121 H         1 <0>         0.0000
     47 H22         0.6051   -3.3326    1.1636 H         1 <0>         0.0000
     48 H23        -0.4764   -3.9506    2.4307 H         1 <0>         0.0000
     49 H24        -0.9648   -2.5505    1.4501 H         1 <0>         0.0000
     50 H25        -5.3210   -5.8517   -0.6277 H         1 <0>         0.0000
     51 H26        -5.4846   -4.1532   -0.2131 H         1 <0>         0.0000
@<TRIPOS>BOND
     1    1    4 ar
     2    1    3 ar
     3    1   26 1
     4    2    5 ar
     5    2    6 ar
     6    2   27 1
     7    3    7 ar
     8    3   28 1
     9    4    8 ar
    10    4   29 1
    11    5    9 ar
    12    5   30 1
    13    6   10 ar
    14    6   31 1
    15    7   11 ar
    16    7   32 1
    17    8   11 ar
    18    8   33 1
    19    9   12 ar
    20    9   34 1
    21   10   12 ar
    22   10   14 1
    23   11   23 1
    24   12   25 1
    25   13   14 2
    26   13   19 1
    27   13   35 1
    28   14   22 1
    29   15   17 1
    30   15   23 1
    31   15   36 1
    32   15   37 1
    33   16   18 1
    34   16   23 1
    35   16   38 1
    36   16   39 1
    37   17   24 1
    38   17   40 1
    39   17   41 1
    40   18   24 1
    41   18   42 1
    42   18   43 1
    43   19   20 1
    44   19   21 1
    45   19   25 1
    46   20   44 1
    47   20   45 1
    48   20   46 1
    49   21   47 1
    50   21   48 1
    51   21   49 1
    52   22   24 1
    53   22   50 1
    54   22   51 1
