@<TRIPOS>MOLECULE
*****
   49    51     0     0     0
SMALL
NO_CHARGES

@<TRIPOS>ATOM
      1 C1          1.0323    0.2993    4.8077 C.ar      1 <0>         0.0000
      2 C2          3.3280   -0.2512    4.3937 C.ar      1 <0>         0.0000
      3 C3          1.8210    0.0833    2.5277 C.ar      1 <0>         0.0000
      4 C4          2.2991    0.0035    5.3098 C.ar      1 <0>         0.0000
      5 C5          0.7738    0.3413    3.4305 C.ar      1 <0>         0.0000
      6 C6          3.1157   -0.2167    3.0139 C.ar      1 <0>         0.0000
      7 C7          1.7233   -1.1983    0.2678 C.2       1 <0>         0.0000
      8 C8          2.3582    1.1453    0.2099 C.2       1 <0>         0.0000
      9 C9          1.0662   -1.0656   -2.1985 C.3       1 <0>         0.0000
     10 C10         1.7301    1.2557   -2.2700 C.3       1 <0>         0.0000
     11 C11         1.5736    0.1193    1.0391 C.3       1 <0>         0.0000
     12 C12         2.1990   -0.9073   -1.1533 C.3       1 <0>         0.0000
     13 C13         2.6142    0.5870   -1.1885 C.3       1 <0>         0.0000
     14 C14         1.3166    0.0954   -3.1802 C.3       1 <0>         0.0000
     15 C15         2.5583   -0.0663    6.7971 C.3       1 <0>         0.0000
     16 C16        -1.4073   -0.6750    2.6098 C.3       1 <0>         0.0000
     17 C17         5.5904   -0.9214    2.6708 C.3       1 <0>         0.0000
     18 C18        -0.1676   -0.4704   -4.9490 C.3       1 <0>         0.0000
     19 C19        -0.6479    0.6132    2.9788 C.3       1 <0>         0.0000
     20 C20         4.2585   -0.4904    2.0488 C.3       1 <0>         0.0000
     21 O1          1.4653   -2.3037    0.6998 O.2       1 <0>         0.0000
     22 O2          2.6929    2.2495    0.5870 O.2       1 <0>         0.0000
     23 O3          0.1928    0.4782   -3.9538 O.3       1 <0>         0.0000
     24 H1          0.2180    0.5032    5.5007 H         1 <0>         0.0000
     25 H2          4.3170   -0.4795    4.7788 H         1 <0>         0.0000
     26 H3          1.0712   -2.0554   -2.6589 H         1 <0>         0.0000
     27 H4          0.0808   -0.9173   -1.7405 H         1 <0>         0.0000
     28 H5          0.8208    1.6834   -1.8327 H         1 <0>         0.0000
     29 H6          2.2453    2.0576   -2.8013 H         1 <0>         0.0000
     30 H7          0.5280    0.4012    0.8512 H         1 <0>         0.0000
     31 H8          3.0284   -1.5815   -1.3828 H         1 <0>         0.0000
     32 H9          3.6741    0.7231   -1.4197 H         1 <0>         0.0000
     33 H10         2.1532   -0.1694   -3.8496 H         1 <0>         0.0000
     34 H11         2.5944   -1.1073    7.1405 H         1 <0>         0.0000
     35 H12         3.5162    0.3955    7.0576 H         1 <0>         0.0000
     36 H13         1.7727    0.4413    7.3643 H         1 <0>         0.0000
     37 H14        -0.8963   -1.2359    1.8214 H         1 <0>         0.0000
     38 H15        -2.4244   -0.4474    2.2719 H         1 <0>         0.0000
     39 H16        -1.4748   -1.3380    3.4783 H         1 <0>         0.0000
     40 H17         6.0066   -0.1437    3.3188 H         1 <0>         0.0000
     41 H18         6.3227   -1.1178    1.8812 H         1 <0>         0.0000
     42 H19         5.4832   -1.8370    3.2613 H         1 <0>         0.0000
     43 H20        -0.9752   -0.0250   -5.5339 H         1 <0>         0.0000
     44 H21        -0.5242   -1.4117   -4.5087 H         1 <0>         0.0000
     45 H22         0.6795   -0.6903   -5.6160 H         1 <0>         0.0000
     46 H23        -1.1819    1.1207    3.7885 H         1 <0>         0.0000
     47 H24        -0.6650    1.3143    2.1360 H         1 <0>         0.0000
     48 H25         3.9490   -1.2731    1.3459 H         1 <0>         0.0000
     49 H26         4.4376    0.4099    1.4497 H         1 <0>         0.0000
@<TRIPOS>BOND
     1    1    4 ar
     2    1    5 ar
     3    1   24 1
     4    2    4 ar
     5    2    6 ar
     6    2   25 1
     7    3    5 ar
     8    3    6 ar
     9    3   11 1
    10    4   15 1
    11    5   19 1
    12    6   20 1
    13    7   11 1
    14    7   12 1
    15    7   21 2
    16    8   11 1
    17    8   13 1
    18    8   22 2
    19    9   12 1
    20    9   14 1
    21    9   26 1
    22    9   27 1
    23   10   13 1
    24   10   14 1
    25   10   28 1
    26   10   29 1
    27   11   30 1
    28   12   13 1
    29   12   31 1
    30   13   32 1
    31   14   23 1
    32   14   33 1
    33   15   34 1
    34   15   35 1
    35   15   36 1
    36   16   19 1
    37   16   37 1
    38   16   38 1
    39   16   39 1
    40   17   20 1
    41   17   40 1
    42   17   41 1
    43   17   42 1
    44   18   23 1
    45   18   43 1
    46   18   44 1
    47   18   45 1
    48   19   46 1
    49   19   47 1
    50   20   48 1
    51   20   49 1
