@<TRIPOS>MOLECULE
*****
   45    47     0     0     0
SMALL
NO_CHARGES

@<TRIPOS>ATOM
      1 C1          0.9250    4.4577    0.0875 C.ar      1 <0>         0.0000
      2 C2         -1.4638    4.6460    0.4741 C.ar      1 <0>         0.0000
      3 C3          1.0810    5.8045    0.4413 C.ar      1 <0>         0.0000
      4 C4         -1.3118    5.9850    0.8260 C.ar      1 <0>         0.0000
      5 C5         -0.4494    0.6732   -4.4320 C.2       1 <0>         0.0000
      6 C6         -1.8532    1.5308   -3.1196 C.2       1 <0>         0.0000
      7 C7         -0.3475    3.8756    0.1143 C.ar      1 <0>         0.0000
      8 C8         -0.0347    6.5432    0.8088 C.ar      1 <0>         0.0000
      9 C9         -1.1599    0.7924    1.8918 C.2       1 <0>         0.0000
     10 C10         0.8870   -0.7960    1.8913 C.3       1 <0>         0.0000
     11 C11        -0.3283   -1.6110    1.5050 C.3       1 <0>         0.0000
     12 C12        -0.2469   -0.1467    1.1366 C.3       1 <0>         0.0000
     13 C13        -0.2792    3.6827    3.9155 C.3       1 <0>         0.0000
     14 C14        -1.3579    0.0501   -1.1087 C.3       1 <0>         0.0000
     15 C15        -1.2456    2.6293    3.4082 C.3       1 <0>         0.0000
     16 C16         0.4834    1.6816   -0.4510 C.3       1 <0>         0.0000
     17 C17        -0.0340    0.2357   -0.3376 C.3       1 <0>         0.0000
     18 N1         -1.3859    1.6590   -4.3575 N.2       1 <0>         0.0000
     19 N2         -0.3179   -0.0529   -3.3242 N.2       1 <0>         0.0000
     20 N3         -1.2394    0.5085   -2.4861 N.pl3     1 <0>         0.0000
     21 O1         -2.3754    0.7914    1.7988 O.2       1 <0>         0.0000
     22 O2          0.9769   -0.6209   -0.8578 O.3       1 <0>         0.0000
     23 O3         -0.6081    2.5643   -0.1857 O.3       1 <0>         0.0000
     24 O4         -0.4685    1.6401    2.6798 O.3       1 <0>         0.0000
     25 F1          0.1181    7.8494    1.1570 F         1 <0>         0.0000
     26 H1          1.7974    3.8859   -0.2061 H         1 <0>         0.0000
     27 H2         -2.4422    4.1750    0.4811 H         1 <0>         0.0000
     28 H3          2.0593    6.2751    0.4295 H         1 <0>         0.0000
     29 H4         -2.1641    6.5934    1.1124 H         1 <0>         0.0000
     30 H5          0.1474    0.4786   -5.3138 H         1 <0>         0.0000
     31 H6         -2.6117    2.1418   -2.6486 H         1 <0>         0.0000
     32 H7          1.0097   -0.5148    2.9318 H         1 <0>         0.0000
     33 H8          1.8032   -0.9815    1.3429 H         1 <0>         0.0000
     34 H9         -0.2068   -2.3267    0.6986 H         1 <0>         0.0000
     35 H10        -1.0365   -1.8946    2.2776 H         1 <0>         0.0000
     36 H11         0.4754    3.2415    4.5736 H         1 <0>         0.0000
     37 H12         0.2270    4.1757    3.0813 H         1 <0>         0.0000
     38 H13        -0.8286    4.4423    4.4808 H         1 <0>         0.0000
     39 H14        -1.6168   -1.0108   -1.1076 H         1 <0>         0.0000
     40 H15        -2.1621    0.6090   -0.6341 H         1 <0>         0.0000
     41 H16        -1.9929    3.0512    2.7349 H         1 <0>         0.0000
     42 H17        -1.7696    2.1186    4.2223 H         1 <0>         0.0000
     43 H18         1.2862    1.8160    0.2801 H         1 <0>         0.0000
     44 H19         0.8776    1.8647   -1.4575 H         1 <0>         0.0000
     45 H20         0.8682   -0.6472   -1.8325 H         1 <0>         0.0000
@<TRIPOS>BOND
     1    1    3 ar
     2    1    7 ar
     3    1   26 1
     4    2    4 ar
     5    2    7 ar
     6    2   27 1
     7    3    8 ar
     8    3   28 1
     9    4    8 ar
    10    4   29 1
    11    5   18 1
    12    5   19 2
    13    5   30 1
    14    6   18 2
    15    6   20 1
    16    6   31 1
    17    7   23 1
    18    8   25 1
    19    9   12 1
    20    9   21 2
    21    9   24 1
    22   10   11 1
    23   10   12 1
    24   10   32 1
    25   10   33 1
    26   11   12 1
    27   11   34 1
    28   11   35 1
    29   12   17 1
    30   13   15 1
    31   13   36 1
    32   13   37 1
    33   13   38 1
    34   14   17 1
    35   14   20 1
    36   14   39 1
    37   14   40 1
    38   15   24 1
    39   15   41 1
    40   15   42 1
    41   16   17 1
    42   16   23 1
    43   16   43 1
    44   16   44 1
    45   17   22 1
    46   19   20 1
    47   22   45 1
