@<TRIPOS>MOLECULE
*****
   53    55     0     0     0
SMALL
NO_CHARGES

@<TRIPOS>ATOM
      1 C1          4.6357   -3.0685   11.9207 C.ar      1 <0>         0.0000
      2 C2          5.7670   -2.9938   11.0649 C.ar      1 <0>         0.0000
      3 C3          3.3989   -2.6532   11.4744 C.ar      1 <0>         0.0000
      4 C4          2.0014   -1.7027    9.6327 C.ar      1 <0>         0.0000
      5 C5          2.3634    0.8471    2.2750 C.ar      1 <0>         0.0000
      6 C6          0.0765    1.1836    2.9337 C.ar      1 <0>         0.0000
      7 C7          5.6456   -2.5069    9.7802 C.ar      1 <0>         0.0000
      8 C8          2.6644    0.3339    3.5414 C.ar      1 <0>         0.0000
      9 C9          0.3569    0.6727    4.1981 C.ar      1 <0>         0.0000
     10 C10         1.9351   -1.2253    8.3429 C.ar      1 <0>         0.0000
     11 C11         3.2432   -2.1469   10.1554 C.ar      1 <0>         0.0000
     12 C12         1.0728    1.2778    1.9510 C.ar      1 <0>         0.0000
     13 C13         4.3832   -2.0716    9.2926 C.ar      1 <0>         0.0000
     14 C14         1.6552    0.2438    4.5093 C.ar      1 <0>         0.0000
     15 C15         3.1262   -1.1927    7.5685 C.ar      1 <0>         0.0000
     16 C16        -0.1657   -0.4545   -0.1805 C.2       1 <0>         0.0000
     17 C17        -1.3784   -0.6792   -0.7149 C.2       1 <0>         0.0000
     18 C18         1.6916    2.9132    0.1902 C.2       1 <0>         0.0000
     19 C19        -2.2226   -1.8458   -0.2576 C.3       1 <0>         0.0000
     20 C20        -2.0167    0.1730   -1.7857 C.3       1 <0>         0.0000
     21 C21         2.0537    5.2466    0.2845 C.3       1 <0>         0.0000
     22 C22         3.1383   -0.6890    6.1415 C.3       1 <0>         0.0000
     23 C23         0.7858    0.6652   -0.5094 C.3       1 <0>         0.0000
     24 C24         0.7368    1.7886    0.5567 C.3       1 <0>         0.0000
     25 N1          4.3013   -1.5957    8.0163 N.ar      1 <0>         0.0000
     26 O1          2.7907    2.7666   -0.3134 O.2       1 <0>         0.0000
     27 O2          1.8361   -0.2438    5.7783 O.3       1 <0>         0.0000
     28 O3          1.1802    4.1223    0.5199 O.3       1 <0>         0.0000
     29 H1          4.7506   -3.4551   12.9299 H         1 <0>         0.0000
     30 H2          6.7358   -3.3247   11.4302 H         1 <0>         0.0000
     31 H3          2.5291   -2.7080   12.1255 H         1 <0>         0.0000
     32 H4          1.1111   -1.7432   10.2567 H         1 <0>         0.0000
     33 H5          3.1544    0.9174    1.5331 H         1 <0>         0.0000
     34 H6         -0.9356    1.5068    2.7031 H         1 <0>         0.0000
     35 H7          6.4990   -2.4421    9.1114 H         1 <0>         0.0000
     36 H8          3.6781    0.0144    3.7546 H         1 <0>         0.0000
     37 H9         -0.4155    0.5972    4.9581 H         1 <0>         0.0000
     38 H10         1.0063   -0.8764    7.9078 H         1 <0>         0.0000
     39 H11         0.1716   -1.1304    0.6046 H         1 <0>         0.0000
     40 H12        -3.1869   -1.5009    0.1385 H         1 <0>         0.0000
     41 H13        -1.7230   -2.4288    0.5210 H         1 <0>         0.0000
     42 H14        -2.4508   -2.5176   -1.0956 H         1 <0>         0.0000
     43 H15        -2.2328   -0.4268   -2.6792 H         1 <0>         0.0000
     44 H16        -1.3997    1.0203   -2.0902 H         1 <0>         0.0000
     45 H17        -2.9793    0.5679   -1.4359 H         1 <0>         0.0000
     46 H18         1.4920    6.1236    0.6059 H         1 <0>         0.0000
     47 H19         2.3077    5.3174   -0.7757 H         1 <0>         0.0000
     48 H20         2.9717    5.1416    0.8675 H         1 <0>         0.0000
     49 H21         3.8645    0.1294    6.0581 H         1 <0>         0.0000
     50 H22         3.4669   -1.5007    5.4797 H         1 <0>         0.0000
     51 H23         1.8104    0.2837   -0.5586 H         1 <0>         0.0000
     52 H24         0.5726    1.1017   -1.4889 H         1 <0>         0.0000
     53 H25        -0.2728    2.2063    0.5825 H         1 <0>         0.0000
@<TRIPOS>BOND
     1    1    2 ar
     2    1    3 ar
     3    1   29 1
     4    2    7 ar
     5    2   30 1
     6    3   11 ar
     7    3   31 1
     8    4   10 ar
     9    4   11 ar
    10    4   32 1
    11    5    8 ar
    12    5   12 ar
    13    5   33 1
    14    6    9 ar
    15    6   12 ar
    16    6   34 1
    17    7   13 ar
    18    7   35 1
    19    8   14 ar
    20    8   36 1
    21    9   14 ar
    22    9   37 1
    23   10   15 ar
    24   10   38 1
    25   11   13 ar
    26   12   24 1
    27   13   25 ar
    28   14   27 1
    29   15   22 1
    30   15   25 ar
    31   16   17 2
    32   16   23 1
    33   16   39 1
    34   17   19 1
    35   17   20 1
    36   18   24 1
    37   18   26 2
    38   18   28 1
    39   19   40 1
    40   19   41 1
    41   19   42 1
    42   20   43 1
    43   20   44 1
    44   20   45 1
    45   21   28 1
    46   21   46 1
    47   21   47 1
    48   21   48 1
    49   22   27 1
    50   22   49 1
    51   22   50 1
    52   23   24 1
    53   23   51 1
    54   23   52 1
    55   24   53 1
