@<TRIPOS>MOLECULE
*****
   52    55     0     0     0
SMALL
NO_CHARGES

@<TRIPOS>ATOM
      1 C1         -9.9466    0.2424    2.6254 C.ar      1 <0>         0.0000
      2 C2         -1.9929   -7.8039    1.1417 C.ar      1 <0>         0.0000
      3 C3         -8.6934    0.5723    2.1082 C.ar      1 <0>         0.0000
      4 C4        -10.2172   -1.0860    2.9764 C.ar      1 <0>         0.0000
      5 C5         -0.6948   -7.4795    1.5597 C.ar      1 <0>         0.0000
      6 C6         -2.7803   -6.8295    0.5283 C.ar      1 <0>         0.0000
      7 C7         -7.7168   -0.4146    1.9252 C.ar      1 <0>         0.0000
      8 C8         -9.2426   -2.0697    2.8150 C.ar      1 <0>         0.0000
      9 C9         -0.1760   -6.2026    1.3397 C.ar      1 <0>         0.0000
     10 C10        -2.2859   -5.5272    0.3162 C.ar      1 <0>         0.0000
     11 C11        -7.9862   -1.7436    2.2790 C.ar      1 <0>         0.0000
     12 C12        -0.9597   -5.2367    0.7033 C.ar      1 <0>         0.0000
     13 C13        -2.4527   -3.2900   -0.6164 C.2       1 <0>         0.0000
     14 C14        -3.0785   -4.4090   -0.2088 C.2       1 <0>         0.0000
     15 C15        -5.6305   -2.3847    1.9691 C.3       1 <0>         0.0000
     16 C16        -7.3818   -3.8269    1.1647 C.3       1 <0>         0.0000
     17 C17        -4.7096   -3.5740    2.2043 C.3       1 <0>         0.0000
     18 C18        -6.5172   -5.0632    1.3723 C.3       1 <0>         0.0000
     19 C19        -0.9416   -3.2148   -0.6114 C.3       1 <0>         0.0000
     20 C20        -0.4568   -1.7905   -0.3528 C.3       1 <0>         0.0000
     21 C21        -0.3571   -3.7854   -1.9098 C.3       1 <0>         0.0000
     22 C22        -4.5751   -4.5002   -0.1674 C.3       1 <0>         0.0000
     23 N1         -7.0173   -2.7931    2.1319 N.pl3     1 <0>         0.0000
     24 N2         -5.0466   -4.7198    1.2694 N.4       1 <0>         0.0000
     25 O1         -0.4387   -3.9911    0.5237 O.3       1 <0>         0.0000
     26 H1        -10.7024    1.0100    2.7624 H         1 <0>         0.0000
     27 H2         -2.3783   -8.8090    1.2815 H         1 <0>         0.0000
     28 H3         -8.4700    1.5999    1.8355 H         1 <0>         0.0000
     29 H4        -11.1828   -1.3527    3.3967 H         1 <0>         0.0000
     30 H5         -0.0770   -8.2314    2.0418 H         1 <0>         0.0000
     31 H6         -3.7679   -7.1084    0.1619 H         1 <0>         0.0000
     32 H7         -6.7573   -0.1304    1.5052 H         1 <0>         0.0000
     33 H8         -9.4450   -3.0900    3.1309 H         1 <0>         0.0000
     34 H9          0.8340   -5.9422    1.6413 H         1 <0>         0.0000
     35 H10        -3.0078   -2.4236   -0.9695 H         1 <0>         0.0000
     36 H11        -5.3847   -1.6337    2.7238 H         1 <0>         0.0000
     37 H12        -5.4235   -1.9310    0.9840 H         1 <0>         0.0000
     38 H13        -7.3078   -3.4650    0.1241 H         1 <0>         0.0000
     39 H14        -8.4197   -4.1252    1.3175 H         1 <0>         0.0000
     40 H15        -3.6619   -3.3202    2.0435 H         1 <0>         0.0000
     41 H16        -4.8421   -3.9593    3.2169 H         1 <0>         0.0000
     42 H17        -6.6722   -5.4647    2.3759 H         1 <0>         0.0000
     43 H18        -6.7287   -5.8383    0.6329 H         1 <0>         0.0000
     44 H19         0.6333   -1.7753   -0.2835 H         1 <0>         0.0000
     45 H20        -0.8683   -1.4029    0.5835 H         1 <0>         0.0000
     46 H21        -0.7610   -1.1331   -1.1723 H         1 <0>         0.0000
     47 H22         0.7353   -3.7441   -1.8743 H         1 <0>         0.0000
     48 H23        -0.7007   -3.2003   -2.7682 H         1 <0>         0.0000
     49 H24        -0.6662   -4.8236   -2.0585 H         1 <0>         0.0000
     50 H25        -4.9588   -5.3519   -0.7354 H         1 <0>         0.0000
     51 H26        -5.0458   -3.5954   -0.5448 H         1 <0>         0.0000
     52 H27        -4.5086   -5.5319    1.5985 H         1 <0>         0.0000
@<TRIPOS>BOND
     1    1    4 ar
     2    1    3 ar
     3    1   26 1
     4    2    5 ar
     5    2    6 ar
     6    2   27 1
     7    3    7 ar
     8    3   28 1
     9    4    8 ar
    10    4   29 1
    11    5    9 ar
    12    5   30 1
    13    6   10 ar
    14    6   31 1
    15    7   11 ar
    16    7   32 1
    17    8   11 ar
    18    8   33 1
    19    9   12 ar
    20    9   34 1
    21   10   12 ar
    22   10   14 1
    23   11   23 1
    24   12   25 1
    25   13   14 2
    26   13   19 1
    27   13   35 1
    28   14   22 1
    29   15   17 1
    30   15   23 1
    31   15   36 1
    32   15   37 1
    33   16   18 1
    34   16   23 1
    35   16   38 1
    36   16   39 1
    37   17   24 1
    38   17   40 1
    39   17   41 1
    40   18   24 1
    41   18   42 1
    42   18   43 1
    43   19   20 1
    44   19   21 1
    45   19   25 1
    46   20   44 1
    47   20   45 1
    48   20   46 1
    49   21   47 1
    50   21   48 1
    51   21   49 1
    52   22   24 1
    53   22   50 1
    54   22   51 1
    55   24   52 1
