@<TRIPOS>MOLECULE
*****
   47    49     0     0     0
SMALL
NO_CHARGES

@<TRIPOS>ATOM
      1 C1          4.2258    4.5089   -4.0596 C.ar      1 <0>         0.0000
      2 C2          2.0871    3.5275   -4.5537 C.ar      1 <0>         0.0000
      3 C3          4.7414    3.2531   -3.7391 C.ar      1 <0>         0.0000
      4 C4          2.5833    2.2591   -4.2396 C.ar      1 <0>         0.0000
      5 C5          2.8903    4.6715   -4.4589 C.ar      1 <0>         0.0000
      6 C6          3.9081    2.1368   -3.8266 C.ar      1 <0>         0.0000
      7 C7          1.7954    1.3503   -0.9423 C.2       1 <0>         0.0000
      8 C8          2.9221    3.2997   -0.7599 C.2       1 <0>         0.0000
      9 C9          1.0676    4.6397   -1.8588 C.2       1 <0>         0.0000
     10 C10         0.3656   -0.6737   -1.6163 C.3       1 <0>         0.0000
     11 C11         0.2792   -0.5704   -0.1187 C.3       1 <0>         0.0000
     12 C12         1.5343   -0.0915   -0.8470 C.3       1 <0>         0.0000
     13 C13         1.7250    8.1590   -1.5205 C.3       1 <0>         0.0000
     14 C14         4.3338    1.5937    1.4062 C.3       1 <0>         0.0000
     15 C15         2.3338    6.0422   -4.7935 C.3       1 <0>         0.0000
     16 C16         2.4963    7.1233   -3.7060 C.3       1 <0>         0.0000
     17 C17         1.5885    6.9660   -2.4726 C.3       1 <0>         0.0000
     18 N1          0.9698    2.2482   -1.3988 N.2       1 <0>         0.0000
     19 N2          2.9851    1.9297   -0.5278 N.am      1 <0>         0.0000
     20 N3          1.6434    3.4620   -1.2751 N.am      1 <0>         0.0000
     21 N4          1.8715    5.7268   -1.7490 N.am      1 <0>         0.0000
     22 N5          4.0841    1.2447   -0.0033 N.3       1 <0>         0.0000
     23 O1          3.8122    4.1288   -0.5521 O.2       1 <0>         0.0000
     24 O2         -0.0303    4.5990   -2.3902 O.2       1 <0>         0.0000
     25 Cl1         4.5379    0.5504   -3.3808 Cl        1 <0>         0.0000
     26 H1          4.8784    5.3745   -3.9776 H         1 <0>         0.0000
     27 H2          1.0417    3.6262   -4.8302 H         1 <0>         0.0000
     28 H3          5.7708    3.1445   -3.4128 H         1 <0>         0.0000
     29 H4          1.9387    1.3881   -4.2869 H         1 <0>         0.0000
     30 H5          0.5120   -1.6522   -2.0629 H         1 <0>         0.0000
     31 H6         -0.2216    0.0268   -2.2009 H         1 <0>         0.0000
     32 H7         -0.3639    0.2001    0.2945 H         1 <0>         0.0000
     33 H8          0.3691   -1.4746    0.4759 H         1 <0>         0.0000
     34 H9          2.4322   -0.6887   -0.7392 H         1 <0>         0.0000
     35 H10         2.7496    8.2423   -1.1393 H         1 <0>         0.0000
     36 H11         1.4798    9.0945   -2.0336 H         1 <0>         0.0000
     37 H12         1.0521    8.0441   -0.6661 H         1 <0>         0.0000
     38 H13         3.4882    1.2491    2.0070 H         1 <0>         0.0000
     39 H14         4.4850    2.6671    1.5664 H         1 <0>         0.0000
     40 H15         5.2265    1.0483    1.7241 H         1 <0>         0.0000
     41 H16         2.8335    6.4054   -5.7008 H         1 <0>         0.0000
     42 H17         1.2725    5.9461   -5.0444 H         1 <0>         0.0000
     43 H18         2.2715    8.0972   -4.1572 H         1 <0>         0.0000
     44 H19         3.5422    7.1762   -3.3774 H         1 <0>         0.0000
     45 H20         0.5511    6.8878   -2.8054 H         1 <0>         0.0000
     46 H21         2.7999    5.5850   -1.3521 H         1 <0>         0.0000
     47 H22         4.8873    1.4785   -0.5854 H         1 <0>         0.0000
@<TRIPOS>BOND
     1    1    3 ar
     2    1    5 ar
     3    1   26 1
     4    2    4 ar
     5    2    5 ar
     6    2   27 1
     7    3    6 ar
     8    3   28 1
     9    4    6 ar
    10    4   29 1
    11    5   15 1
    12    6   25 1
    13    7   12 1
    14    7   18 2
    15    7   19 1
    16    8   19 am
    17    8   20 am
    18    8   23 2
    19    9   20 am
    20    9   21 am
    21    9   24 2
    22   10   11 1
    23   10   12 1
    24   10   30 1
    25   10   31 1
    26   11   12 1
    27   11   32 1
    28   11   33 1
    29   12   34 1
    30   13   17 1
    31   13   35 1
    32   13   36 1
    33   13   37 1
    34   14   22 1
    35   14   38 1
    36   14   39 1
    37   14   40 1
    38   15   16 1
    39   15   41 1
    40   15   42 1
    41   16   17 1
    42   16   43 1
    43   16   44 1
    44   17   21 1
    45   17   45 1
    46   18   20 1
    47   19   22 1
    48   21   46 1
    49   22   47 1
