@<TRIPOS>MOLECULE
*****
   31    33     0     0     0
SMALL
NO_CHARGES

@<TRIPOS>ATOM
      1 C1          2.1504    0.0307   -0.0874 C.ar      1 <0>         0.0000
      2 C2          0.8859    0.6118   -0.1425 C.ar      1 <0>         0.0000
      3 C3          8.3779    4.0173    1.9068 C.ar      1 <0>         0.0000
      4 C4          9.1125    4.2020    0.7408 C.ar      1 <0>         0.0000
      5 C5          3.2881    0.8160   -0.2764 C.ar      1 <0>         0.0000
      6 C6          0.7577    1.9791   -0.3821 C.ar      1 <0>         0.0000
      7 C7          7.0314    3.6797    1.8274 C.ar      1 <0>         0.0000
      8 C8          8.4591    4.0387   -0.4701 C.ar      1 <0>         0.0000
      9 C9          3.1733    2.1932   -0.5202 C.ar      1 <0>         0.0000
     10 C10         1.8962    2.7707   -0.5594 C.ar      1 <0>         0.0000
     11 C11         6.4712    3.5399    0.5679 C.ar      1 <0>         0.0000
     12 C12         4.0410    4.3717   -1.3576 C.3       1 <0>         0.0000
     13 C13         2.8135    4.9467   -0.6643 C.3       1 <0>         0.0000
     14 C14         4.4102    3.0259   -0.7343 C.3       1 <0>         0.0000
     15 N1          7.1527    3.7112   -0.5870 N.ar      1 <0>         0.0000
     16 N2          5.1312    3.2041    0.5052 N.pl3     1 <0>         0.0000
     17 O1          1.6690    4.1005   -0.8051 O.3       1 <0>         0.0000
     18 H1          2.2512   -1.0344    0.0991 H         1 <0>         0.0000
     19 H2          0.0000   -0.0001   -0.0000 H         1 <0>         0.0000
     20 H3          8.8537    4.1373    2.8757 H         1 <0>         0.0000
     21 H4         10.1633    4.4657    0.7783 H         1 <0>         0.0000
     22 H5          4.2680    0.3463   -0.2378 H         1 <0>         0.0000
     23 H6         -0.2334    2.4233   -0.4250 H         1 <0>         0.0000
     24 H7          6.4508    3.5330    2.7323 H         1 <0>         0.0000
     25 H8          8.9874    4.1711   -1.4086 H         1 <0>         0.0000
     26 H9          3.8038    4.2143   -2.4184 H         1 <0>         0.0000
     27 H10         4.8823    5.0727   -1.3156 H         1 <0>         0.0000
     28 H11         2.9924    5.1316    0.4018 H         1 <0>         0.0000
     29 H12         2.5581    5.9100   -1.1186 H         1 <0>         0.0000
     30 H13         5.0759    2.4940   -1.4486 H         1 <0>         0.0000
     31 H14         4.6224    3.0762    1.3699 H         1 <0>         0.0000
@<TRIPOS>BOND
     1    1    2 ar
     2    1    5 ar
     3    1   18 1
     4    2    6 ar
     5    2   19 1
     6    3    4 ar
     7    3    7 ar
     8    3   20 1
     9    4    8 ar
    10    4   21 1
    11    5    9 ar
    12    5   22 1
    13    6   10 ar
    14    6   23 1
    15    7   11 ar
    16    7   24 1
    17    8   15 ar
    18    8   25 1
    19    9   10 ar
    20    9   14 1
    21   10   17 1
    22   11   15 ar
    23   11   16 1
    24   12   13 1
    25   12   14 1
    26   12   26 1
    27   12   27 1
    28   13   17 1
    29   13   28 1
    30   13   29 1
    31   14   16 1
    32   14   30 1
    33   16   31 1
