@<TRIPOS>MOLECULE
*****
   49    51     0     0     0
SMALL
NO_CHARGES

@<TRIPOS>ATOM
      1 C1         -2.9885   -1.6798    5.6017 C.ar      1 <0>         0.0000
      2 C2         -2.5684   -0.5692    4.8760 C.ar      1 <0>         0.0000
      3 C3         -3.3939   -2.8433    4.9401 C.ar      1 <0>         0.0000
      4 C4         -2.9953   -1.7550    2.7699 C.ar      1 <0>         0.0000
      5 C5         -2.5852   -0.6091    3.4832 C.ar      1 <0>         0.0000
      6 C6         -3.4018   -2.8663    3.5315 C.ar      1 <0>         0.0000
      7 C7         -5.8043   -4.8136    6.9482 C.2       1 <0>         0.0000
      8 C8         -3.8216   -3.8782    8.2956 C.2       1 <0>         0.0000
      9 C9         -3.7349   -4.0441    5.7765 C.2       1 <0>         0.0000
     10 C10        -5.5412   -6.2208    7.4575 C.3       1 <0>         0.0000
     11 C11        -3.9284   -5.1549    9.1032 C.3       1 <0>         0.0000
     12 C12        -4.2271   -6.3857    8.2367 C.3       1 <0>         0.0000
     13 C13        -2.9968   -0.0900   -1.3134 C.3       1 <0>         0.0000
     14 C14        -3.4410    1.3892   -1.2776 C.3       1 <0>         0.0000
     15 C15        -5.3272    0.0926   -0.9025 C.3       1 <0>         0.0000
     16 C16        -4.6509   -3.7993    6.9953 C.3       1 <0>         0.0000
     17 C17        -4.1515   -0.8347   -0.6171 C.3       1 <0>         0.0000
     18 C18        -3.5800    1.8223    2.3487 C.3       1 <0>         0.0000
     19 C19        -2.9968   -1.7858    1.2570 C.3       1 <0>         0.0000
     20 O1         -6.8916   -4.4644    6.5269 O.2       1 <0>         0.0000
     21 O2         -3.1447   -2.9264    8.6424 O.2       1 <0>         0.0000
     22 O3         -3.3083   -5.1566    5.5236 O.2       1 <0>         0.0000
     23 O4         -1.3268    1.7082    3.7278 O.2       1 <0>         0.0000
     24 O5         -1.3610    0.6516    1.4154 O.2       1 <0>         0.0000
     25 O6         -4.7944    1.4115   -0.7773 O.3       1 <0>         0.0000
     26 O7         -4.0169   -0.8969    0.8078 O.3       1 <0>         0.0000
     27 S1         -2.0405    0.9502    2.6871 S.o2      1 <0>         0.0000
     28 Cl1        -4.0095   -4.2979    2.7174 Cl        1 <0>         0.0000
     29 H1         -2.9722   -1.6571    6.6877 H         1 <0>         0.0000
     30 H2         -2.2163    0.3233    5.3815 H         1 <0>         0.0000
     31 H3         -6.4087   -6.4852    8.0721 H         1 <0>         0.0000
     32 H4         -5.5650   -6.8856    6.5873 H         1 <0>         0.0000
     33 H5         -3.0111   -5.2623    9.6874 H         1 <0>         0.0000
     34 H6         -4.7454   -4.9925    9.8225 H         1 <0>         0.0000
     35 H7         -3.4026   -6.5478    7.5398 H         1 <0>         0.0000
     36 H8         -4.2899   -7.2716    8.8751 H         1 <0>         0.0000
     37 H9         -2.9016   -0.4518   -2.3418 H         1 <0>         0.0000
     38 H10        -2.0409   -0.2342   -0.8108 H         1 <0>         0.0000
     39 H11        -2.8276    1.9855   -0.5983 H         1 <0>         0.0000
     40 H12        -3.4132    1.8473   -2.2741 H         1 <0>         0.0000
     41 H13        -5.7123   -0.0847   -1.9186 H         1 <0>         0.0000
     42 H14        -6.1389   -0.0215   -0.1809 H         1 <0>         0.0000
     43 H15        -5.0843   -2.8012    6.9289 H         1 <0>         0.0000
     44 H16        -4.3044   -1.8474   -1.0139 H         1 <0>         0.0000
     45 H17        -3.2803    2.8012    1.9676 H         1 <0>         0.0000
     46 H18        -4.1559    1.2719    1.6077 H         1 <0>         0.0000
     47 H19        -4.1169    1.9335    3.2921 H         1 <0>         0.0000
     48 H20        -2.0153   -1.4694    0.8955 H         1 <0>         0.0000
     49 H21        -3.1959   -2.7965    0.8930 H         1 <0>         0.0000
@<TRIPOS>BOND
     1    1    2 ar
     2    1    3 ar
     3    1   29 1
     4    2    5 ar
     5    2   30 1
     6    3    6 ar
     7    3    9 1
     8    4    5 ar
     9    4    6 ar
    10    4   19 1
    11    5   27 1
    12    6   28 1
    13    7   10 1
    14    7   16 1
    15    7   20 2
    16    8   11 1
    17    8   16 1
    18    8   21 2
    19    9   16 1
    20    9   22 2
    21   10   12 1
    22   10   31 1
    23   10   32 1
    24   11   12 1
    25   11   33 1
    26   11   34 1
    27   12   35 1
    28   12   36 1
    29   13   14 1
    30   13   17 1
    31   13   37 1
    32   13   38 1
    33   14   25 1
    34   14   39 1
    35   14   40 1
    36   15   17 1
    37   15   25 1
    38   15   41 1
    39   15   42 1
    40   16   43 1
    41   17   26 1
    42   17   44 1
    43   18   27 1
    44   18   45 1
    45   18   46 1
    46   18   47 1
    47   19   26 1
    48   19   48 1
    49   19   49 1
    50   23   27 2
    51   24   27 2
