@<TRIPOS>MOLECULE
*****
   55    57     0     0     0
SMALL
NO_CHARGES

@<TRIPOS>ATOM
      1 C1         -4.2209   -9.3292    0.1158 C.ar      1 <0>         0.0000
      2 C2         -5.0628   -9.1325    1.2346 C.ar      1 <0>         0.0000
      3 C3         -3.1511   -8.4840   -0.1012 C.ar      1 <0>         0.0000
      4 C4         -4.8312   -8.0841    2.1005 C.ar      1 <0>         0.0000
      5 C5          0.3030   -6.4354   -3.1760 C.ar      1 <0>         0.0000
      6 C6          2.3886   -6.6464   -1.9924 C.ar      1 <0>         0.0000
      7 C7         -1.5359   -5.4805    1.4520 C.ar      1 <0>         0.0000
      8 C8          0.9393   -6.7583   -4.3707 C.ar      1 <0>         0.0000
      9 C9          3.0488   -6.9725   -3.1864 C.ar      1 <0>         0.0000
     10 C10        -2.4214   -5.2420    2.5294 C.ar      1 <0>         0.0000
     11 C11        -2.8648   -7.4106    0.7851 C.ar      1 <0>         0.0000
     12 C12        -3.7412   -7.1946    1.9012 C.ar      1 <0>         0.0000
     13 C13         1.0211   -6.3687   -1.9690 C.ar      1 <0>         0.0000
     14 C14        -1.7332   -6.5436    0.5867 C.ar      1 <0>         0.0000
     15 C15         2.3131   -7.0211   -4.3688 C.ar      1 <0>         0.0000
     16 C16        -3.4847   -6.0806    2.7570 C.ar      1 <0>         0.0000
     17 C17         3.4921   -4.2658   -8.6403 C.3       1 <0>         0.0000
     18 C18         4.7111   -7.3801  -10.2912 C.3       1 <0>         0.0000
     19 C19         0.3156   -5.9885   -0.6854 C.3       1 <0>         0.0000
     20 C20         4.3749   -5.3153   -7.9788 C.3       1 <0>         0.0000
     21 C21         3.4752   -7.2241   -9.4173 C.3       1 <0>         0.0000
     22 C22         4.5624   -7.6957   -7.1894 C.3       1 <0>         0.0000
     23 C23         4.2797   -7.4693   -5.7068 C.3       1 <0>         0.0000
     24 N1         -0.8868   -6.7922   -0.5110 N.pl3     1 <0>         0.0000
     25 N2          3.7726   -6.7072   -8.0199 N.4       1 <0>         0.0000
     26 O1          2.8696   -7.3354   -5.6123 O.3       1 <0>         0.0000
     27 Cl1        -4.5351   -5.7565    4.1298 Cl        1 <0>         0.0000
     28 H1         -4.4238  -10.1398   -0.5789 H         1 <0>         0.0000
     29 H2         -5.9018   -9.8014    1.4051 H         1 <0>         0.0000
     30 H3         -2.5398   -8.6289   -0.9865 H         1 <0>         0.0000
     31 H4         -5.4878   -7.9253    2.9485 H         1 <0>         0.0000
     32 H5         -0.7649   -6.2375   -3.1671 H         1 <0>         0.0000
     33 H6          2.9612   -6.6154   -1.0689 H         1 <0>         0.0000
     34 H7         -0.6873   -4.8163    1.3362 H         1 <0>         0.0000
     35 H8          0.3832   -6.8163   -5.3026 H         1 <0>         0.0000
     36 H9          4.1102   -7.1944   -3.1607 H         1 <0>         0.0000
     37 H10        -2.2434   -4.4007    3.1914 H         1 <0>         0.0000
     38 H11         3.4349   -4.3839   -9.7244 H         1 <0>         0.0000
     39 H12         2.4785   -4.2712   -8.2266 H         1 <0>         0.0000
     40 H13         3.9208   -3.2804   -8.4406 H         1 <0>         0.0000
     41 H14         5.2027   -6.4256  -10.4938 H         1 <0>         0.0000
     42 H15         5.4406   -8.0712   -9.8614 H         1 <0>         0.0000
     43 H16         4.3973   -7.7942  -11.2528 H         1 <0>         0.0000
     44 H17         1.0134   -6.0704    0.1630 H         1 <0>         0.0000
     45 H18         0.0130   -4.9364   -0.7440 H         1 <0>         0.0000
     46 H19         4.5156   -5.0813   -6.9231 H         1 <0>         0.0000
     47 H20         5.3583   -5.3799   -8.4459 H         1 <0>         0.0000
     48 H21         2.9657   -8.1795   -9.2741 H         1 <0>         0.0000
     49 H22         2.7588   -6.5309   -9.8590 H         1 <0>         0.0000
     50 H23         4.2276   -8.6913   -7.4841 H         1 <0>         0.0000
     51 H24         5.6229   -7.5903   -7.4196 H         1 <0>         0.0000
     52 H25         4.6452   -8.3377   -5.1463 H         1 <0>         0.0000
     53 H26         4.7838   -6.5760   -5.3190 H         1 <0>         0.0000
     54 H27        -0.6961   -7.7807   -0.6386 H         1 <0>         0.0000
     55 H28         2.8702   -6.6496   -7.5243 H         1 <0>         0.0000
@<TRIPOS>BOND
     1    1    2 ar
     2    1    3 ar
     3    1   28 1
     4    2    4 ar
     5    2   29 1
     6    3   11 ar
     7    3   30 1
     8    4   12 ar
     9    4   31 1
    10    5    8 ar
    11    5   13 ar
    12    5   32 1
    13    6    9 ar
    14    6   13 ar
    15    6   33 1
    16    7   10 ar
    17    7   14 ar
    18    7   34 1
    19    8   15 ar
    20    8   35 1
    21    9   15 ar
    22    9   36 1
    23   10   16 ar
    24   10   37 1
    25   11   12 ar
    26   11   14 ar
    27   12   16 ar
    28   13   19 1
    29   14   24 1
    30   15   26 1
    31   16   27 1
    32   17   20 1
    33   17   38 1
    34   17   39 1
    35   17   40 1
    36   18   21 1
    37   18   41 1
    38   18   42 1
    39   18   43 1
    40   19   24 1
    41   19   44 1
    42   19   45 1
    43   20   25 1
    44   20   46 1
    45   20   47 1
    46   21   25 1
    47   21   48 1
    48   21   49 1
    49   22   23 1
    50   22   25 1
    51   22   50 1
    52   22   51 1
    53   23   26 1
    54   23   52 1
    55   23   53 1
    56   24   54 1
    57   25   55 1
