@<TRIPOS>MOLECULE
*****
   70    74     0     0     0
SMALL
NO_CHARGES

@<TRIPOS>ATOM
      1 C1          2.9021   -6.9831   -5.5788 C.ar      1 <0>         0.0000
      2 C2          4.8072   -6.4530   -6.9652 C.ar      1 <0>         0.0000
      3 C3         -2.9097  -16.5990   -4.8569 C.ar      1 <0>         0.0000
      4 C4         -2.5829  -15.4210   -4.2063 C.ar      1 <0>         0.0000
      5 C5          3.2154   -5.9238   -4.7240 C.ar      1 <0>         0.0000
      6 C6          5.1360   -5.4055   -6.1224 C.ar      1 <0>         0.0000
      7 C7         -0.8348  -16.5510   -6.0922 C.ar      1 <0>         0.0000
      8 C8         -0.4899  -15.3567   -5.4390 C.ar      1 <0>         0.0000
      9 C9          3.6854   -7.2706   -6.7078 C.ar      1 <0>         0.0000
     10 C10        -2.0413  -17.1856   -5.8111 C.ar      1 <0>         0.0000
     11 C11        -1.3585  -14.7840   -4.4940 C.ar      1 <0>         0.0000
     12 C12         4.3414   -5.1281   -4.9915 C.ar      1 <0>         0.0000
     13 C13         0.7689  -14.6706   -5.7258 C.2       1 <0>         0.0000
     14 C14         3.3943   -8.3915   -7.6525 C.2       1 <0>         0.0000
     15 C15         4.3033  -10.7942   -6.1211 C.2       1 <0>         0.0000
     16 C16         4.5179    0.2261   -1.2855 C.3       1 <0>         0.0000
     17 C17         4.5429   -1.0047   -0.3685 C.3       1 <0>         0.0000
     18 C18         5.2023   -0.0668   -2.6277 C.3       1 <0>         0.0000
     19 C19         2.0922  -10.5261   -8.2976 C.3       1 <0>         0.0000
     20 C20         3.9324   -2.2337   -1.0575 C.3       1 <0>         0.0000
     21 C21         4.5901   -1.2950   -3.3150 C.3       1 <0>         0.0000
     22 C22         1.6381  -11.7955   -7.5305 C.3       1 <0>         0.0000
     23 C23         2.4089   -9.4737   -7.2191 C.3       1 <0>         0.0000
     24 C24         2.8544  -10.3246   -5.9840 C.3       1 <0>         0.0000
     25 C25         4.6216   -2.5304   -2.4004 C.3       1 <0>         0.0000
     26 C26         1.8192  -11.4673   -6.0283 C.3       1 <0>         0.0000
     27 C27        -2.4343  -18.4710   -6.4976 C.3       1 <0>         0.0000
     28 C28         2.1251  -12.6648   -5.1245 C.3       1 <0>         0.0000
     29 C29         3.9800   -3.7435   -3.0593 C.3       1 <0>         0.0000
     30 N1         -1.0605  -13.5997   -3.8218 N.2       1 <0>         0.0000
     31 N2          0.0361  -13.0009   -4.0542 N.2       1 <0>         0.0000
     32 N3          0.9317  -13.5079   -4.9556 N.am      1 <0>         0.0000
     33 O1          1.6136  -15.0344   -6.5393 O.2       1 <0>         0.0000
     34 O2          3.9645   -8.4561   -8.7352 O.2       1 <0>         0.0000
     35 O3          4.6404  -11.8735   -6.5517 O.2       1 <0>         0.0000
     36 O4          5.2513   -9.9028   -5.7144 O.3       1 <0>         0.0000
     37 O5          4.7430   -4.0818   -4.2293 O.3       1 <0>         0.0000
     38 H1          2.0173   -7.5716   -5.3572 H         1 <0>         0.0000
     39 H2          5.4134   -6.6736   -7.8381 H         1 <0>         0.0000
     40 H3         -3.8548  -17.0892   -4.6329 H         1 <0>         0.0000
     41 H4         -3.2457  -14.9688   -3.4745 H         1 <0>         0.0000
     42 H5          2.5816   -5.7266   -3.8677 H         1 <0>         0.0000
     43 H6          6.0042   -4.7805   -6.3096 H         1 <0>         0.0000
     44 H7         -0.1367  -16.9602   -6.8166 H         1 <0>         0.0000
     45 H8          5.0001    1.0764   -0.7895 H         1 <0>         0.0000
     46 H9          3.4746    0.5191   -1.4682 H         1 <0>         0.0000
     47 H10         5.5820   -1.2282   -0.0907 H         1 <0>         0.0000
     48 H11         4.0071   -0.7964    0.5647 H         1 <0>         0.0000
     49 H12         5.1320    0.8044   -3.2890 H         1 <0>         0.0000
     50 H13         6.2731   -0.2446   -2.4574 H         1 <0>         0.0000
     51 H14         2.9933  -10.7231   -8.8806 H         1 <0>         0.0000
     52 H15         1.3373  -10.1521   -8.9939 H         1 <0>         0.0000
     53 H16         4.0001   -3.1072   -0.3970 H         1 <0>         0.0000
     54 H17         2.8620   -2.0534   -1.2334 H         1 <0>         0.0000
     55 H18         3.5446   -1.0786   -3.5798 H         1 <0>         0.0000
     56 H19         5.1142   -1.5124   -4.2508 H         1 <0>         0.0000
     57 H20         0.5988  -12.0597   -7.7455 H         1 <0>         0.0000
     58 H21         2.2534  -12.6537   -7.8028 H         1 <0>         0.0000
     59 H22         1.4796   -8.9767   -6.9143 H         1 <0>         0.0000
     60 H23         2.7667   -9.7540   -5.0538 H         1 <0>         0.0000
     61 H24         5.6716   -2.7850   -2.1989 H         1 <0>         0.0000
     62 H25         0.8898  -11.0223   -5.6500 H         1 <0>         0.0000
     63 H26        -3.3710  -18.3482   -7.0528 H         1 <0>         0.0000
     64 H27        -1.6653  -18.8005   -7.2003 H         1 <0>         0.0000
     65 H28        -2.5928  -19.2726   -5.7677 H         1 <0>         0.0000
     66 H29         2.4162  -12.3319   -4.1251 H         1 <0>         0.0000
     67 H30         2.9133  -13.2856   -5.5440 H         1 <0>         0.0000
     68 H31         2.9445   -3.5199   -3.3504 H         1 <0>         0.0000
     69 H32         3.9721   -4.6001   -2.3723 H         1 <0>         0.0000
     70 H33         4.8419   -9.0534   -5.4672 H         1 <0>         0.0000
@<TRIPOS>BOND
     1    1    5 ar
     2    1    9 ar
     3    1   38 1
     4    2    6 ar
     5    2    9 ar
     6    2   39 1
     7    3    4 ar
     8    3   10 ar
     9    3   40 1
    10    4   11 ar
    11    4   41 1
    12    5   12 ar
    13    5   42 1
    14    6   12 ar
    15    6   43 1
    16    7    8 ar
    17    7   10 ar
    18    7   44 1
    19    8   11 ar
    20    8   13 1
    21    9   14 1
    22   10   27 1
    23   11   30 1
    24   12   37 1
    25   13   32 am
    26   13   33 2
    27   14   23 1
    28   14   34 2
    29   15   24 1
    30   15   35 2
    31   15   36 1
    32   16   18 1
    33   16   17 1
    34   16   45 1
    35   16   46 1
    36   17   20 1
    37   17   47 1
    38   17   48 1
    39   18   21 1
    40   18   49 1
    41   18   50 1
    42   19   22 1
    43   19   23 1
    44   19   51 1
    45   19   52 1
    46   20   25 1
    47   20   53 1
    48   20   54 1
    49   21   25 1
    50   21   55 1
    51   21   56 1
    52   22   26 1
    53   22   57 1
    54   22   58 1
    55   23   24 1
    56   23   59 1
    57   24   26 1
    58   24   60 1
    59   25   29 1
    60   25   61 1
    61   26   28 1
    62   26   62 1
    63   27   63 1
    64   27   64 1
    65   27   65 1
    66   28   32 1
    67   28   66 1
    68   28   67 1
    69   29   37 1
    70   29   68 1
    71   29   69 1
    72   30   31 2
    73   31   32 1
    74   36   70 1
