@<TRIPOS>MOLECULE
*****
   49    49     0     0     0
SMALL
NO_CHARGES

@<TRIPOS>ATOM
      1 C1         -3.6900   -2.9434   -3.1731 C.2       1 <0>         0.0000
      2 C2         -3.1339   -5.4244   -1.0109 C.2       1 <0>         0.0000
      3 C3         -4.1085   -1.4825   -3.2360 C.3       1 <0>         0.0000
      4 C4         -3.2419   -0.7923   -2.1708 C.3       1 <0>         0.0000
      5 C5         -2.8178   -1.9400   -1.2225 C.3       1 <0>         0.0000
      6 C6         -9.2559   -7.1802    1.7375 C.3       1 <0>         0.0000
      7 C7         -8.7764   -6.2677   -0.5329 C.3       1 <0>         0.0000
      8 C8         -6.3081   -6.0840    3.3608 C.3       1 <0>         0.0000
      9 C9         -5.0923   -7.9790    2.1846 C.3       1 <0>         0.0000
     10 C10        -2.2600   -4.3998   -1.7557 C.3       1 <0>         0.0000
     11 C11        -5.3272   -6.5323   -0.9293 C.3       1 <0>         0.0000
     12 C12        -5.9661   -5.8700    0.3018 C.3       1 <0>         0.0000
     13 C13        -8.2967   -6.2987    0.9273 C.3       1 <0>         0.0000
     14 C14        -6.4150   -7.2114    2.3144 C.3       1 <0>         0.0000
     15 C15        -3.7359   -2.0337    0.0031 C.3       1 <0>         0.0000
     16 N1         -2.9046   -3.1239   -2.0609 N.am      1 <0>         0.0000
     17 N2         -4.3517   -5.6472   -1.5632 N.am      1 <0>         0.0000
     18 N3         -6.8990   -6.7722    0.9875 N.3       1 <0>         0.0000
     19 O1         -3.9997   -3.8392   -3.9559 O.2       1 <0>         0.0000
     20 O2         -2.7159   -5.9913   -0.0003 O.2       1 <0>         0.0000
     21 F1         -3.6375   -0.9067    0.7510 F         1 <0>         0.0000
     22 F2         -5.0383   -2.1752   -0.3500 F         1 <0>         0.0000
     23 F3         -3.4143   -3.0764    0.7943 F         1 <0>         0.0000
     24 H1         -3.9584   -1.0988   -4.2468 H         1 <0>         0.0000
     25 H2         -5.1776   -1.4226   -3.0123 H         1 <0>         0.0000
     26 H3         -2.3412   -0.3716   -2.6239 H         1 <0>         0.0000
     27 H4         -3.7554    0.0102   -1.6398 H         1 <0>         0.0000
     28 H5         -1.8044   -1.8088   -0.8310 H         1 <0>         0.0000
     29 H6         -9.1572   -8.2312    1.4435 H         1 <0>         0.0000
     30 H7         -9.0962   -7.1048    2.8160 H         1 <0>         0.0000
     31 H8        -10.2865   -6.8689    1.5397 H         1 <0>         0.0000
     32 H9         -8.7511   -7.2774   -0.9571 H         1 <0>         0.0000
     33 H10        -8.1614   -5.6192   -1.1624 H         1 <0>         0.0000
     34 H11        -9.8040   -5.8925   -0.5854 H         1 <0>         0.0000
     35 H12        -5.5360   -5.3545    3.0945 H         1 <0>         0.0000
     36 H13        -7.2559   -5.5463    3.4697 H         1 <0>         0.0000
     37 H14        -6.0442   -6.4977    4.3405 H         1 <0>         0.0000
     38 H15        -4.2701   -7.3505    1.8297 H         1 <0>         0.0000
     39 H16        -5.2081   -8.8154    1.4880 H         1 <0>         0.0000
     40 H17        -4.8025   -8.3837    3.1605 H         1 <0>         0.0000
     41 H18        -1.3841   -4.2156   -1.1334 H         1 <0>         0.0000
     42 H19        -1.9357   -4.8357   -2.7060 H         1 <0>         0.0000
     43 H20        -6.0893   -6.7876   -1.6687 H         1 <0>         0.0000
     44 H21        -4.8300   -7.4556   -0.6250 H         1 <0>         0.0000
     45 H22        -5.1559   -5.5595    0.9650 H         1 <0>         0.0000
     46 H23        -6.4642   -4.9429   -0.0053 H         1 <0>         0.0000
     47 H24        -8.3742   -5.2687    1.3261 H         1 <0>         0.0000
     48 H25        -7.1477   -7.9333    2.6813 H         1 <0>         0.0000
     49 H26        -4.5578   -5.2164   -2.4596 H         1 <0>         0.0000
@<TRIPOS>BOND
     1    1    3 1
     2    1   16 am
     3    1   19 2
     4    2   10 1
     5    2   17 am
     6    2   20 2
     7    3    4 1
     8    3   24 1
     9    3   25 1
    10    4    5 1
    11    4   26 1
    12    4   27 1
    13    5   15 1
    14    5   16 1
    15    5   28 1
    16    6   13 1
    17    6   29 1
    18    6   30 1
    19    6   31 1
    20    7   13 1
    21    7   32 1
    22    7   33 1
    23    7   34 1
    24    8   14 1
    25    8   35 1
    26    8   36 1
    27    8   37 1
    28    9   14 1
    29    9   38 1
    30    9   39 1
    31    9   40 1
    32   10   16 1
    33   10   41 1
    34   10   42 1
    35   11   12 1
    36   11   17 1
    37   11   43 1
    38   11   44 1
    39   12   18 1
    40   12   45 1
    41   12   46 1
    42   13   18 1
    43   13   47 1
    44   14   18 1
    45   14   48 1
    46   15   21 1
    47   15   22 1
    48   15   23 1
    49   17   49 1
