@<TRIPOS>MOLECULE
*****
   55    58     0     0     0
SMALL
NO_CHARGES

@<TRIPOS>ATOM
      1 C1         -1.6942   -5.5397    5.7524 C.ar      1 <0>         0.0000
      2 C2          3.8902   -6.5771   -1.4707 C.ar      1 <0>         0.0000
      3 C3         -0.5800   -6.3602    5.9547 C.ar      1 <0>         0.0000
      4 C4         -1.5325   -4.2994    5.1231 C.ar      1 <0>         0.0000
      5 C5          4.2753   -5.4271   -0.7735 C.ar      1 <0>         0.0000
      6 C6          2.9666   -7.4550   -0.8929 C.ar      1 <0>         0.0000
      7 C7          1.2789   -1.0692    1.6342 C.ar      1 <0>         0.0000
      8 C8         -0.0891   -2.7400    0.5876 C.ar      1 <0>         0.0000
      9 C9          0.6837   -5.9384    5.5262 C.ar      1 <0>         0.0000
     10 C10        -0.2684   -3.8805    4.7008 C.ar      1 <0>         0.0000
     11 C11         3.7501   -5.1587    0.4936 C.ar      1 <0>         0.0000
     12 C12         2.4354   -7.1777    0.3703 C.ar      1 <0>         0.0000
     13 C13         1.9739   -2.0697    2.3073 C.ar      1 <0>         0.0000
     14 C14         0.5964   -3.7504    1.2760 C.ar      1 <0>         0.0000
     15 C15         0.2180   -1.3869    0.7633 C.ar      1 <0>         0.0000
     16 C16         0.8578   -4.6976    4.8980 C.ar      1 <0>         0.0000
     17 C17         2.8244   -6.0323    1.0778 C.ar      1 <0>         0.0000
     18 C18         1.6321   -3.4257    2.1577 C.ar      1 <0>         0.0000
     19 C19         1.6069    1.0084   -0.9519 C.2       1 <0>         0.0000
     20 C20        -2.4165    0.7983    0.0941 C.3       1 <0>         0.0000
     21 C21        -1.0830    0.8850    0.8838 C.3       1 <0>         0.0000
     22 C22        -2.0023   -0.6190   -0.3853 C.3       1 <0>         0.0000
     23 C23        -0.5239   -0.2971    0.0228 C.3       1 <0>         0.0000
     24 C24         2.2188   -4.2731    4.3718 C.3       1 <0>         0.0000
     25 C25         2.2587   -5.7883    2.4647 C.3       1 <0>         0.0000
     26 C26         0.2823    0.2031   -1.1975 C.3       1 <0>         0.0000
     27 N1          2.3642   -4.4056    2.9095 N.pl3     1 <0>         0.0000
     28 O1          1.7662    1.5376    0.1901 O.co2     1 <0>         0.0000
     29 O2          2.3568    1.0762   -1.9594 O.co2     1 <0>         0.0000
     30 H1         -2.6793   -5.8630    6.0808 H         1 <0>         0.0000
     31 H2          4.2931   -6.7787   -2.4604 H         1 <0>         0.0000
     32 H3         -0.6941   -7.3256    6.4430 H         1 <0>         0.0000
     33 H4         -2.3937   -3.6565    4.9579 H         1 <0>         0.0000
     34 H5          4.9732   -4.7255   -1.2238 H         1 <0>         0.0000
     35 H6          2.6502   -8.3463   -1.4303 H         1 <0>         0.0000
     36 H7          1.5795   -0.0271    1.7087 H         1 <0>         0.0000
     37 H8         -0.8825   -3.0257   -0.0990 H         1 <0>         0.0000
     38 H9          1.5475   -6.5832    5.6804 H         1 <0>         0.0000
     39 H10        -0.1538   -2.9214    4.2043 H         1 <0>         0.0000
     40 H11         4.0331   -4.2562    1.0248 H         1 <0>         0.0000
     41 H12         1.7016   -7.8534    0.8077 H         1 <0>         0.0000
     42 H13         2.8128   -1.8012    2.9463 H         1 <0>         0.0000
     43 H14         0.3108   -4.7844    1.1140 H         1 <0>         0.0000
     44 H15        -2.4566    1.5200   -0.7276 H         1 <0>         0.0000
     45 H16        -3.3488    0.8722    0.6658 H         1 <0>         0.0000
     46 H17        -0.4968    1.8022    0.8364 H         1 <0>         0.0000
     47 H18        -1.2128    0.5889    1.9311 H         1 <0>         0.0000
     48 H19        -2.4480   -1.3941    0.2484 H         1 <0>         0.0000
     49 H20        -2.1795   -0.8756   -1.4364 H         1 <0>         0.0000
     50 H21         2.4105   -3.2314    4.6340 H         1 <0>         0.0000
     51 H22         3.0027   -4.8767    4.8442 H         1 <0>         0.0000
     52 H23         1.2288   -6.1805    2.5093 H         1 <0>         0.0000
     53 H24         2.8335   -6.3921    3.1791 H         1 <0>         0.0000
     54 H25        -0.3644    0.8618   -1.7948 H         1 <0>         0.0000
     55 H26         0.5187   -0.6508   -1.8428 H         1 <0>         0.0000
@<TRIPOS>BOND
     1    1    4 ar
     2    1    3 ar
     3    1   30 1
     4    2    6 ar
     5    2    5 ar
     6    2   31 1
     7    3    9 ar
     8    3   32 1
     9    4   10 ar
    10    4   33 1
    11    5   11 ar
    12    5   34 1
    13    6   12 ar
    14    6   35 1
    15    7   13 ar
    16    7   15 ar
    17    7   36 1
    18    8   14 ar
    19    8   15 ar
    20    8   37 1
    21    9   16 ar
    22    9   38 1
    23   10   16 ar
    24   10   39 1
    25   11   17 ar
    26   11   40 1
    27   12   17 ar
    28   12   41 1
    29   13   18 ar
    30   13   42 1
    31   14   18 ar
    32   14   43 1
    33   15   23 1
    34   16   24 1
    35   17   25 1
    36   18   27 1
    37   19   26 1
    38   19   28 1
    39   19   29 2
    40   20   22 1
    41   20   21 1
    42   20   44 1
    43   20   45 1
    44   21   23 1
    45   21   46 1
    46   21   47 1
    47   22   23 1
    48   22   48 1
    49   22   49 1
    50   23   26 1
    51   24   27 1
    52   24   50 1
    53   24   51 1
    54   25   27 1
    55   25   52 1
    56   25   53 1
    57   26   54 1
    58   26   55 1
