@<TRIPOS>MOLECULE
*****
   69    73     0     0     0
SMALL
NO_CHARGES

@<TRIPOS>ATOM
      1 C1          6.8337    3.5619    6.0806 C.ar      1 <0>         0.0000
      2 C2          7.0650    2.7996    4.9308 C.ar      1 <0>         0.0000
      3 C3          5.8641    4.5716    6.0679 C.ar      1 <0>         0.0000
      4 C4        -10.6220   -6.1377   -1.1408 C.ar      1 <0>         0.0000
      5 C5         -1.0884    0.3208   -0.2163 C.ar      1 <0>         0.0000
      6 C6          0.4869    3.6585    0.1373 C.ar      1 <0>         0.0000
      7 C7          1.5331    1.7091   -0.8472 C.ar      1 <0>         0.0000
      8 C8          6.3392    3.0548    3.7653 C.ar      1 <0>         0.0000
      9 C9          5.1297    4.8212    4.9089 C.ar      1 <0>         0.0000
     10 C10        -9.6736   -5.2035   -1.5501 C.ar      1 <0>         0.0000
     11 C11        -2.3303   -0.3002   -0.3108 C.ar      1 <0>         0.0000
     12 C12         1.7221    4.2985    0.2105 C.ar      1 <0>         0.0000
     13 C13         2.7766    2.3347   -0.7801 C.ar      1 <0>         0.0000
     14 C14        -2.0954    2.4185   -0.8367 C.ar      1 <0>         0.0000
     15 C15       -10.2707   -7.0564   -0.1422 C.ar      1 <0>         0.0000
     16 C16        -8.1569   -6.1979    0.0278 C.ar      1 <0>         0.0000
     17 C17         0.3731    2.3609   -0.3919 C.ar      1 <0>         0.0000
     18 C18        -0.9484    1.6952   -0.4827 C.ar      1 <0>         0.0000
     19 C19         5.3706    4.0716    3.7471 C.ar      1 <0>         0.0000
     20 C20        -3.3571    1.8211   -0.9371 C.ar      1 <0>         0.0000
     21 C21        -8.4061   -5.2268   -0.9504 C.ar      1 <0>         0.0000
     22 C22        -3.4487    0.4503   -0.6738 C.ar      1 <0>         0.0000
     23 C23         2.8540    3.6229   -0.2479 C.ar      1 <0>         0.0000
     24 C24         4.5510    4.4008    2.5418 C.2       1 <0>         0.0000
     25 C25        -4.5781    2.6255   -1.3329 C.3       1 <0>         0.0000
     26 C26        -5.8695    1.8837   -0.9716 C.3       1 <0>         0.0000
     27 C27        -5.7413    0.4298   -1.4114 C.3       1 <0>         0.0000
     28 C28        -6.9694   -0.4040   -1.0669 C.3       1 <0>         0.0000
     29 C29        -7.6430   -2.8475   -0.7531 C.3       1 <0>         0.0000
     30 C30        -7.3348   -4.2323   -1.3269 C.3       1 <0>         0.0000
     31 N1         -9.0628   -7.0935    0.4346 N.ar      1 <0>         0.0000
     32 N2          5.0787    3.9781    1.3197 N.am      1 <0>         0.0000
     33 N3         -6.6507   -1.8572   -1.3049 N.4       1 <0>         0.0000
     34 O1          3.4763    4.9837    2.6011 O.2       1 <0>         0.0000
     35 O2          4.2261    5.8823   -0.2460 O.2       1 <0>         0.0000
     36 O3          5.3545    3.7723   -1.1341 O.2       1 <0>         0.0000
     37 O4         -4.6675   -0.2356   -0.7323 O.3       1 <0>         0.0000
     38 O5         -7.2285   -3.9951   -2.7395 O.3       1 <0>         0.0000
     39 S1          4.4421    4.4438   -0.2069 S.o2      1 <0>         0.0000
     40 H1          7.4042    3.3665    6.9846 H         1 <0>         0.0000
     41 H2          7.8063    2.0056    4.9430 H         1 <0>         0.0000
     42 H3          5.6826    5.1628    6.9612 H         1 <0>         0.0000
     43 H4        -11.6137   -6.1629   -1.5820 H         1 <0>         0.0000
     44 H5         -0.2251   -0.2612    0.0916 H         1 <0>         0.0000
     45 H6         -0.3933    4.1653    0.5223 H         1 <0>         0.0000
     46 H7          1.4598    0.7214   -1.2931 H         1 <0>         0.0000
     47 H8          6.5107    2.4301    2.8924 H         1 <0>         0.0000
     48 H9          4.3693    5.5951    4.8810 H         1 <0>         0.0000
     49 H10        -9.9045   -4.4835   -2.3317 H         1 <0>         0.0000
     50 H11        -2.4418   -1.3590   -0.0934 H         1 <0>         0.0000
     51 H12         1.8194    5.2927    0.6305 H         1 <0>         0.0000
     52 H13         3.6703    1.8490   -1.1589 H         1 <0>         0.0000
     53 H14        -2.0067    3.4780   -1.0643 H         1 <0>         0.0000
     54 H15       -10.9898   -7.7967    0.2025 H         1 <0>         0.0000
     55 H16        -7.1774   -6.2604    0.5041 H         1 <0>         0.0000
     56 H17        -4.5597    3.6007   -0.8385 H         1 <0>         0.0000
     57 H18        -4.5565    2.8239   -2.4115 H         1 <0>         0.0000
     58 H19        -6.0353    1.9094    0.1112 H         1 <0>         0.0000
     59 H20        -6.7343    2.3479   -1.4570 H         1 <0>         0.0000
     60 H21        -5.5499    0.3880   -2.4953 H         1 <0>         0.0000
     61 H22        -7.8350   -0.1371   -1.6751 H         1 <0>         0.0000
     62 H23        -7.2176   -0.3026   -0.0084 H         1 <0>         0.0000
     63 H24        -7.5829   -2.8334    0.3357 H         1 <0>         0.0000
     64 H25        -8.6346   -2.5181   -1.0686 H         1 <0>         0.0000
     65 H26        -6.3685   -4.5791   -0.9320 H         1 <0>         0.0000
     66 H27         6.0462    3.6757    1.2454 H         1 <0>         0.0000
     67 H28        -6.5692   -2.0588   -2.3127 H         1 <0>         0.0000
     68 H29        -5.7114   -2.0094   -0.9070 H         1 <0>         0.0000
     69 H30        -7.1031   -4.8403   -3.2031 H         1 <0>         0.0000
@<TRIPOS>BOND
     1    1    3 ar
     2    1    2 ar
     3    1   40 1
     4    2    8 ar
     5    2   41 1
     6    3    9 ar
     7    3   42 1
     8    4   10 ar
     9    4   15 ar
    10    4   43 1
    11    5   11 ar
    12    5   18 ar
    13    5   44 1
    14    6   12 ar
    15    6   17 ar
    16    6   45 1
    17    7   13 ar
    18    7   17 ar
    19    7   46 1
    20    8   19 ar
    21    8   47 1
    22    9   19 ar
    23    9   48 1
    24   10   21 ar
    25   10   49 1
    26   11   22 ar
    27   11   50 1
    28   12   23 ar
    29   12   51 1
    30   13   23 ar
    31   13   52 1
    32   14   18 ar
    33   14   20 ar
    34   14   53 1
    35   15   31 ar
    36   15   54 1
    37   16   21 ar
    38   16   31 ar
    39   16   55 1
    40   17   18 1
    41   19   24 1
    42   20   22 ar
    43   20   25 1
    44   21   30 1
    45   22   37 1
    46   23   39 1
    47   24   32 am
    48   24   34 2
    49   25   26 1
    50   25   56 1
    51   25   57 1
    52   26   27 1
    53   26   58 1
    54   26   59 1
    55   27   28 1
    56   27   37 1
    57   27   60 1
    58   28   33 1
    59   28   61 1
    60   28   62 1
    61   29   30 1
    62   29   33 1
    63   29   63 1
    64   29   64 1
    65   30   38 1
    66   30   65 1
    67   32   39 1
    68   32   66 1
    69   33   67 1
    70   33   68 1
    71   35   39 2
    72   36   39 2
    73   38   69 1
