@<TRIPOS>MOLECULE
*****
   57    60     0     0     0
SMALL
NO_CHARGES

@<TRIPOS>ATOM
      1 C1          2.3288    0.3656   -2.3181 C.ar      1 <0>         0.0000
      2 C2          0.0080   -0.2510   -2.6849 C.ar      1 <0>         0.0000
      3 C3         -0.5117   -6.9875    9.5515 C.ar      1 <0>         0.0000
      4 C4         -0.1095   -5.9811    8.6713 C.ar      1 <0>         0.0000
      5 C5          2.4214    0.8226   -3.6304 C.ar      1 <0>         0.0000
      6 C6          0.0818    0.2074   -3.9938 C.ar      1 <0>         0.0000
      7 C7         -0.2636   -7.5331    6.7971 C.ar      1 <0>         0.0000
      8 C8          1.1254   -0.1784   -1.8264 C.ar      1 <0>         0.0000
      9 C9         -0.7956   -8.2641    9.0603 C.ar      1 <0>         0.0000
     10 C10        -0.6707   -8.5276    7.6919 C.ar      1 <0>         0.0000
     11 C11         0.0126   -6.2568    7.3029 C.ar      1 <0>         0.0000
     12 C12         1.2928    0.7369   -4.4447 C.ar      1 <0>         0.0000
     13 C13         0.9694   -0.7006   -0.4497 C.2       1 <0>         0.0000
     14 C14        -1.2244   -9.5112    9.8055 C.3       1 <0>         0.0000
     15 C15        -1.0026   -9.9765    7.3996 C.3       1 <0>         0.0000
     16 C16        -1.7618  -10.4241    8.6744 C.3       1 <0>         0.0000
     17 C17         2.9583   -1.9638    0.4143 C.3       1 <0>         0.0000
     18 C18         1.7086   -0.4522    1.9884 C.3       1 <0>         0.0000
     19 C19         2.1924   -3.1543    0.9814 C.3       1 <0>         0.0000
     20 C20         1.0094   -1.6592    2.6086 C.3       1 <0>         0.0000
     21 C21         2.1516   -0.6510    0.5275 C.3       1 <0>         0.0000
     22 C22         1.0007   -4.0546    4.5455 C.3       1 <0>         0.0000
     23 C23         1.1566   -4.1447    3.0316 C.3       1 <0>         0.0000
     24 C24         0.5551   -5.3962    5.1299 C.3       1 <0>         0.0000
     25 N1          1.8307   -2.9254    2.4361 N.4       1 <0>         0.0000
     26 O1         -0.0811   -1.2331   -0.0822 O.2       1 <0>         0.0000
     27 O2          0.4143   -5.1833    6.5179 O.3       1 <0>         0.0000
     28 F1          1.3742    1.1809   -5.7095 F         1 <0>         0.0000
     29 H1          3.2110    0.4392   -1.6911 H         1 <0>         0.0000
     30 H2         -0.9159   -0.6703   -2.3008 H         1 <0>         0.0000
     31 H3         -0.6064   -6.7656   10.6118 H         1 <0>         0.0000
     32 H4          0.1080   -4.9771    9.0240 H         1 <0>         0.0000
     33 H5          3.3397    1.2434   -4.0271 H         1 <0>         0.0000
     34 H6         -0.7696    0.1648   -4.6657 H         1 <0>         0.0000
     35 H7         -0.1771   -7.7614    5.7392 H         1 <0>         0.0000
     36 H8         -0.3593   -9.9700   10.3027 H         1 <0>         0.0000
     37 H9         -1.9713   -9.3137   10.5805 H         1 <0>         0.0000
     38 H10        -1.5907  -10.1093    6.4857 H         1 <0>         0.0000
     39 H11        -0.0759  -10.5526    7.2727 H         1 <0>         0.0000
     40 H12        -1.6363  -11.4882    8.8904 H         1 <0>         0.0000
     41 H13        -2.8323  -10.2373    8.5391 H         1 <0>         0.0000
     42 H14         3.9137   -1.8515    0.9428 H         1 <0>         0.0000
     43 H15         3.2041   -2.1889   -0.6277 H         1 <0>         0.0000
     44 H16         1.0200    0.3933    2.0697 H         1 <0>         0.0000
     45 H17         2.5915   -0.1940    2.5867 H         1 <0>         0.0000
     46 H18         1.2509   -3.3200    0.4557 H         1 <0>         0.0000
     47 H19         2.7898   -4.0677    0.9424 H         1 <0>         0.0000
     48 H20         0.8666   -1.5159    3.6794 H         1 <0>         0.0000
     49 H21         0.0521   -1.8504    2.1271 H         1 <0>         0.0000
     50 H22         2.8121    0.1780    0.2702 H         1 <0>         0.0000
     51 H23         0.2606   -3.3020    4.8275 H         1 <0>         0.0000
     52 H24         1.9534   -3.7777    5.0141 H         1 <0>         0.0000
     53 H25         0.1957   -4.2436    2.5213 H         1 <0>         0.0000
     54 H26         1.7800   -4.9996    2.7557 H         1 <0>         0.0000
     55 H27         1.3049   -6.1747    4.9252 H         1 <0>         0.0000
     56 H28        -0.3973   -5.7150    4.6812 H         1 <0>         0.0000
     57 H29         2.7099   -2.7893    2.9478 H         1 <0>         0.0000
@<TRIPOS>BOND
     1    1    5 ar
     2    1    8 ar
     3    1   29 1
     4    2    6 ar
     5    2    8 ar
     6    2   30 1
     7    3    4 ar
     8    3    9 ar
     9    3   31 1
    10    4   11 ar
    11    4   32 1
    12    5   12 ar
    13    5   33 1
    14    6   12 ar
    15    6   34 1
    16    7   10 ar
    17    7   11 ar
    18    7   35 1
    19    8   13 1
    20    9   10 ar
    21    9   14 1
    22   10   15 1
    23   11   27 1
    24   12   28 1
    25   13   21 1
    26   13   26 2
    27   14   16 1
    28   14   36 1
    29   14   37 1
    30   15   16 1
    31   15   38 1
    32   15   39 1
    33   16   40 1
    34   16   41 1
    35   17   19 1
    36   17   21 1
    37   17   42 1
    38   17   43 1
    39   18   20 1
    40   18   21 1
    41   18   44 1
    42   18   45 1
    43   19   25 1
    44   19   46 1
    45   19   47 1
    46   20   25 1
    47   20   48 1
    48   20   49 1
    49   21   50 1
    50   22   23 1
    51   22   24 1
    52   22   51 1
    53   22   52 1
    54   23   25 1
    55   23   53 1
    56   23   54 1
    57   24   27 1
    58   24   55 1
    59   24   56 1
    60   25   57 1
