@<TRIPOS>MOLECULE
*****
   30    32     0     0     0
SMALL
NO_CHARGES

@<TRIPOS>ATOM
      1 C1          1.3555    0.7829    1.2762 C.ar      1 <0>         0.0000
      2 C2          0.0585    0.2907    1.0817 C.ar      1 <0>         0.0000
      3 C3          1.6610    1.5685    2.3957 C.ar      1 <0>         0.0000
      4 C4         -0.9574    0.5766    2.0034 C.ar      1 <0>         0.0000
      5 C5          0.6495    1.8471    3.3127 C.ar      1 <0>         0.0000
      6 C6         -0.6497    1.3556    3.1175 C.ar      1 <0>         0.0000
      7 C7          0.3071    0.9615    7.3161 C.cat     1 <0>         0.0000
      8 C8          0.7080    2.6800    4.5789 C.3       1 <0>         0.0000
      9 C9         -1.5594    1.8302    4.2343 C.3       1 <0>         0.0000
     10 C10         1.0705    1.5669    9.4126 C.3       1 <0>         0.0000
     11 C11         1.2717    0.0605    9.1634 C.3       1 <0>         0.0000
     12 C12        -0.5536    2.2077    5.3438 C.3       1 <0>         0.0000
     13 N1          0.6795    2.0074    8.0609 N.pl3     1 <0>         0.0000
     14 N2         -0.2563    0.9825    6.1280 N.pl3     1 <0>         0.0000
     15 O1          0.5498   -0.1988    7.9058 O.3       1 <0>         0.0000
     16 H1          2.1321    0.5511    0.5530 H         1 <0>         0.0000
     17 H2         -0.1606   -0.3188    0.2097 H         1 <0>         0.0000
     18 H3          2.6695    1.9486    2.5400 H         1 <0>         0.0000
     19 H4         -1.9636    0.1955    1.8467 H         1 <0>         0.0000
     20 H5          1.6284    2.5485    5.1568 H         1 <0>         0.0000
     21 H6          0.6129    3.7494    4.3506 H         1 <0>         0.0000
     22 H7         -2.1110    2.7290    3.9345 H         1 <0>         0.0000
     23 H8         -2.2990    1.0967    4.5697 H         1 <0>         0.0000
     24 H9          0.2728    1.7745   10.1310 H         1 <0>         0.0000
     25 H10         1.9893    2.0606    9.7314 H         1 <0>         0.0000
     26 H11         2.3144   -0.2099    8.9920 H         1 <0>         0.0000
     27 H12         0.8296   -0.5810    9.9230 H         1 <0>         0.0000
     28 H13        -0.9604    2.9517    6.0343 H         1 <0>         0.0000
     29 H14         0.4823    2.9691    7.8138 H         1 <0>         0.0000
     30 H15        -0.3514    0.0824    5.6636 H         1 <0>         0.0000
@<TRIPOS>BOND
     1    1    2 ar
     2    1    3 ar
     3    1   16 1
     4    2    4 ar
     5    2   17 1
     6    3    5 ar
     7    3   18 1
     8    4    6 ar
     9    4   19 1
    10    5    6 ar
    11    5    8 1
    12    6    9 1
    13    7   13 2
    14    7   14 1
    15    7   15 1
    16    8   12 1
    17    8   20 1
    18    8   21 1
    19    9   12 1
    20    9   22 1
    21    9   23 1
    22   10   11 1
    23   10   13 1
    24   10   24 1
    25   10   25 1
    26   11   15 1
    27   11   26 1
    28   11   27 1
    29   12   14 1
    30   12   28 1
    31   13   29 1
    32   14   30 1
