@<TRIPOS>MOLECULE
*****
   15    15     0     0     0
SMALL
NO_CHARGES

@<TRIPOS>ATOM
      1 C1         -0.5658    0.8552   -1.6711 C.2       1 <0>         0.0000
      2 C2         -2.9768    2.2020   -3.3013 C.3       1 <0>         0.0000
      3 C3         -4.0286    1.2381   -2.8354 C.3       1 <0>         0.0000
      4 C4         -2.5898    0.8104   -2.8899 C.3       1 <0>         0.0000
      5 C5         -0.0021    0.7040   -0.2908 C.3       1 <0>         0.0000
      6 O1          0.1084    1.0911   -2.6646 O.2       1 <0>         0.0000
      7 O2         -1.9187    0.6904   -1.6316 O.3       1 <0>         0.0000
      8 H1         -2.9451    2.4429   -4.3566 H         1 <0>         0.0000
      9 H2         -2.7183    3.0231   -2.6442 H         1 <0>         0.0000
     10 H3         -4.4775    1.4107   -1.8651 H         1 <0>         0.0000
     11 H4         -4.7042    0.8312   -3.5776 H         1 <0>         0.0000
     12 H5         -2.3057    0.1178   -3.6731 H         1 <0>         0.0000
     13 H6          0.0188    1.6752    0.2098 H         1 <0>         0.0000
     14 H7          1.0024    0.2766   -0.3451 H         1 <0>         0.0000
     15 H8         -0.6370    0.0270    0.2881 H         1 <0>         0.0000
@<TRIPOS>BOND
     1    1    5 1
     2    1    6 2
     3    1    7 1
     4    2    3 1
     5    2    4 1
     6    2    8 1
     7    2    9 1
     8    3    4 1
     9    3   10 1
    10    3   11 1
    11    4    7 1
    12    4   12 1
    13    5   13 1
    14    5   14 1
    15    5   15 1
