@<TRIPOS>MOLECULE
*****
   17    17     0     0     0
SMALL
NO_CHARGES

@<TRIPOS>ATOM
      1 C1          2.2741    0.8210    5.4358 C.2       1 <0>         0.0000
      2 C2          2.9803   -0.9121    4.2813 C.2       1 <0>         0.0000
      3 C3          3.0514   -0.3488    5.5319 C.2       1 <0>         0.0000
      4 C4          0.4032   -0.7398    1.9637 C.2       1 <0>         0.0000
      5 C5         -0.0511   -0.9536    0.5434 C.3       1 <0>         0.0000
      6 C6          1.8261   -0.2530    2.1393 C.3       1 <0>         0.0000
      7 N1          1.7480    0.9919    4.2201 N.2       1 <0>         0.0000
      8 N2          2.1955   -0.0778    3.5408 N.pl3     1 <0>         0.0000
      9 O1         -0.3545   -0.9537    2.9091 O.2       1 <0>         0.0000
     10 Br1         3.9545   -0.9526    7.0434 Br        1 <0>         0.0000
     11 H1          2.0660    1.5591    6.1977 H         1 <0>         0.0000
     12 H2          3.4102   -1.8128    3.8644 H         1 <0>         0.0000
     13 H3          0.1657   -1.9805    0.2366 H         1 <0>         0.0000
     14 H4         -1.1284   -0.7840    0.4743 H         1 <0>         0.0000
     15 H5          0.4825   -0.2674   -0.1187 H         1 <0>         0.0000
     16 H6          1.9480    0.7103    1.6334 H         1 <0>         0.0000
     17 H7          2.5178   -0.9758    1.6943 H         1 <0>         0.0000
@<TRIPOS>BOND
     1    1    3 1
     2    1    7 2
     3    1   11 1
     4    2    3 2
     5    2    8 1
     6    2   12 1
     7    3   10 1
     8    4    5 1
     9    4    6 1
    10    4    9 2
    11    5   13 1
    12    5   14 1
    13    5   15 1
    14    6    8 1
    15    6   16 1
    16    6   17 1
    17    7    8 1
