@<TRIPOS>MOLECULE
*****
   19    20     0     0     0
SMALL
NO_CHARGES

@<TRIPOS>ATOM
      1 C1          1.8851   -1.0363   -0.1124 C.ar      1 <0>         0.0000
      2 C2          0.8066   -0.4630    0.5610 C.ar      1 <0>         0.0000
      3 C3          2.9210   -1.6309    0.6081 C.ar      1 <0>         0.0000
      4 C4          0.7638   -0.4841    1.9551 C.ar      1 <0>         0.0000
      5 C5          4.2886   -3.5991    2.5685 C.2       1 <0>         0.0000
      6 C6          5.6307   -2.3612    4.1398 C.2       1 <0>         0.0000
      7 C7          2.8783   -1.6520    2.0022 C.ar      1 <0>         0.0000
      8 C8          1.7997   -1.0786    2.6757 C.ar      1 <0>         0.0000
      9 C9          3.9564   -2.2699    2.7262 C.2       1 <0>         0.0000
     10 N1          4.7246   -1.5585    3.6271 N.2       1 <0>         0.0000
     11 O1          1.7316   -1.0848    4.0378 O.3       1 <0>         0.0000
     12 S1          5.6166   -3.9845    3.5831 S.3       1 <0>         0.0000
     13 H1          1.9184   -1.0194   -1.1979 H         1 <0>         0.0000
     14 H2          0.0003    0.0002   -0.0002 H         1 <0>         0.0000
     15 H3          3.7546   -2.0732    0.0671 H         1 <0>         0.0000
     16 H4         -0.0794   -0.0353    2.4730 H         1 <0>         0.0000
     17 H5          3.8346   -4.3448    1.9300 H         1 <0>         0.0000
     18 H6          6.3490   -2.0235    4.8741 H         1 <0>         0.0000
     19 H7          0.9190   -0.6461    4.3331 H         1 <0>         0.0000
@<TRIPOS>BOND
     1    1    2 ar
     2    1    3 ar
     3    1   13 1
     4    2    4 ar
     5    2   14 1
     6    3    7 ar
     7    3   15 1
     8    4    8 ar
     9    4   16 1
    10    5    9 2
    11    5   12 1
    12    5   17 1
    13    6   10 2
    14    6   12 1
    15    6   18 1
    16    7    8 ar
    17    7    9 1
    18    8   11 1
    19    9   10 1
    20   11   19 1
