@<TRIPOS>MOLECULE
*****
   24    24     0     0     0
SMALL
NO_CHARGES

@<TRIPOS>ATOM
      1 C1          0.2424    0.9980   -0.2829 C.2       1 <0>         0.0000
      2 C2          0.2871   -0.3522   -0.1160 C.2       1 <0>         0.0000
      3 C3          1.3266    1.8636   -0.7280 C.2       1 <0>         0.0000
      4 C4         -2.0782    0.0469    0.2087 C.3       1 <0>         0.0000
      5 C5         -0.9571   -0.9709    0.4765 C.3       1 <0>         0.0000
      6 C6         -1.2746   -2.3715   -0.0561 C.3       1 <0>         0.0000
      7 C7          4.7181    0.9306   -1.8167 C.3       1 <0>         0.0000
      8 C8          3.6023    1.9110   -1.5059 C.3       1 <0>         0.0000
      9 O1          1.2884    3.0778   -0.8014 O.2       1 <0>         0.0000
     10 O2          1.3224   -1.1780   -0.3602 O.3       1 <0>         0.0000
     11 O3          2.4540    1.1372   -1.0641 O.3       1 <0>         0.0000
     12 S1         -1.3152    1.7281    0.2101 S.3       1 <0>         0.0000
     13 H1         -2.5202   -0.1314   -0.7772 H         1 <0>         0.0000
     14 H2         -2.8654    0.0095    0.9636 H         1 <0>         0.0000
     15 H3         -0.7810   -1.0331    1.5618 H         1 <0>         0.0000
     16 H4         -1.4391   -2.3482   -1.1384 H         1 <0>         0.0000
     17 H5         -2.1794   -2.7628    0.4199 H         1 <0>         0.0000
     18 H6         -0.4521   -3.0618    0.1473 H         1 <0>         0.0000
     19 H7          4.9927    0.3518   -0.9292 H         1 <0>         0.0000
     20 H8          4.4234    0.2373   -2.6104 H         1 <0>         0.0000
     21 H9          5.6039    1.4784   -2.1535 H         1 <0>         0.0000
     22 H10         3.3086    2.4934   -2.3828 H         1 <0>         0.0000
     23 H11         3.8754    2.6090   -0.7105 H         1 <0>         0.0000
     24 H12         2.0654   -0.6266   -0.6895 H         1 <0>         0.0000
@<TRIPOS>BOND
     1    1    2 2
     2    1    3 1
     3    1   12 1
     4    2    5 1
     5    2   10 1
     6    3    9 2
     7    3   11 1
     8    4    5 1
     9    4   12 1
    10    4   13 1
    11    4   14 1
    12    5    6 1
    13    5   15 1
    14    6   16 1
    15    6   17 1
    16    6   18 1
    17    7    8 1
    18    7   19 1
    19    7   20 1
    20    7   21 1
    21    8   11 1
    22    8   22 1
    23    8   23 1
    24   10   24 1
