@<TRIPOS>MOLECULE
*****
   37    38     0     0     0
SMALL
NO_CHARGES

@<TRIPOS>ATOM
      1 C1         -1.8240    0.2152   -0.9715 C.2       1 <0>         0.0000
      2 C2          0.0811    0.9057   -1.5401 C.2       1 <0>         0.0000
      3 C3          1.6938    2.2871    3.0482 C.3       1 <0>         0.0000
      4 C4          1.1567    1.5199    1.8420 C.3       1 <0>         0.0000
      5 C5          0.9404    1.0038    3.2378 C.3       1 <0>         0.0000
      6 C6          4.0021   -2.9416   -1.3077 C.3       1 <0>         0.0000
      7 C7          2.4228   -3.3086    0.5979 C.3       1 <0>         0.0000
      8 C8          4.3156   -1.6583    0.8166 C.3       1 <0>         0.0000
      9 C9          2.0944    0.8331    0.8715 C.3       1 <0>         0.0000
     10 C10         1.4253   -0.3841    0.2096 C.3       1 <0>         0.0000
     11 C11         2.3201   -1.1812   -0.7604 C.3       1 <0>         0.0000
     12 C12         3.2658   -2.2504   -0.1395 C.3       1 <0>         0.0000
     13 N1         -1.2005    1.0346   -1.8687 N.2       1 <0>         0.0000
     14 N2         -1.0128   -0.4039   -0.1190 N.2       1 <0>         0.0000
     15 N3          0.2153    0.0512   -0.4980 N.pl3     1 <0>         0.0000
     16 O1          3.0223   -0.2056   -1.5491 O.3       1 <0>         0.0000
     17 Cl1         1.8420   -0.4358    3.7936 Cl        1 <0>         0.0000
     18 Cl2        -0.6994    1.0745    3.9165 Cl        1 <0>         0.0000
     19 H1         -2.8963    0.0703   -0.9405 H         1 <0>         0.0000
     20 H2          0.9248    1.3839   -2.0178 H         1 <0>         0.0000
     21 H3          2.7640    2.2563    3.2304 H         1 <0>         0.0000
     22 H4          1.1976    3.2049    3.3469 H         1 <0>         0.0000
     23 H5          0.2551    1.9286    1.3945 H         1 <0>         0.0000
     24 H6          4.7090   -2.2655   -1.8016 H         1 <0>         0.0000
     25 H7          3.2999   -3.3240   -2.0590 H         1 <0>         0.0000
     26 H8          4.5833   -3.7925   -0.9390 H         1 <0>         0.0000
     27 H9          1.9418   -2.9043    1.4929 H         1 <0>         0.0000
     28 H10         1.6409   -3.7236   -0.0486 H         1 <0>         0.0000
     29 H11         3.0614   -4.1375    0.9205 H         1 <0>         0.0000
     30 H12         3.8726   -1.3429    1.7646 H         1 <0>         0.0000
     31 H13         4.8243   -0.8022    0.3628 H         1 <0>         0.0000
     32 H14         5.0727   -2.4143    1.0519 H         1 <0>         0.0000
     33 H15         3.0007    0.5153    1.3836 H         1 <0>         0.0000
     34 H16         2.4047    1.5461    0.1033 H         1 <0>         0.0000
     35 H17         1.0540   -1.0545    0.9826 H         1 <0>         0.0000
     36 H18         1.6275   -1.7346   -1.4104 H         1 <0>         0.0000
     37 H19         3.3541   -0.6426   -2.3474 H         1 <0>         0.0000
@<TRIPOS>BOND
     1    1   13 1
     2    1   14 2
     3    1   19 1
     4    2   13 2
     5    2   15 1
     6    2   20 1
     7    3    4 1
     8    3    5 1
     9    3   21 1
    10    3   22 1
    11    4    5 1
    12    4    9 1
    13    4   23 1
    14    5   17 1
    15    5   18 1
    16    6   12 1
    17    6   24 1
    18    6   25 1
    19    6   26 1
    20    7   12 1
    21    7   27 1
    22    7   28 1
    23    7   29 1
    24    8   12 1
    25    8   30 1
    26    8   31 1
    27    8   32 1
    28    9   10 1
    29    9   33 1
    30    9   34 1
    31   10   11 1
    32   10   15 1
    33   10   35 1
    34   11   12 1
    35   11   16 1
    36   11   36 1
    37   14   15 1
    38   16   37 1
