@<TRIPOS>MOLECULE
*****
   39    41     0     0     0
SMALL
NO_CHARGES

@<TRIPOS>ATOM
      1 C1          2.9260   -1.6695    5.3372 C.1       1 <0>         0.0000
      2 C2         -0.7074   -5.0608    4.2406 C.ar      1 <0>         0.0000
      3 C3         -1.0078   -3.9166    3.4924 C.ar      1 <0>         0.0000
      4 C4          0.3648   -5.0403    5.1362 C.ar      1 <0>         0.0000
      5 C5         -0.2416   -2.7599    3.6422 C.ar      1 <0>         0.0000
      6 C6          1.1357   -3.8823    5.2856 C.ar      1 <0>         0.0000
      7 C7          1.6984    2.8624    5.3082 C.2       1 <0>         0.0000
      8 C8          2.4280    1.2729    6.4780 C.2       1 <0>         0.0000
      9 C9          0.8353   -2.7379    4.5393 C.ar      1 <0>         0.0000
     10 C10         2.3125    0.6620    0.9987 C.3       1 <0>         0.0000
     11 C11         3.5581    0.9461    1.8911 C.3       1 <0>         0.0000
     12 C12         2.0432   -0.8550    1.1334 C.3       1 <0>         0.0000
     13 C13         3.9386   -0.4102    2.5319 C.3       1 <0>         0.0000
     14 C14         2.6371   -1.2197    2.4941 C.3       1 <0>         0.0000
     15 C15         0.7890   -0.4837    5.6486 C.3       1 <0>         0.0000
     16 C16         1.6005   -1.4189    4.7034 C.3       1 <0>         0.0000
     17 N1          3.9404   -1.8544    5.8726 N.1       1 <0>         0.0000
     18 N2          2.6687    2.5499    6.2208 N.2       1 <0>         0.0000
     19 N3          0.8827    1.8655    4.9912 N.2       1 <0>         0.0000
     20 N4          1.3597    0.8415    5.7586 N.pl3     1 <0>         0.0000
     21 O1          1.7167   -0.7080    3.4967 O.3       1 <0>         0.0000
     22 H1         -1.3025   -5.9624    4.1222 H         1 <0>         0.0000
     23 H2         -1.8376   -3.9266    2.7907 H         1 <0>         0.0000
     24 H3          0.6089   -5.9266    5.7155 H         1 <0>         0.0000
     25 H4         -0.4638   -1.8728    3.0569 H         1 <0>         0.0000
     26 H5          1.9754   -3.8820    5.9747 H         1 <0>         0.0000
     27 H6          1.5860    3.8473    4.8736 H         1 <0>         0.0000
     28 H7          2.9843    0.6368    7.1537 H         1 <0>         0.0000
     29 H8          1.4522    1.2271    1.3662 H         1 <0>         0.0000
     30 H9          2.4711    0.9500   -0.0444 H         1 <0>         0.0000
     31 H10         4.3918    1.3629    1.3191 H         1 <0>         0.0000
     32 H11         3.3056    1.6698    2.6700 H         1 <0>         0.0000
     33 H12         0.9855   -1.1212    1.0623 H         1 <0>         0.0000
     34 H13         2.5831   -1.4172    0.3628 H         1 <0>         0.0000
     35 H14         4.6856   -0.9364    1.9256 H         1 <0>         0.0000
     36 H15         4.3474   -0.3112    3.5387 H         1 <0>         0.0000
     37 H16         2.7719   -2.2973    2.6340 H         1 <0>         0.0000
     38 H17        -0.2097   -0.3713    5.2276 H         1 <0>         0.0000
     39 H18         0.7113   -0.9441    6.6358 H         1 <0>         0.0000
@<TRIPOS>BOND
     1    1   16 1
     2    1   17 3
     3    2    4 ar
     4    2    3 ar
     5    2   22 1
     6    3    5 ar
     7    3   23 1
     8    4    6 ar
     9    4   24 1
    10    5    9 ar
    11    5   25 1
    12    6    9 ar
    13    6   26 1
    14    7   18 1
    15    7   19 2
    16    7   27 1
    17    8   18 2
    18    8   20 1
    19    8   28 1
    20    9   16 1
    21   10   11 1
    22   10   12 1
    23   10   29 1
    24   10   30 1
    25   11   13 1
    26   11   31 1
    27   11   32 1
    28   12   14 1
    29   12   33 1
    30   12   34 1
    31   13   14 1
    32   13   35 1
    33   13   36 1
    34   14   21 1
    35   14   37 1
    36   15   16 1
    37   15   20 1
    38   15   38 1
    39   15   39 1
    40   16   21 1
    41   19   20 1
