@<TRIPOS>MOLECULE
*****
   55    58     0     0     0
SMALL
NO_CHARGES

@<TRIPOS>ATOM
      1 C1         -0.1562    3.4533   -1.1236 C.ar      1 <0>         0.0000
      2 C2          0.5784    2.4867   -0.3942 C.ar      1 <0>         0.0000
      3 C3         -1.3750    3.1648   -1.7455 C.ar      1 <0>         0.0000
      4 C4         -1.1202    0.8999   -0.8785 C.ar      1 <0>         0.0000
      5 C5          0.1025    1.1817   -0.2600 C.ar      1 <0>         0.0000
      6 C6         -1.8124   -0.3495   -0.9247 C.2       1 <0>         0.0000
      7 C7         -1.8577    1.8564   -1.6102 C.ar      1 <0>         0.0000
      8 C8         -2.9478   -0.1406   -1.6714 C.2       1 <0>         0.0000
      9 C9         -1.2381   -1.5070   -0.1638 C.3       1 <0>         0.0000
     10 C10         2.3161    0.1099    0.3493 C.3       1 <0>         0.0000
     11 C11         2.3977   -2.4006    0.4417 C.3       1 <0>         0.0000
     12 C12         0.7825    0.0242    0.4593 C.3       1 <0>         0.0000
     13 C13         3.0381   -1.0972    0.9718 C.3       1 <0>         0.0000
     14 C14         0.2999   -1.3541   -0.1057 C.3       1 <0>         0.0000
     15 C15         0.2501   -4.5908    3.7165 C.3       1 <0>         0.0000
     16 C16        -5.5719   -1.6020   -3.7669 C.3       1 <0>         0.0000
     17 C17         3.9973    0.1597    4.8500 C.3       1 <0>         0.0000
     18 C18        -4.0709   -1.0540   -2.0231 C.3       1 <0>         0.0000
     19 C19         3.0982   -1.0339    2.5057 C.3       1 <0>         0.0000
     20 C20         1.0339   -4.1149    2.4876 C.3       1 <0>         0.0000
     21 C21         0.4034   -2.8605    1.8743 C.3       1 <0>         0.0000
     22 N1         -3.0011    1.2075   -2.0565 N.pl3     1 <0>         0.0000
     23 N2          0.9423   -2.5004    0.5588 N.3       1 <0>         0.0000
     24 O1         -4.4551   -0.8163   -3.3784 O.3       1 <0>         0.0000
     25 S1          4.2797    0.2634    3.0510 S.3       1 <0>         0.0000
     26 H1          0.2470    4.4595   -1.2065 H         1 <0>         0.0000
     27 H2          1.5236    2.7822    0.0519 H         1 <0>         0.0000
     28 H3         -1.9115    3.9279   -2.3037 H         1 <0>         0.0000
     29 H4         -1.6547   -1.5084    0.8503 H         1 <0>         0.0000
     30 H5         -1.4796   -2.4769   -0.6130 H         1 <0>         0.0000
     31 H6          2.5752    0.1661   -0.7156 H         1 <0>         0.0000
     32 H7          2.6788    1.0336    0.8081 H         1 <0>         0.0000
     33 H8          2.6315   -2.4619   -0.6299 H         1 <0>         0.0000
     34 H9          2.8632   -3.2731    0.9057 H         1 <0>         0.0000
     35 H10         0.4964    0.0691    1.5202 H         1 <0>         0.0000
     36 H11         4.0763   -1.0952    0.6118 H         1 <0>         0.0000
     37 H12         0.6460   -1.3874   -1.1488 H         1 <0>         0.0000
     38 H13         0.2040   -3.8097    4.4843 H         1 <0>         0.0000
     39 H14        -0.7796   -4.8580    3.4531 H         1 <0>         0.0000
     40 H15         0.7184   -5.4718    4.1674 H         1 <0>         0.0000
     41 H16        -5.7981   -1.3488   -4.8049 H         1 <0>         0.0000
     42 H17        -6.4520   -1.3871   -3.1420 H         1 <0>         0.0000
     43 H18        -5.3473   -2.6769   -3.7001 H         1 <0>         0.0000
     44 H19         4.6576    0.8883    5.3268 H         1 <0>         0.0000
     45 H20         4.2394   -0.8366    5.2321 H         1 <0>         0.0000
     46 H21         2.9614    0.4067    5.1011 H         1 <0>         0.0000
     47 H22        -3.7539   -2.0978   -1.8828 H         1 <0>         0.0000
     48 H23        -4.9416   -0.8800   -1.3674 H         1 <0>         0.0000
     49 H24         3.4325   -1.9935    2.9140 H         1 <0>         0.0000
     50 H25         2.1211   -0.8045    2.9385 H         1 <0>         0.0000
     51 H26         1.0601   -4.9042    1.7269 H         1 <0>         0.0000
     52 H27         2.0707   -3.9255    2.7838 H         1 <0>         0.0000
     53 H28        -0.6603   -3.0755    1.7411 H         1 <0>         0.0000
     54 H29         0.4557   -2.0415    2.6138 H         1 <0>         0.0000
     55 H30        -3.6025    1.5245   -2.8052 H         1 <0>         0.0000
@<TRIPOS>BOND
     1    1    2 ar
     2    1    3 ar
     3    1   26 1
     4    2    5 ar
     5    2   27 1
     6    3    7 ar
     7    3   28 1
     8    4    5 ar
     9    4    6 1
    10    4    7 ar
    11    5   12 1
    12    6    8 2
    13    6    9 1
    14    7   22 1
    15    8   18 1
    16    8   22 1
    17    9   14 1
    18    9   29 1
    19    9   30 1
    20   10   12 1
    21   10   13 1
    22   10   31 1
    23   10   32 1
    24   11   13 1
    25   11   23 1
    26   11   33 1
    27   11   34 1
    28   12   14 1
    29   12   35 1
    30   13   19 1
    31   13   36 1
    32   14   23 1
    33   14   37 1
    34   15   20 1
    35   15   38 1
    36   15   39 1
    37   15   40 1
    38   16   24 1
    39   16   41 1
    40   16   42 1
    41   16   43 1
    42   17   25 1
    43   17   44 1
    44   17   45 1
    45   17   46 1
    46   18   24 1
    47   18   47 1
    48   18   48 1
    49   19   25 1
    50   19   49 1
    51   19   50 1
    52   20   21 1
    53   20   51 1
    54   20   52 1
    55   21   23 1
    56   21   53 1
    57   21   54 1
    58   22   55 1
