@<TRIPOS>MOLECULE
*****
   24    24     0     0     0
SMALL
NO_CHARGES

@<TRIPOS>ATOM
      1 C1          5.7000    1.2020    1.1340 C.ar      1 <0>         0.0000
      2 C2          5.3100   -0.1230    1.3220 C.ar      1 <0>         0.0000
      3 C3          4.8360    2.1030    0.5140 C.ar      1 <0>         0.0000
      4 C4          4.0590   -0.5520    0.8930 C.ar      1 <0>         0.0000
      5 C5          3.5830    1.6830    0.0800 C.ar      1 <0>         0.0000
      6 C6          3.1980    0.3540    0.2660 C.ar      1 <0>         0.0000
      7 C7          1.4810   -1.2510   -0.5840 C.2       1 <0>         0.0000
      8 C8         -0.8530   -0.3410   -0.3970 C.3       1 <0>         0.0000
      9 C9         -0.4040   -2.6320   -1.3330 C.3       1 <0>         0.0000
     10 N1          1.9070   -0.0150   -0.1740 N.am      1 <0>         0.0000
     11 N2          0.1290   -1.3390   -0.8650 N.am      1 <0>         0.0000
     12 O1          2.2340   -2.2090   -0.7120 O.2       1 <0>         0.0000
     13 H1          6.6550    1.5240    1.4620 H         1 <0>         0.0000
     14 H2          5.9690   -0.8070    1.7940 H         1 <0>         0.0000
     15 H3          5.1360    3.1090    0.3730 H         1 <0>         0.0000
     16 H4          3.7630   -1.5570    1.0460 H         1 <0>         0.0000
     17 H5          2.9280    2.3650   -0.3950 H         1 <0>         0.0000
     18 H6         -1.8480   -0.7060   -0.6100 H         1 <0>         0.0000
     19 H7         -0.6710    0.5820   -0.9330 H         1 <0>         0.0000
     20 H8         -0.7170   -0.2200    0.6710 H         1 <0>         0.0000
     21 H9         -1.3210   -2.4500   -1.8760 H         1 <0>         0.0000
     22 H10        -0.5740   -3.2490   -0.4600 H         1 <0>         0.0000
     23 H11         0.3290   -3.0870   -1.9870 H         1 <0>         0.0000
     24 H12         1.2140    0.7230   -0.2950 H         1 <0>         0.0000
@<TRIPOS>BOND
     1    1    2 ar
     2    1    3 ar
     3    1   13 1
     4    2    4 ar
     5    2   14 1
     6    3    5 ar
     7    3   15 1
     8    4    6 ar
     9    4   16 1
    10    5    6 ar
    11    5   17 1
    12    6   10 1
    13    7   10 am
    14    7   11 am
    15    7   12 2
    16    8   11 1
    17    8   18 1
    18    8   19 1
    19    8   20 1
    20    9   11 1
    21    9   21 1
    22    9   22 1
    23    9   23 1
    24   10   24 1
