@<TRIPOS>MOLECULE
*****
   53    56     0     0     0
SMALL
NO_CHARGES

@<TRIPOS>ATOM
      1 C1         -1.8252    1.1340   -0.1810 C.ar      1 <0>         0.0000
      2 C2         -2.9174    0.2662   -0.1578 C.ar      1 <0>         0.0000
      3 C3          1.3081   -5.1333   -1.2353 C.ar      1 <0>         0.0000
      4 C4          0.4680   -3.1853   -2.4286 C.ar      1 <0>         0.0000
      5 C5         -0.0023   -5.5704   -1.0280 C.ar      1 <0>         0.0000
      6 C6         -0.8409   -3.6118   -2.2142 C.ar      1 <0>         0.0000
      7 C7         -1.4841   -1.6349    0.4516 C.ar      1 <0>         0.0000
      8 C8         -0.3732   -0.7717    0.4207 C.ar      1 <0>         0.0000
      9 C9          1.0359   -0.9602    0.6269 C.2       1 <0>         0.0000
     10 C10        -0.5623    0.6079    0.1106 C.ar      1 <0>         0.0000
     11 C11        -2.7215   -1.0885    0.1565 C.ar      1 <0>         0.0000
     12 C12         1.5301   -3.9399   -1.9227 C.ar      1 <0>         0.0000
     13 C13        -1.0638   -4.7991   -1.5087 C.ar      1 <0>         0.0000
     14 C14         1.6417    0.2661    0.4440 C.2       1 <0>         0.0000
     15 C15         1.3158    4.1241   -2.2475 C.2       1 <0>         0.0000
     16 C16         1.8172   -2.2083    0.9159 C.3       1 <0>         0.0000
     17 C17         3.1186    0.5208    0.4943 C.3       1 <0>         0.0000
     18 C18         3.8726   -0.7578    0.9298 C.3       1 <0>         0.0000
     19 C19         3.2465   -2.0429    0.3573 C.3       1 <0>         0.0000
     20 C20         1.6222    5.5337   -4.1219 C.3       1 <0>         0.0000
     21 C21         1.0628    2.6998   -1.8011 C.3       1 <0>         0.0000
     22 C22         0.9434    2.5921   -0.2762 C.3       1 <0>         0.0000
     23 N1          0.6814    1.2293    0.1521 N.pl3     1 <0>         0.0000
     24 N2          3.3045   -1.9470   -1.1168 N.pl3     1 <0>         0.0000
     25 O1          1.4544    5.0739   -1.4990 O.2       1 <0>         0.0000
     26 O2          4.1077   -4.3066   -1.5147 O.2       1 <0>         0.0000
     27 O3          3.3454   -2.8020   -3.4560 O.2       1 <0>         0.0000
     28 O4          1.3731    4.2112   -3.5935 O.3       1 <0>         0.0000
     29 F1         -3.8159   -1.9018    0.1641 F         1 <0>         0.0000
     30 S1          3.2062   -3.3081   -2.0904 S.o2      1 <0>         0.0000
     31 Cl1        -2.7071   -5.3169   -1.2099 Cl        1 <0>         0.0000
     32 H1         -1.9684    2.1840   -0.4201 H         1 <0>         0.0000
     33 H2         -3.9208    0.6174   -0.3764 H         1 <0>         0.0000
     34 H3          2.1523   -5.7027   -0.8598 H         1 <0>         0.0000
     35 H4          0.6560   -2.2697   -2.9810 H         1 <0>         0.0000
     36 H5         -0.1984   -6.4942   -0.4931 H         1 <0>         0.0000
     37 H6         -1.6797   -3.0273   -2.5763 H         1 <0>         0.0000
     38 H7         -1.3960   -2.6898    0.6895 H         1 <0>         0.0000
     39 H8          1.8872   -2.3984    1.9952 H         1 <0>         0.0000
     40 H9          1.3270   -3.0824    0.4838 H         1 <0>         0.0000
     41 H10         3.4818    0.8510   -0.4890 H         1 <0>         0.0000
     42 H11         3.3575    1.3358    1.1878 H         1 <0>         0.0000
     43 H12         4.9187   -0.6904    0.6212 H         1 <0>         0.0000
     44 H13         3.8507   -0.8368    2.0219 H         1 <0>         0.0000
     45 H14         3.8665   -2.8982    0.6336 H         1 <0>         0.0000
     46 H15         1.6378    5.4137   -5.2046 H         1 <0>         0.0000
     47 H16         2.5811    5.9117   -3.7607 H         1 <0>         0.0000
     48 H17         0.8269    6.2186   -3.8197 H         1 <0>         0.0000
     49 H18         1.8809    2.0724   -2.1718 H         1 <0>         0.0000
     50 H19         0.1549    2.3320   -2.2900 H         1 <0>         0.0000
     51 H20         1.8602    2.9450    0.1983 H         1 <0>         0.0000
     52 H21         0.1422    3.2398    0.0868 H         1 <0>         0.0000
     53 H22         2.7146   -1.2118   -1.5032 H         1 <0>         0.0000
@<TRIPOS>BOND
     1    1    2 ar
     2    1   10 ar
     3    1   32 1
     4    2   11 ar
     5    2   33 1
     6    3    5 ar
     7    3   12 ar
     8    3   34 1
     9    4    6 ar
    10    4   12 ar
    11    4   35 1
    12    5   13 ar
    13    5   36 1
    14    6   13 ar
    15    6   37 1
    16    7    8 ar
    17    7   11 ar
    18    7   38 1
    19    8    9 1
    20    8   10 ar
    21    9   14 2
    22    9   16 1
    23   10   23 1
    24   11   29 1
    25   12   30 1
    26   13   31 1
    27   14   17 1
    28   14   23 1
    29   15   21 1
    30   15   25 2
    31   15   28 1
    32   16   19 1
    33   16   39 1
    34   16   40 1
    35   17   18 1
    36   17   41 1
    37   17   42 1
    38   18   19 1
    39   18   43 1
    40   18   44 1
    41   19   24 1
    42   19   45 1
    43   20   28 1
    44   20   46 1
    45   20   47 1
    46   20   48 1
    47   21   22 1
    48   21   49 1
    49   21   50 1
    50   22   23 1
    51   22   51 1
    52   22   52 1
    53   24   30 1
    54   24   53 1
    55   26   30 2
    56   27   30 2
