@<TRIPOS>MOLECULE
*****
   66    70     0     0     0
SMALL
NO_CHARGES

@<TRIPOS>ATOM
      1 C1         -1.4765   -1.6437   -4.4963 C.ar      1 <0>         0.0000
      2 C2         -0.6841   -3.3318   -2.8898 C.ar      1 <0>         0.0000
      3 C3         -0.9955   -3.8545   -5.2459 C.ar      1 <0>         0.0000
      4 C4         -1.1039   -2.0279   -3.1803 C.ar      1 <0>         0.0000
      5 C5         -1.4187   -2.5556   -5.5380 C.ar      1 <0>         0.0000
      6 C6         -0.8848   -4.9733   -6.1200 C.2       1 <0>         0.0000
      7 C7         -0.6392   -4.2535   -3.9445 C.ar      1 <0>         0.0000
      8 C8         -0.4637   -6.0440   -5.3550 C.2       1 <0>         0.0000
      9 C9         -0.0604   -0.1406  -11.1227 C.2       1 <0>         0.0000
     10 C10        -1.2189   -4.7944   -7.5752 C.3       1 <0>         0.0000
     11 C11        -0.5441   -1.6345   -7.7273 C.3       1 <0>         0.0000
     12 C12        -1.3465   -2.6416   -9.8890 C.3       1 <0>         0.0000
     13 C13        -2.3726    1.4582   -1.6763 C.3       1 <0>         0.0000
     14 C14        -0.8952    1.5320   -1.2980 C.3       1 <0>         0.0000
     15 C15        -1.7360   -2.2780   -6.9927 C.3       1 <0>         0.0000
     16 C16        -1.1531   -1.0148   -2.0635 C.3       1 <0>         0.0000
     17 C17        -0.8977   -1.3556   -9.1871 C.3       1 <0>         0.0000
     18 C18        -2.1905   -3.5936   -7.6848 C.3       1 <0>         0.0000
     19 C19        -0.1736   -7.4622   -5.7261 C.3       1 <0>         0.0000
     20 C20         0.9360    0.4469  -14.1810 C.3       1 <0>         0.0000
     21 C21         2.5604    1.7428  -10.1576 C.3       1 <0>         0.0000
     22 C22        -3.1100   -4.4016   -9.9157 C.3       1 <0>         0.0000
     23 C23         0.6642    1.2983  -12.9393 C.3       1 <0>         0.0000
     24 C24         2.3157    0.6149  -11.1673 C.3       1 <0>         0.0000
     25 N1         -0.3105   -5.5985   -4.0395 N.pl3     1 <0>         0.0000
     26 N2          0.2379   -0.8087   -9.9170 N.am      1 <0>         0.0000
     27 N3          0.9451    0.5817  -11.6853 N.am      1 <0>         0.0000
     28 N4         -2.5118   -3.2595   -9.1474 N.4       1 <0>         0.0000
     29 O1         -1.1880   -0.2585  -11.6244 O.2       1 <0>         0.0000
     30 S1         -2.8638   -0.3091   -1.8146 S.3       1 <0>         0.0000
     31 S2          0.0111    0.3746   -2.3805 S.3       1 <0>         0.0000
     32 H1         -1.8128   -0.6235   -4.6593 H         1 <0>         0.0000
     33 H2         -0.4101   -3.6050   -1.8741 H         1 <0>         0.0000
     34 H3         -0.3127   -4.6091   -8.1636 H         1 <0>         0.0000
     35 H4         -1.6911   -5.6911   -7.9875 H         1 <0>         0.0000
     36 H5         -0.2890   -0.7002   -7.2175 H         1 <0>         0.0000
     37 H6          0.3337   -2.2867   -7.6601 H         1 <0>         0.0000
     38 H7         -1.6806   -2.4143  -10.9011 H         1 <0>         0.0000
     39 H8         -0.5426   -3.3768   -9.9218 H         1 <0>         0.0000
     40 H9         -2.9975    1.9173   -0.9049 H         1 <0>         0.0000
     41 H10        -2.5525    1.9618   -2.6287 H         1 <0>         0.0000
     42 H11        -0.4889    2.5339   -1.4652 H         1 <0>         0.0000
     43 H12        -0.7416    1.2604   -0.2503 H         1 <0>         0.0000
     44 H13        -2.5811   -1.5767   -7.0423 H         1 <0>         0.0000
     45 H14        -0.8672   -1.4941   -1.1257 H         1 <0>         0.0000
     46 H15        -1.7383   -0.6470   -9.2263 H         1 <0>         0.0000
     47 H16        -3.1491   -3.8923   -7.2502 H         1 <0>         0.0000
     48 H17         0.8896   -7.7010   -5.6074 H         1 <0>         0.0000
     49 H18        -0.7434   -8.1654   -5.1083 H         1 <0>         0.0000
     50 H19        -0.4386   -7.6449   -6.7701 H         1 <0>         0.0000
     51 H20         1.9766    0.1071  -14.2158 H         1 <0>         0.0000
     52 H21         0.2824   -0.4294  -14.1900 H         1 <0>         0.0000
     53 H22         0.7426    1.0295  -15.0875 H         1 <0>         0.0000
     54 H23         2.3399    2.7172  -10.6031 H         1 <0>         0.0000
     55 H24         1.9291    1.6390   -9.2678 H         1 <0>         0.0000
     56 H25         3.6055    1.7447   -9.8322 H         1 <0>         0.0000
     57 H26        -2.3345   -5.1364  -10.1224 H         1 <0>         0.0000
     58 H27        -3.9079   -4.8512   -9.3236 H         1 <0>         0.0000
     59 H28        -3.5080   -4.0150  -10.8542 H         1 <0>         0.0000
     60 H29        -0.3795    1.6136  -12.9189 H         1 <0>         0.0000
     61 H30         1.2836    2.2006  -12.9437 H         1 <0>         0.0000
     62 H31         2.5665   -0.3602  -10.7387 H         1 <0>         0.0000
     63 H32         2.9825    0.7412  -12.0246 H         1 <0>         0.0000
     64 H33        -0.0202   -6.1888   -3.2712 H         1 <0>         0.0000
     65 H34         0.9436   -0.3867   -9.3257 H         1 <0>         0.0000
     66 H35        -3.2313   -2.5296   -9.1049 H         1 <0>         0.0000
@<TRIPOS>BOND
     1    1    4 ar
     2    1    5 ar
     3    1   32 1
     4    2    4 ar
     5    2    7 ar
     6    2   33 1
     7    3    5 ar
     8    3    6 1
     9    3    7 ar
    10    4   16 1
    11    5   15 1
    12    6    8 2
    13    6   10 1
    14    7   25 1
    15    8   19 1
    16    8   25 1
    17    9   26 am
    18    9   27 am
    19    9   29 2
    20   10   18 1
    21   10   34 1
    22   10   35 1
    23   11   15 1
    24   11   17 1
    25   11   36 1
    26   11   37 1
    27   12   17 1
    28   12   28 1
    29   12   38 1
    30   12   39 1
    31   13   14 1
    32   13   30 1
    33   13   40 1
    34   13   41 1
    35   14   31 1
    36   14   42 1
    37   14   43 1
    38   15   18 1
    39   15   44 1
    40   16   31 1
    41   16   30 1
    42   16   45 1
    43   17   26 1
    44   17   46 1
    45   18   28 1
    46   18   47 1
    47   19   48 1
    48   19   49 1
    49   19   50 1
    50   20   23 1
    51   20   51 1
    52   20   52 1
    53   20   53 1
    54   21   24 1
    55   21   54 1
    56   21   55 1
    57   21   56 1
    58   22   28 1
    59   22   57 1
    60   22   58 1
    61   22   59 1
    62   23   27 1
    63   23   60 1
    64   23   61 1
    65   24   27 1
    66   24   62 1
    67   24   63 1
    68   25   64 1
    69   26   65 1
    70   28   66 1
