@<TRIPOS>MOLECULE
*****
   30    31     0     0     0
SMALL
NO_CHARGES

@<TRIPOS>ATOM
      1 C1          5.9594    0.3792    1.0760 C.ar      1 <0>         0.0000
      2 C2          2.3999   -1.3176    1.8687 C.ar      1 <0>         0.0000
      3 C3          1.3710   -1.8668   -0.2689 C.ar      1 <0>         0.0000
      4 C4          6.0917    1.7031    1.4771 C.ar      1 <0>         0.0000
      5 C5          1.1452   -1.0264    2.3975 C.ar      1 <0>         0.0000
      6 C6          0.1172   -1.5472    0.2481 C.ar      1 <0>         0.0000
      7 C7          3.8154    0.8806    0.0584 C.ar      1 <0>         0.0000
      8 C8          2.5157   -1.7108    0.5255 C.ar      1 <0>         0.0000
      9 C9          4.8056   -0.0527    0.4029 C.ar      1 <0>         0.0000
     10 C10         5.1005    2.6420    1.1579 C.ar      1 <0>         0.0000
     11 C11         0.0199   -1.1192    1.5742 C.ar      1 <0>         0.0000
     12 C12         3.9767    2.2095    0.4280 C.ar      1 <0>         0.0000
     13 N1          3.7681   -2.1349   -0.0255 N.2       1 <0>         0.0000
     14 N2          4.8011   -1.4250   -0.0046 N.2       1 <0>         0.0000
     15 N3         -1.7537    0.9406    1.8320 N.pl3     1 <0>         0.0000
     16 O1         -2.6023   -1.4241    1.4698 O.2       1 <0>         0.0000
     17 O2         -1.4966   -0.7778    3.7031 O.2       1 <0>         0.0000
     18 O3          5.2844    3.9291    1.5505 O.3       1 <0>         0.0000
     19 S1         -1.5882   -0.7010    2.2422 S.o2      1 <0>         0.0000
     20 Cl1         2.7542    3.3975   -0.0148 Cl        1 <0>         0.0000
     21 H1          6.7405   -0.3446    1.2882 H         1 <0>         0.0000
     22 H2          3.2861   -1.2460    2.4912 H         1 <0>         0.0000
     23 H3          1.4775   -2.2313   -1.2864 H         1 <0>         0.0000
     24 H4          6.9672    2.0452    2.0203 H         1 <0>         0.0000
     25 H5          1.0326   -0.7394    3.4380 H         1 <0>         0.0000
     26 H6         -0.7784   -1.6548   -0.3555 H         1 <0>         0.0000
     27 H7          2.9370    0.5885   -0.5037 H         1 <0>         0.0000
     28 H8         -2.6060    1.0626    1.2861 H         1 <0>         0.0000
     29 H9         -1.7806    1.5021    2.6822 H         1 <0>         0.0000
     30 H10         4.5331    4.4684    1.2442 H         1 <0>         0.0000
@<TRIPOS>BOND
     1    1    4 ar
     2    1    9 ar
     3    1   21 1
     4    2    5 ar
     5    2    8 ar
     6    2   22 1
     7    3    6 ar
     8    3    8 ar
     9    3   23 1
    10    4   10 ar
    11    4   24 1
    12    5   11 ar
    13    5   25 1
    14    6   11 ar
    15    6   26 1
    16    7    9 ar
    17    7   12 ar
    18    7   27 1
    19    8   13 1
    20    9   14 1
    21   10   12 ar
    22   10   18 1
    23   11   19 1
    24   12   20 1
    25   13   14 2
    26   15   19 1
    27   15   28 1
    28   15   29 1
    29   16   19 2
    30   17   19 2
    31   18   30 1
