@<TRIPOS>MOLECULE
*****
   28    30     0     0     0
SMALL
NO_CHARGES

@<TRIPOS>ATOM
      1 C1          0.3580   -1.2839   -2.6478 C.ar      1 <0>         0.0000
      2 C2          0.7147    1.3970    3.0170 C.ar      1 <0>         0.0000
      3 C3          0.8519    0.9033    1.7035 C.ar      1 <0>         0.0000
      4 C4          0.6113   -1.9840   -3.8231 C.ar      1 <0>         0.0000
      5 C5         -1.5795    0.6596    1.4713 C.ar      1 <0>         0.0000
      6 C6         -0.1881   -0.0780   -5.1068 C.ar      1 <0>         0.0000
      7 C7         -0.1692    0.0208   -2.6590 C.ar      1 <0>         0.0000
      8 C8         -0.5694    1.5132    3.5127 C.ar      1 <0>         0.0000
      9 C9         -1.6872    1.1532    2.7566 C.ar      1 <0>         0.0000
     10 C10        -0.2723    0.5487    0.9666 C.ar      1 <0>         0.0000
     11 C11        -0.4317    0.5963   -3.9134 C.ar      1 <0>         0.0000
     12 C12         0.3334   -1.3692   -5.0480 C.ar      1 <0>         0.0000
     13 C13        -0.4413    0.7595   -1.3953 C.2       1 <0>         0.0000
     14 C14        -2.4033    2.0540    4.6736 C.3       1 <0>         0.0000
     15 O1         -0.9184    1.8672   -1.3030 O.2       1 <0>         0.0000
     16 O2         -0.9750    1.9318    4.7638 O.3       1 <0>         0.0000
     17 O3         -2.8301    1.3351    3.5032 O.3       1 <0>         0.0000
     18 O4         -0.0735   -0.0019   -0.3089 O.3       1 <0>         0.0000
     19 F1         -0.9333    1.8372   -4.0103 F         1 <0>         0.0000
     20 Cl1         0.6439   -2.2309   -6.5371 Cl        1 <0>         0.0000
     21 H1          0.5680   -1.7482   -1.6917 H         1 <0>         0.0000
     22 H2          1.5792    1.6731    3.6116 H         1 <0>         0.0000
     23 H3          1.8339    0.7963    1.2545 H         1 <0>         0.0000
     24 H4          1.0168   -2.9896   -3.7954 H         1 <0>         0.0000
     25 H5         -2.4447    0.3828    0.8797 H         1 <0>         0.0000
     26 H6         -0.4067    0.4087   -6.0509 H         1 <0>         0.0000
     27 H7         -2.8617    1.6078    5.5582 H         1 <0>         0.0000
     28 H8         -2.6725    3.1135    4.5650 H         1 <0>         0.0000
@<TRIPOS>BOND
     1    1    4 ar
     2    1    7 ar
     3    1   21 1
     4    2    3 ar
     5    2    8 ar
     6    2   22 1
     7    3   10 ar
     8    3   23 1
     9    4   12 ar
    10    4   24 1
    11    5    9 ar
    12    5   10 ar
    13    5   25 1
    14    6   11 ar
    15    6   12 ar
    16    6   26 1
    17    7   11 ar
    18    7   13 1
    19    8    9 ar
    20    8   16 1
    21    9   17 1
    22   10   18 1
    23   11   19 1
    24   12   20 1
    25   13   15 2
    26   13   18 1
    27   14   16 1
    28   14   17 1
    29   14   27 1
    30   14   28 1
