@<TRIPOS>MOLECULE
*****
   38    40     0     0     0
SMALL
NO_CHARGES

@<TRIPOS>ATOM
      1 C1          0.2441    3.7036   -5.3385 C.2       1 <0>         0.0000
      2 C2          0.7202   -0.6177   -0.5124 C.2       1 <0>         0.0000
      3 C3         -0.3180    0.3024   -0.6093 C.2       1 <0>         0.0000
      4 C4         -0.7329    1.7125   -5.2657 C.2       1 <0>         0.0000
      5 C5          0.4538    1.3670   -4.6591 C.2       1 <0>         0.0000
      6 C6          0.6411   -0.0551   -2.5978 C.2       1 <0>         0.0000
      7 C7          1.2976   -1.3135    0.6674 C.2       1 <0>         0.0000
      8 C8         -1.3160    0.9022    0.3354 C.3       1 <0>         0.0000
      9 C9         -0.7595   -0.8122    2.1070 C.3       1 <0>         0.0000
     10 C10        -1.0425    0.6860    1.8368 C.3       1 <0>         0.0000
     11 C11        -1.8944    0.8020   -5.5501 C.3       1 <0>         0.0000
     12 C12        -2.3202    1.0668    2.6059 C.3       1 <0>         0.0000
     13 C13         0.1260    1.5633    2.3120 C.3       1 <0>         0.0000
     14 C14         0.8726    0.0428   -4.0809 C.3       1 <0>         0.0000
     15 N1         -0.8342    3.0423   -5.6469 N.2       1 <0>         0.0000
     16 N2          1.3010   -0.8163   -1.7599 N.2       1 <0>         0.0000
     17 N3         -0.3524    0.6432   -1.9483 N.pl3     1 <0>         0.0000
     18 N4          0.6055   -1.2503    1.8575 N.am      1 <0>         0.0000
     19 O1          2.3759   -1.9028    0.6099 O.2       1 <0>         0.0000
     20 S1          1.4860    2.7709   -4.5507 S.3       1 <0>         0.0000
     21 H1          0.3877    4.7586   -5.5481 H         1 <0>         0.0000
     22 H2         -1.3876    1.9813    0.1445 H         1 <0>         0.0000
     23 H3         -2.3061    0.4874    0.0989 H         1 <0>         0.0000
     24 H4         -0.9494   -1.0115    3.1655 H         1 <0>         0.0000
     25 H5         -1.4784   -1.4191    1.5377 H         1 <0>         0.0000
     26 H6         -2.8143    1.2165   -5.1250 H         1 <0>         0.0000
     27 H7         -2.0509    0.7119   -6.6301 H         1 <0>         0.0000
     28 H8         -1.7442   -0.1982   -5.1390 H         1 <0>         0.0000
     29 H9         -2.1487    1.0371    3.6873 H         1 <0>         0.0000
     30 H10        -3.1449    0.3817    2.3760 H         1 <0>         0.0000
     31 H11        -2.6468    2.0803    2.3480 H         1 <0>         0.0000
     32 H12         0.3672    1.3549    3.3599 H         1 <0>         0.0000
     33 H13        -0.1399    2.6234    2.2326 H         1 <0>         0.0000
     34 H14         1.0305    1.3934    1.7241 H         1 <0>         0.0000
     35 H15         0.3222   -0.7563   -4.5893 H         1 <0>         0.0000
     36 H16         1.9318   -0.1577   -4.2605 H         1 <0>         0.0000
     37 H17        -0.9573    1.3373   -2.3721 H         1 <0>         0.0000
     38 H18         1.0769   -1.7615    2.5935 H         1 <0>         0.0000
@<TRIPOS>BOND
     1    1   15 2
     2    1   20 1
     3    1   21 1
     4    2    3 2
     5    2    7 1
     6    2   16 1
     7    3    8 1
     8    3   17 1
     9    4    5 2
    10    4   11 1
    11    4   15 1
    12    5   14 1
    13    5   20 1
    14    6   14 1
    15    6   16 2
    16    6   17 1
    17    7   18 am
    18    7   19 2
    19    8   10 1
    20    8   22 1
    21    8   23 1
    22    9   10 1
    23    9   18 1
    24    9   24 1
    25    9   25 1
    26   10   12 1
    27   10   13 1
    28   11   26 1
    29   11   27 1
    30   11   28 1
    31   12   29 1
    32   12   30 1
    33   12   31 1
    34   13   32 1
    35   13   33 1
    36   13   34 1
    37   14   35 1
    38   14   36 1
    39   17   37 1
    40   18   38 1
