@<TRIPOS>MOLECULE
*****
   21    21     0     0     0
SMALL
NO_CHARGES

@<TRIPOS>ATOM
      1 C1          2.4134   -0.8098   -0.1154 C.ar      1 <0>         0.0000
      2 C2          1.3217   -0.2455    0.5543 C.ar      1 <0>         0.0000
      3 C3          3.3237   -1.6187    0.5678 C.ar      1 <0>         0.0000
      4 C4          2.0361   -1.2984    2.6136 C.ar      1 <0>         0.0000
      5 C5          1.1263   -0.4832    1.9202 C.ar      1 <0>         0.0000
      6 C6          3.1175   -1.8495    1.9308 C.ar      1 <0>         0.0000
      7 C7         -1.0269   -0.9939    3.0775 C.2       1 <0>         0.0000
      8 C8         -0.0656    0.0976    2.6591 C.3       1 <0>         0.0000
      9 N1         -1.1379   -1.4961    4.2581 N.2       1 <0>         0.0000
     10 N2         -1.8857   -1.4638    2.0800 N.pl3     1 <0>         0.0000
     11 O1         -0.2557   -0.8578    5.1836 O.3       1 <0>         0.0000
     12 Br1         4.3640   -2.9559    2.8857 Br        1 <0>         0.0000
     13 H1          2.5599   -0.6175   -1.1749 H         1 <0>         0.0000
     14 H2          0.6255    0.3910    0.0129 H         1 <0>         0.0000
     15 H3          4.1735   -2.0583    0.0561 H         1 <0>         0.0000
     16 H4          1.8867   -1.4927    3.6713 H         1 <0>         0.0000
     17 H5          0.2638    0.6323    3.5508 H         1 <0>         0.0000
     18 H6         -0.6018    0.8002    2.0149 H         1 <0>         0.0000
     19 H7         -1.4223   -1.5758    1.1824 H         1 <0>         0.0000
     20 H8         -2.3652   -2.3165    2.3560 H         1 <0>         0.0000
     21 H9         -0.4985   -1.2923    6.0162 H         1 <0>         0.0000
@<TRIPOS>BOND
     1    1    2 ar
     2    1    3 ar
     3    1   13 1
     4    2    5 ar
     5    2   14 1
     6    3    6 ar
     7    3   15 1
     8    4    5 ar
     9    4    6 ar
    10    4   16 1
    11    5    8 1
    12    6   12 1
    13    7    8 1
    14    7    9 2
    15    7   10 1
    16    8   17 1
    17    8   18 1
    18    9   11 1
    19   10   19 1
    20   10   20 1
    21   11   21 1
