@<TRIPOS>MOLECULE
*****
   30    31     0     0     0
SMALL
NO_CHARGES

@<TRIPOS>ATOM
      1 C1          5.9500   -0.6725    0.9099 C.ar      1 <0>         0.0000
      2 C2          2.2556   -1.2265    2.4146 C.ar      1 <0>         0.0000
      3 C3          0.7912   -1.7145    0.5311 C.ar      1 <0>         0.0000
      4 C4          6.4733    0.6047    1.0706 C.ar      1 <0>         0.0000
      5 C5          1.2185   -0.5448    3.0445 C.ar      1 <0>         0.0000
      6 C6         -0.2401   -1.0061    1.1454 C.ar      1 <0>         0.0000
      7 C7          3.8622    0.2632    0.1034 C.ar      1 <0>         0.0000
      8 C8          2.0476   -1.7955    1.1471 C.ar      1 <0>         0.0000
      9 C9          4.6298   -0.8542    0.4680 C.ar      1 <0>         0.0000
     10 C10         5.7097    1.7306    0.7309 C.ar      1 <0>         0.0000
     11 C11        -0.0159   -0.4321    2.3987 C.ar      1 <0>         0.0000
     12 C12         4.4094    1.5335    0.2271 C.ar      1 <0>         0.0000
     13 N1          3.0458   -2.6095    0.5205 N.2       1 <0>         0.0000
     14 N2          4.2138   -2.2125    0.2964 N.2       1 <0>         0.0000
     15 N3         -2.1225   -0.7427    4.1146 N.pl3     1 <0>         0.0000
     16 O1         -0.7408    1.3912    4.1621 O.2       1 <0>         0.0000
     17 O2         -2.2853    0.8895    2.1646 O.2       1 <0>         0.0000
     18 O3          6.2716    2.9571    0.8832 O.3       1 <0>         0.0000
     19 S1         -1.3436    0.4608    3.2030 S.o2      1 <0>         0.0000
     20 Cl1         3.4692    2.9434   -0.2477 Cl        1 <0>         0.0000
     21 H1          6.5489   -1.5494    1.1368 H         1 <0>         0.0000
     22 H2          3.2252   -1.3125    2.8947 H         1 <0>         0.0000
     23 H3          0.6414   -2.1911   -0.4333 H         1 <0>         0.0000
     24 H4          7.4833    0.7608    1.4367 H         1 <0>         0.0000
     25 H5          1.3673   -0.0817    4.0148 H         1 <0>         0.0000
     26 H6         -1.2046   -0.8931    0.6607 H         1 <0>         0.0000
     27 H7          2.8589    0.1538   -0.2894 H         1 <0>         0.0000
     28 H8         -2.0977   -0.4869    5.1009 H         1 <0>         0.0000
     29 H9         -3.0817   -0.8492    3.7868 H         1 <0>         0.0000
     30 H10         5.6354    3.6390    0.6006 H         1 <0>         0.0000
@<TRIPOS>BOND
     1    1    4 ar
     2    1    9 ar
     3    1   21 1
     4    2    5 ar
     5    2    8 ar
     6    2   22 1
     7    3    6 ar
     8    3    8 ar
     9    3   23 1
    10    4   10 ar
    11    4   24 1
    12    5   11 ar
    13    5   25 1
    14    6   11 ar
    15    6   26 1
    16    7    9 ar
    17    7   12 ar
    18    7   27 1
    19    8   13 1
    20    9   14 1
    21   10   12 ar
    22   10   18 1
    23   11   19 1
    24   12   20 1
    25   13   14 2
    26   15   19 1
    27   15   28 1
    28   15   29 1
    29   16   19 2
    30   17   19 2
    31   18   30 1
