@<TRIPOS>MOLECULE
*****
   25    26     0     0     0
SMALL
NO_CHARGES

@<TRIPOS>ATOM
      1 C1          5.8969    0.9421    3.2585 C.ar      1 <0>         0.0000
      2 C2          7.1102    0.8846    2.5756 C.ar      1 <0>         0.0000
      3 C3          4.7167    1.0392    2.5167 C.ar      1 <0>         0.0000
      4 C4          1.0528    0.2393    2.8846 C.ar      1 <0>         0.0000
      5 C5          1.7689   -1.1083    1.0345 C.ar      1 <0>         0.0000
      6 C6          7.0859    0.9230    1.1734 C.ar      1 <0>         0.0000
      7 C7          0.5672   -0.9229    3.4817 C.ar      1 <0>         0.0000
      8 C8          1.6713    0.1541    1.6287 C.ar      1 <0>         0.0000
      9 C9          4.7960    1.0650    1.1167 C.ar      1 <0>         0.0000
     10 C10         1.2480   -2.2006    1.7354 C.ar      1 <0>         0.0000
     11 C11         3.5585    1.1465    0.2509 C.2       1 <0>         0.0000
     12 C12         2.2048    1.3880    0.9274 C.3       1 <0>         0.0000
     13 N1          5.9659    1.0068    0.4561 N.ar      1 <0>         0.0000
     14 N2          0.6639   -2.1385    2.9188 N.ar      1 <0>         0.0000
     15 O1          3.6189    1.0049   -0.9572 O.2       1 <0>         0.0000
     16 Br1         1.3863   -3.9463    0.9310 Br        1 <0>         0.0000
     17 H1          5.8649    0.9099    4.3442 H         1 <0>         0.0000
     18 H2          8.0556    0.8101    3.1053 H         1 <0>         0.0000
     19 H3          3.7605    1.0708    3.0257 H         1 <0>         0.0000
     20 H4          0.9452    1.1953    3.3904 H         1 <0>         0.0000
     21 H5          2.2334   -1.2428    0.0636 H         1 <0>         0.0000
     22 H6          8.0156    0.8824    0.6073 H         1 <0>         0.0000
     23 H7          0.0801   -0.8862    4.4542 H         1 <0>         0.0000
     24 H8          1.5163    1.6778    0.1287 H         1 <0>         0.0000
     25 H9          2.2671    2.2196    1.6357 H         1 <0>         0.0000
@<TRIPOS>BOND
     1    1    2 ar
     2    1    3 ar
     3    1   17 1
     4    2    6 ar
     5    2   18 1
     6    3    9 ar
     7    3   19 1
     8    4    7 ar
     9    4    8 ar
    10    4   20 1
    11    5    8 ar
    12    5   10 ar
    13    5   21 1
    14    6   13 ar
    15    6   22 1
    16    7   14 ar
    17    7   23 1
    18    8   12 1
    19    9   11 1
    20    9   13 ar
    21   10   14 ar
    22   10   16 1
    23   11   12 1
    24   11   15 2
    25   12   24 1
    26   12   25 1
