@<TRIPOS>MOLECULE
*****
   25    26     0     0     0
SMALL
NO_CHARGES

@<TRIPOS>ATOM
      1 C1          1.5757    0.3751   -3.2636 C.2       1 <0>         0.0000
      2 C2          1.2016   -0.2267   -4.5166 C.2       1 <0>         0.0000
      3 C3          0.6899   -0.0816   -2.3291 C.2       1 <0>         0.0000
      4 C4          0.1107   -1.0101   -4.2621 C.2       1 <0>         0.0000
      5 C5          0.6272   -0.7569    1.3599 C.3       1 <0>         0.0000
      6 C6         -0.7567   -0.1786    1.6362 C.3       1 <0>         0.0000
      7 C7         -0.8531    0.7423   -0.5297 C.3       1 <0>         0.0000
      8 C8          0.5387    0.1835   -0.8701 C.3       1 <0>         0.0000
      9 C9         -0.7456   -1.8883   -5.1078 C.3       1 <0>         0.0000
     10 N1          0.7384   -1.0416   -0.0751 N.3       1 <0>         0.0000
     11 O1         -0.2132   -0.9297   -2.9301 O.3       1 <0>         0.0000
     12 O2         -0.9785    1.0040    0.8664 O.3       1 <0>         0.0000
     13 H1          2.3946    1.0591   -3.0808 H         1 <0>         0.0000
     14 H2          1.6804   -0.0957   -5.4783 H         1 <0>         0.0000
     15 H3          1.3876   -0.0368    1.7122 H         1 <0>         0.0000
     16 H4          0.7540   -1.6901    1.9198 H         1 <0>         0.0000
     17 H5         -1.5242   -0.9300    1.3966 H         1 <0>         0.0000
     18 H6         -0.8576    0.1143    2.6845 H         1 <0>         0.0000
     19 H7         -1.0147    1.6946   -1.0401 H         1 <0>         0.0000
     20 H8         -1.6178    0.0226   -0.8537 H         1 <0>         0.0000
     21 H9          1.2774    0.9636   -0.6127 H         1 <0>         0.0000
     22 H10        -0.7253   -2.9246   -4.7522 H         1 <0>         0.0000
     23 H11        -1.7893   -1.5545   -5.0990 H         1 <0>         0.0000
     24 H12        -0.3870   -1.8705   -6.1396 H         1 <0>         0.0000
     25 H13         1.6526   -1.4336   -0.2900 H         1 <0>         0.0000
@<TRIPOS>BOND
     1    1    2 1
     2    1    3 2
     3    1   13 1
     4    2    4 2
     5    2   14 1
     6    3    8 1
     7    3   11 1
     8    4    9 1
     9    4   11 1
    10    5    6 1
    11    5   10 1
    12    5   15 1
    13    5   16 1
    14    6   12 1
    15    6   17 1
    16    6   18 1
    17    7    8 1
    18    7   12 1
    19    7   19 1
    20    7   20 1
    21    8   10 1
    22    8   21 1
    23    9   22 1
    24    9   23 1
    25    9   24 1
    26   10   25 1
