@<TRIPOS>MOLECULE
*****
   32    34     0     0     0
SMALL
NO_CHARGES

@<TRIPOS>ATOM
      1 C1          8.0398   -2.6649    4.4719 C.1       1 <0>         0.0000
      2 C2          1.7199   -0.9666   -0.0190 C.ar      1 <0>         0.0000
      3 C3          0.5127   -0.6470    0.6084 C.ar      1 <0>         0.0000
      4 C4          2.8341   -1.2659    0.7604 C.ar      1 <0>         0.0000
      5 C5          0.4403   -0.6281    2.0027 C.ar      1 <0>         0.0000
      6 C6          8.8258   -4.1646   -0.0406 C.2       1 <0>         0.0000
      7 C7          8.4281   -4.4029   -1.3227 C.2       1 <0>         0.0000
      8 C8          6.6170   -3.3971    0.0567 C.2       1 <0>         0.0000
      9 C9          2.7671   -1.2474    2.1663 C.ar      1 <0>         0.0000
     10 C10         7.7888   -3.5790    0.7824 C.2       1 <0>         0.0000
     11 C11         1.5486   -0.9202    2.8112 C.ar      1 <0>         0.0000
     12 C12         4.0009   -1.5796    2.8972 C.2       1 <0>         0.0000
     13 C13         5.9836   -2.2497    3.2186 C.2       1 <0>         0.0000
     14 C14         8.0682   -3.2876    2.1686 C.2       1 <0>         0.0000
     15 C15         7.3521   -2.7506    3.2088 C.2       1 <0>         0.0000
     16 C16         1.3908   -0.8751    4.3112 C.3       1 <0>         0.0000
     17 N1          8.6248   -2.6099    5.4781 N.1       1 <0>         0.0000
     18 N2          5.1111   -2.1085    2.2552 N.2       1 <0>         0.0000
     19 N3          4.1845   -1.4040    4.1934 N.2       1 <0>         0.0000
     20 O1          5.4971   -1.8458    4.4144 O.3       1 <0>         0.0000
     21 S1          6.7743   -3.9226   -1.5671 S.3       1 <0>         0.0000
     22 H1          1.7930   -0.9814   -1.1029 H         1 <0>         0.0000
     23 H2         -0.3687   -0.4129    0.0169 H         1 <0>         0.0000
     24 H3          3.7786   -1.5080    0.2862 H         1 <0>         0.0000
     25 H4         -0.5028   -0.3801    2.4831 H         1 <0>         0.0000
     26 H5          9.8214   -4.3925    0.3271 H         1 <0>         0.0000
     27 H6          8.9995   -4.8295   -2.1369 H         1 <0>         0.0000
     28 H7          5.6924   -2.9783    0.4249 H         1 <0>         0.0000
     29 H8          9.0797   -3.5671    2.4555 H         1 <0>         0.0000
     30 H9          1.7074   -1.8116    4.7794 H         1 <0>         0.0000
     31 H10         2.0103   -0.0904    4.7547 H         1 <0>         0.0000
     32 H11         0.3473   -0.6868    4.5762 H         1 <0>         0.0000
@<TRIPOS>BOND
     1    1   15 1
     2    1   17 3
     3    2    3 ar
     4    2    4 ar
     5    2   22 1
     6    3    5 ar
     7    3   23 1
     8    4    9 ar
     9    4   24 1
    10    5   11 ar
    11    5   25 1
    12    6    7 2
    13    6   10 1
    14    6   26 1
    15    7   21 1
    16    7   27 1
    17    8   10 2
    18    8   21 1
    19    8   28 1
    20    9   11 ar
    21    9   12 1
    22   10   14 1
    23   11   16 1
    24   12   18 1
    25   12   19 2
    26   13   15 1
    27   13   18 2
    28   13   20 1
    29   14   15 2
    30   14   29 1
    31   16   30 1
    32   16   31 1
    33   16   32 1
    34   19   20 1
