@<TRIPOS>MOLECULE
*****
   20    21     0     0     0
SMALL
NO_CHARGES

@<TRIPOS>ATOM
      1 C1          2.2257   -0.7884   -0.0899 C.ar      1 <0>         0.0000
      2 C2          1.5382   -1.3291    2.5759 C.ar      1 <0>         0.0000
      3 C3         -3.5687   -0.8166   -1.2682 C.2       1 <0>         0.0000
      4 C4         -3.3674   -2.0938   -0.7962 C.2       1 <0>         0.0000
      5 C5          0.9030   -0.5772    0.3353 C.ar      1 <0>         0.0000
      6 C6          3.1725   -1.2882    0.7868 C.ar      1 <0>         0.0000
      7 C7          0.5971   -0.8412    1.6737 C.ar      1 <0>         0.0000
      8 C8          2.8278   -1.5602    2.1152 C.ar      1 <0>         0.0000
      9 C9         -1.4351   -0.6131   -0.7389 C.2       1 <0>         0.0000
     10 C10        -0.0730   -0.0108   -0.6577 C.2       1 <0>         0.0000
     11 N1         -2.4752    0.0026   -1.2430 N.2       1 <0>         0.0000
     12 O1          0.2706    0.8739   -1.4258 O.2       1 <0>         0.0000
     13 F1          4.4357   -1.5148    0.3781 F         1 <0>         0.0000
     14 F2         -0.6432   -0.5782    2.1447 F         1 <0>         0.0000
     15 F3          3.7618   -2.0393    2.9523 F         1 <0>         0.0000
     16 S1         -1.7392   -2.2824   -0.2733 S.3       1 <0>         0.0000
     17 H1          2.5049   -0.5591   -1.1133 H         1 <0>         0.0000
     18 H2          1.2774   -1.5122    3.6128 H         1 <0>         0.0000
     19 H3         -4.5119   -0.4387   -1.6481 H         1 <0>         0.0000
     20 H4         -4.0772   -2.9092   -0.7402 H         1 <0>         0.0000
@<TRIPOS>BOND
     1    1    5 ar
     2    1    6 ar
     3    1   17 1
     4    2    7 ar
     5    2    8 ar
     6    2   18 1
     7    3    4 2
     8    3   11 1
     9    3   19 1
    10    4   16 1
    11    4   20 1
    12    5    7 ar
    13    5   10 1
    14    6    8 ar
    15    6   13 1
    16    7   14 1
    17    8   15 1
    18    9   10 1
    19    9   11 2
    20    9   16 1
    21   10   12 2
