@<TRIPOS>MOLECULE
*****
   36    38     0     0     0
SMALL
NO_CHARGES

@<TRIPOS>ATOM
      1 C1          1.6897   -4.7058   -1.0511 C.1       1 <0>         0.0000
      2 C2         -0.2120   -0.3389    3.8344 C.1       1 <0>         0.0000
      3 C3         -7.7593    2.5903    5.0306 C.ar      1 <0>         0.0000
      4 C4         -8.7122    1.6587    4.6089 C.ar      1 <0>         0.0000
      5 C5          1.4307   -3.1213    0.8174 C.ar      1 <0>         0.0000
      6 C6         -0.5333   -3.8618   -0.4169 C.ar      1 <0>         0.0000
      7 C7         -6.4078    2.2617    4.9642 C.ar      1 <0>         0.0000
      8 C8          0.6293   -2.3318    1.6320 C.ar      1 <0>         0.0000
      9 C9         -1.3287   -3.0707    0.4019 C.ar      1 <0>         0.0000
     10 C10        -8.3015    0.4117    4.1331 C.ar      1 <0>         0.0000
     11 C11         0.8571   -3.8910   -0.2117 C.ar      1 <0>         0.0000
     12 C12        -5.9911    1.0083    4.4786 C.ar      1 <0>         0.0000
     13 C13        -0.7705   -2.2901    1.4398 C.ar      1 <0>         0.0000
     14 C14        -6.9470    0.0555    4.0558 C.ar      1 <0>         0.0000
     15 C15        -4.5424    0.7425    4.4466 C.2       1 <0>         0.0000
     16 C16        -2.6494    0.0169    3.8831 C.2       1 <0>         0.0000
     17 C17        -1.7009   -1.5006    2.2317 C.2       1 <0>         0.0000
     18 C18        -1.4952   -0.6465    3.2749 C.2       1 <0>         0.0000
     19 C19        -6.5801   -1.3207    3.5484 C.3       1 <0>         0.0000
     20 N1          2.3636   -5.3680   -1.7332 N.1       1 <0>         0.0000
     21 N2          0.8311   -0.0900    4.2897 N.1       1 <0>         0.0000
     22 N3         -3.9088   -0.1090    3.5585 N.2       1 <0>         0.0000
     23 N4         -3.7125    1.3511    5.2784 N.2       1 <0>         0.0000
     24 O1         -2.4457    0.8733    4.8994 O.3       1 <0>         0.0000
     25 H1         -8.0652    3.5639    5.4032 H         1 <0>         0.0000
     26 H2         -9.7713    1.8994    4.6516 H         1 <0>         0.0000
     27 H3          2.5048   -3.1481    0.9716 H         1 <0>         0.0000
     28 H4         -0.9748   -4.4558   -1.2107 H         1 <0>         0.0000
     29 H5         -5.6551    2.9763    5.2817 H         1 <0>         0.0000
     30 H6          1.0983   -1.7509    2.4151 H         1 <0>         0.0000
     31 H7         -2.4033   -3.0505    0.2408 H         1 <0>         0.0000
     32 H8         -9.0502   -0.3107    3.8171 H         1 <0>         0.0000
     33 H9         -2.7461   -1.6013    1.9483 H         1 <0>         0.0000
     34 H10        -6.1016   -1.2677    2.5667 H         1 <0>         0.0000
     35 H11        -5.8738   -1.8248    4.2138 H         1 <0>         0.0000
     36 H12        -7.4757   -1.9417    3.4644 H         1 <0>         0.0000
@<TRIPOS>BOND
     1    1   11 1
     2    1   20 3
     3    2   18 1
     4    2   21 3
     5    3    4 ar
     6    3    7 ar
     7    3   25 1
     8    4   10 ar
     9    4   26 1
    10    5    8 ar
    11    5   11 ar
    12    5   27 1
    13    6    9 ar
    14    6   11 ar
    15    6   28 1
    16    7   12 ar
    17    7   29 1
    18    8   13 ar
    19    8   30 1
    20    9   13 ar
    21    9   31 1
    22   10   14 ar
    23   10   32 1
    24   12   14 ar
    25   12   15 1
    26   13   17 1
    27   14   19 1
    28   15   22 1
    29   15   23 2
    30   16   18 1
    31   16   22 2
    32   16   24 1
    33   17   18 2
    34   17   33 1
    35   19   34 1
    36   19   35 1
    37   19   36 1
    38   23   24 1
