@<TRIPOS>MOLECULE
*****
   39    40     0     0     0
SMALL
NO_CHARGES

@<TRIPOS>ATOM
      1 C1          3.3288    0.5850    3.6755 C.2       1 <0>         0.0000
      2 C2          3.5777    1.0471    2.4077 C.2       1 <0>         0.0000
      3 C3          5.2540   -0.4979    3.3421 C.2       1 <0>         0.0000
      4 C4          0.5348    2.2737    0.5091 C.3       1 <0>         0.0000
      5 C5          1.4940    0.1274    0.4701 C.3       1 <0>         0.0000
      6 C6         -0.4037    1.3505   -0.3075 C.3       1 <0>         0.0000
      7 C7          0.0161   -0.0859    0.0984 C.3       1 <0>         0.0000
      8 C8          6.4395   -1.3739    3.6195 C.3       1 <0>         0.0000
      9 C9         -1.8884    1.6841   -0.1748 C.3       1 <0>         0.0000
     10 C10        -0.7668   -0.6622    1.2799 C.3       1 <0>         0.0000
     11 C11         2.5377    1.8538    5.7119 C.3       1 <0>         0.0000
     12 C12         2.1463    0.9518    4.5288 C.3       1 <0>         0.0000
     13 C13         2.7341    1.9628    1.5602 C.3       1 <0>         0.0000
     14 N1          4.2840   -0.2802    4.1865 N.2       1 <0>         0.0000
     15 N2          1.4448    1.3704    1.2333 N.3       1 <0>         0.0000
     16 O1         -0.1451   -0.9182   -1.0605 O.3       1 <0>         0.0000
     17 S1          5.0693    0.3573    1.8192 S.3       1 <0>         0.0000
     18 H1          1.0845    2.9516   -0.1663 H         1 <0>         0.0000
     19 H2         -0.0129    2.9006    1.2240 H         1 <0>         0.0000
     20 H3          1.9129   -0.6830    1.0749 H         1 <0>         0.0000
     21 H4          2.0892    0.2116   -0.4587 H         1 <0>         0.0000
     22 H5         -0.1317    1.4272   -1.3653 H         1 <0>         0.0000
     23 H6          6.5786   -2.1249    2.8353 H         1 <0>         0.0000
     24 H7          7.3612   -0.7854    3.6845 H         1 <0>         0.0000
     25 H8          6.2826   -1.8819    4.5731 H         1 <0>         0.0000
     26 H9         -2.2151    1.6683    0.8702 H         1 <0>         0.0000
     27 H10        -2.5002    0.9728   -0.7389 H         1 <0>         0.0000
     28 H11        -2.0928    2.6856   -0.5695 H         1 <0>         0.0000
     29 H12        -1.8281   -0.7603    1.0373 H         1 <0>         0.0000
     30 H13        -0.6583   -0.0291    2.1643 H         1 <0>         0.0000
     31 H14        -0.3820   -1.6572    1.5374 H         1 <0>         0.0000
     32 H15         3.2906    1.3650    6.3369 H         1 <0>         0.0000
     33 H16         1.6653    2.0787    6.3351 H         1 <0>         0.0000
     34 H17         2.9571    2.8020    5.3581 H         1 <0>         0.0000
     35 H18         1.3912    1.4357    3.9043 H         1 <0>         0.0000
     36 H19         1.6989    0.0267    4.9112 H         1 <0>         0.0000
     37 H20         2.5445    2.8930    2.1098 H         1 <0>         0.0000
     38 H21         3.2941    2.2483    0.6492 H         1 <0>         0.0000
     39 H22        -0.0003   -1.8390   -0.7905 H         1 <0>         0.0000
@<TRIPOS>BOND
     1    1    2 2
     2    1   12 1
     3    1   14 1
     4    2   13 1
     5    2   17 1
     6    3    8 1
     7    3   14 2
     8    3   17 1
     9    4    6 1
    10    4   15 1
    11    4   18 1
    12    4   19 1
    13    5    7 1
    14    5   15 1
    15    5   20 1
    16    5   21 1
    17    6    7 1
    18    6    9 1
    19    6   22 1
    20    7   10 1
    21    7   16 1
    22    8   23 1
    23    8   24 1
    24    8   25 1
    25    9   26 1
    26    9   27 1
    27    9   28 1
    28   10   29 1
    29   10   30 1
    30   10   31 1
    31   11   12 1
    32   11   32 1
    33   11   33 1
    34   11   34 1
    35   12   35 1
    36   12   36 1
    37   13   15 1
    38   13   37 1
    39   13   38 1
    40   16   39 1
