@<TRIPOS>MOLECULE
*****
   33    35     0     0     0
SMALL
NO_CHARGES

@<TRIPOS>ATOM
      1 C1          5.7276    0.8788    3.3025 C.ar      1 <0>         0.0000
      2 C2          5.3308   -0.4432    3.0976 C.ar      1 <0>         0.0000
      3 C3          3.7792    1.6469    2.0726 C.ar      1 <0>         0.0000
      4 C4          3.3596    0.3236    1.8526 C.ar      1 <0>         0.0000
      5 C5          4.9451    1.9177    2.7865 C.ar      1 <0>         0.0000
      6 C6          4.1672   -0.6894    2.3844 C.ar      1 <0>         0.0000
      7 C7          0.3202    0.4132   -0.0420 C.2       1 <0>         0.0000
      8 C8          0.4339   -0.9698    0.0979 C.2       1 <0>         0.0000
      9 C9          2.1301    0.0847    1.0979 C.2       1 <0>         0.0000
     10 C10        -0.7200    1.2604   -0.6944 C.2       1 <0>         0.0000
     11 C11        -0.3637   -2.1514   -0.3650 C.3       1 <0>         0.0000
     12 C12        -1.7283   -1.7961   -0.9609 C.3       1 <0>         0.0000
     13 C13        -1.6455   -0.7094   -2.0418 C.3       1 <0>         0.0000
     14 C14         5.3457    3.3569    2.9884 C.3       1 <0>         0.0000
     15 N1          1.3775    1.0384    0.5860 N.2       1 <0>         0.0000
     16 N2          1.5894   -1.1549    0.8233 N.pl3     1 <0>         0.0000
     17 N3         -1.6507    0.6462   -1.5039 N.am      1 <0>         0.0000
     18 O1         -0.7676    2.4735   -0.5032 O.2       1 <0>         0.0000
     19 F1          3.8014   -1.9954    2.1992 F         1 <0>         0.0000
     20 F2          6.4820    3.4746    3.7181 F         1 <0>         0.0000
     21 F3          5.5641    3.9888    1.8071 F         1 <0>         0.0000
     22 F4          4.3826    4.0620    3.6333 F         1 <0>         0.0000
     23 H1          6.6333    1.0957    3.8575 H         1 <0>         0.0000
     24 H2          5.9077   -1.2785    3.4811 H         1 <0>         0.0000
     25 H3          3.1634    2.4448    1.6691 H         1 <0>         0.0000
     26 H4          0.2230   -2.6963   -1.1176 H         1 <0>         0.0000
     27 H5         -0.5040   -2.8458    0.4730 H         1 <0>         0.0000
     28 H6         -2.1549   -2.7059   -1.3967 H         1 <0>         0.0000
     29 H7         -2.4135   -1.4576   -0.1772 H         1 <0>         0.0000
     30 H8         -0.7636   -0.8808   -2.6762 H         1 <0>         0.0000
     31 H9         -2.5208   -0.7817   -2.6920 H         1 <0>         0.0000
     32 H10         1.9729   -2.0442    1.1184 H         1 <0>         0.0000
     33 H11        -2.2756    1.3189   -1.9320 H         1 <0>         0.0000
@<TRIPOS>BOND
     1    1    2 ar
     2    1    5 ar
     3    1   23 1
     4    2    6 ar
     5    2   24 1
     6    3    4 ar
     7    3    5 ar
     8    3   25 1
     9    4    6 ar
    10    4    9 1
    11    5   14 1
    12    6   19 1
    13    7    8 2
    14    7   10 1
    15    7   15 1
    16    8   11 1
    17    8   16 1
    18    9   15 2
    19    9   16 1
    20   10   17 am
    21   10   18 2
    22   11   12 1
    23   11   26 1
    24   11   27 1
    25   12   13 1
    26   12   28 1
    27   12   29 1
    28   13   17 1
    29   13   30 1
    30   13   31 1
    31   14   20 1
    32   14   21 1
    33   14   22 1
    34   16   32 1
    35   17   33 1
