@<TRIPOS>MOLECULE
*****
   29    30     0     0     0
SMALL
NO_CHARGES

@<TRIPOS>ATOM
      1 C1          7.5202   -6.0499   -1.2804 C.ar      1 <0>         0.0000
      2 C2          6.5771   -6.5350   -0.3678 C.ar      1 <0>         0.0000
      3 C3          7.4364   -4.7206   -1.7042 C.ar      1 <0>         0.0000
      4 C4          2.1698   -0.7221    0.1366 C.ar      1 <0>         0.0000
      5 C5          5.5696   -5.6987    0.1104 C.ar      1 <0>         0.0000
      6 C6          6.4317   -3.8694   -1.2356 C.ar      1 <0>         0.0000
      7 C7          1.0906   -0.1781    0.8285 C.ar      1 <0>         0.0000
      8 C8          2.6172   -2.1799    2.0105 C.ar      1 <0>         0.0000
      9 C9          2.9340   -1.7422    0.7169 C.ar      1 <0>         0.0000
     10 C10         1.5459   -1.6444    2.7404 C.ar      1 <0>         0.0000
     11 C11         5.4884   -4.3615   -0.3179 C.ar      1 <0>         0.0000
     12 C12         0.7894   -0.6439    2.1105 C.ar      1 <0>         0.0000
     13 C13         4.0863   -2.2830   -0.0831 C.2       1 <0>         0.0000
     14 C14         1.2486   -2.1285    4.1369 C.3       1 <0>         0.0000
     15 N1          4.4460   -3.5771    0.2241 N.am      1 <0>         0.0000
     16 O1          4.6370   -1.6044   -0.9486 O.2       1 <0>         0.0000
     17 Br1        -0.7056    0.1419    3.0247 Br        1 <0>         0.0000
     18 H1          8.3065   -6.6993   -1.6551 H         1 <0>         0.0000
     19 H2          6.6240   -7.5657   -0.0262 H         1 <0>         0.0000
     20 H3          8.1623   -4.3325   -2.4141 H         1 <0>         0.0000
     21 H4          2.4337   -0.3654   -0.8537 H         1 <0>         0.0000
     22 H5          4.8398   -6.0835    0.8212 H         1 <0>         0.0000
     23 H6          6.3670   -2.8445   -1.5729 H         1 <0>         0.0000
     24 H7          0.4869    0.6041    0.3800 H         1 <0>         0.0000
     25 H8          3.2358   -2.9264    2.5035 H         1 <0>         0.0000
     26 H9          1.3034   -1.3080    4.8593 H         1 <0>         0.0000
     27 H10         0.2384   -2.5451    4.2036 H         1 <0>         0.0000
     28 H11         1.9603   -2.9007    4.4395 H         1 <0>         0.0000
     29 H12         3.8310   -4.0708    0.8569 H         1 <0>         0.0000
@<TRIPOS>BOND
     1    1    3 ar
     2    1    2 ar
     3    1   18 1
     4    2    5 ar
     5    2   19 1
     6    3    6 ar
     7    3   20 1
     8    4    7 ar
     9    4    9 ar
    10    4   21 1
    11    5   11 ar
    12    5   22 1
    13    6   11 ar
    14    6   23 1
    15    7   12 ar
    16    7   24 1
    17    8    9 ar
    18    8   10 ar
    19    8   25 1
    20    9   13 1
    21   10   12 ar
    22   10   14 1
    23   11   15 1
    24   12   17 1
    25   13   15 am
    26   13   16 2
    27   14   26 1
    28   14   27 1
    29   14   28 1
    30   15   29 1
