@<TRIPOS>MOLECULE
*****
   29    30     0     0     0
SMALL
NO_CHARGES

@<TRIPOS>ATOM
      1 C1          0.2531    0.7721   -5.6831 C.ar      1 <0>         0.0000
      2 C2         -1.0176    0.8933   -3.6567 C.ar      1 <0>         0.0000
      3 C3         -0.7013    1.6126   -6.2650 C.ar      1 <0>         0.0000
      4 C4         -1.9115    1.7195   -4.3335 C.ar      1 <0>         0.0000
      5 C5          0.1052    0.3929   -4.3403 C.ar      1 <0>         0.0000
      6 C6          2.0353   -1.1150   -0.3062 C.ar      1 <0>         0.0000
      7 C7          3.2799   -1.2820    0.3193 C.ar      1 <0>         0.0000
      8 C8          0.9319   -0.8824    0.5313 C.ar      1 <0>         0.0000
      9 C9          3.4376   -1.2146    1.6965 C.ar      1 <0>         0.0000
     10 C10         1.0905   -0.7953    1.9134 C.ar      1 <0>         0.0000
     11 C11         2.3382   -0.9606    2.5193 C.ar      1 <0>         0.0000
     12 C12         1.0857   -0.4836   -3.6566 C.2       1 <0>         0.0000
     13 C13         2.0393   -1.3459   -4.4496 C.3       1 <0>         0.0000
     14 N1         -1.7739    2.0858   -5.6200 N.ar      1 <0>         0.0000
     15 N2          1.0599   -0.4552   -2.3645 N.2       1 <0>         0.0000
     16 N3          1.9492   -1.2515   -1.6893 N.pl3     1 <0>         0.0000
     17 F1          4.3623   -1.5122   -0.4642 F         1 <0>         0.0000
     18 F2         -0.3078   -0.7727    0.0283 F         1 <0>         0.0000
     19 F3          4.6613   -1.3792    2.2183 F         1 <0>         0.0000
     20 F4          0.0027   -0.5697    2.6633 F         1 <0>         0.0000
     21 Br1         2.5344   -0.8553    4.3979 Br        1 <0>         0.0000
     22 H1          1.0995    0.4459   -6.2794 H         1 <0>         0.0000
     23 H2         -1.1817    0.6316   -2.6171 H         1 <0>         0.0000
     24 H3         -0.5923    1.9182   -7.3047 H         1 <0>         0.0000
     25 H4         -2.7892    2.1078   -3.8191 H         1 <0>         0.0000
     26 H5          3.0553   -0.9288   -4.4574 H         1 <0>         0.0000
     27 H6          2.0928   -2.3502   -4.0148 H         1 <0>         0.0000
     28 H7          1.7197   -1.4559   -5.4854 H         1 <0>         0.0000
     29 H8          2.8307   -1.4818   -2.1414 H         1 <0>         0.0000
@<TRIPOS>BOND
     1    1    3 ar
     2    1    5 ar
     3    1   22 1
     4    2    4 ar
     5    2    5 ar
     6    2   23 1
     7    3   14 ar
     8    3   24 1
     9    4   14 ar
    10    4   25 1
    11    5   12 1
    12    6    7 ar
    13    6    8 ar
    14    6   16 1
    15    7    9 ar
    16    7   17 1
    17    8   10 ar
    18    8   18 1
    19    9   11 ar
    20    9   19 1
    21   10   11 ar
    22   10   20 1
    23   11   21 1
    24   12   13 1
    25   12   15 2
    26   13   26 1
    27   13   27 1
    28   13   28 1
    29   15   16 1
    30   16   29 1
