@<TRIPOS>MOLECULE
*****
   25    26     0     0     0
SMALL
NO_CHARGES

@<TRIPOS>ATOM
      1 C1          2.8910   -0.2499    0.8551 C.ar      1 <0>         0.0000
      2 C2          1.9749    0.3502    1.7115 C.ar      1 <0>         0.0000
      3 C3          0.8000   -1.7674    1.8627 C.ar      1 <0>         0.0000
      4 C4          6.0686   -6.3857   -3.4446 C.2       1 <0>         0.0000
      5 C5          2.8077   -1.6057    0.4703 C.ar      1 <0>         0.0000
      6 C6          0.9269   -0.4239    2.2121 C.ar      1 <0>         0.0000
      7 C7          1.7300   -2.3546    1.0006 C.ar      1 <0>         0.0000
      8 C8          5.1336   -4.8095   -2.2551 C.2       1 <0>         0.0000
      9 C9          3.8504   -2.0842   -0.4373 C.2       1 <0>         0.0000
     10 N1          5.0213   -6.8963   -2.8583 N.2       1 <0>         0.0000
     11 N2          4.4127   -5.8967   -2.0929 N.2       1 <0>         0.0000
     12 N3          3.9342   -3.2860   -0.8928 N.2       1 <0>         0.0000
     13 N4          6.1972   -5.0486   -3.0986 N.pl3     1 <0>         0.0000
     14 N5          7.1414   -4.0767   -3.4628 N.3       1 <0>         0.0000
     15 N6          4.9642   -3.5540   -1.7220 N.pl3     1 <0>         0.0000
     16 Cl1        -0.2482    0.2964    3.2944 Cl        1 <0>         0.0000
     17 Cl2         1.4870   -4.0388    0.6232 Cl        1 <0>         0.0000
     18 H1          3.7091    0.3495    0.4627 H         1 <0>         0.0000
     19 H2          2.0692    1.3954    1.9865 H         1 <0>         0.0000
     20 H3         -0.0171   -2.3621    2.2560 H         1 <0>         0.0000
     21 H4          6.7556   -6.8973   -4.1063 H         1 <0>         0.0000
     22 H5          4.5931   -1.3246   -0.7220 H         1 <0>         0.0000
     23 H6          7.1312   -3.9557   -4.4748 H         1 <0>         0.0000
     24 H7          8.0704   -4.3807   -3.1736 H         1 <0>         0.0000
     25 H8          5.6512   -2.8446   -1.9823 H         1 <0>         0.0000
@<TRIPOS>BOND
     1    1    2 ar
     2    1    5 ar
     3    1   18 1
     4    2    6 ar
     5    2   19 1
     6    3    6 ar
     7    3    7 ar
     8    3   20 1
     9    4   10 2
    10    4   13 1
    11    4   21 1
    12    5    7 ar
    13    5    9 1
    14    6   16 1
    15    7   17 1
    16    8   11 2
    17    8   13 1
    18    8   15 1
    19    9   12 2
    20    9   22 1
    21   10   11 1
    22   12   15 1
    23   13   14 1
    24   14   23 1
    25   14   24 1
    26   15   25 1
