@<TRIPOS>MOLECULE
*****
   47    50     0     0     0
SMALL
NO_CHARGES

@<TRIPOS>ATOM
      1 C1          1.9849   -3.9449    3.5928 C.1       1 <0>         0.0000
      2 C2          4.6152   -5.9835    5.2394 C.ar      1 <0>         0.0000
      3 C3          5.7360   -5.7087    4.4442 C.ar      1 <0>         0.0000
      4 C4          3.3931   -5.4020    4.9176 C.ar      1 <0>         0.0000
      5 C5          5.6251   -4.8724    3.3379 C.ar      1 <0>         0.0000
      6 C6          5.3205   -2.6944    1.1458 C.2       1 <0>         0.0000
      7 C7          4.6544   -1.9928    0.0931 C.2       1 <0>         0.0000
      8 C8          3.2739   -4.5435    3.8077 C.ar      1 <0>         0.0000
      9 C9          4.4004   -4.2693    2.9893 C.ar      1 <0>         0.0000
     10 C10         4.3511   -3.3944    1.8289 C.2       1 <0>         0.0000
     11 C11         3.3235   -2.3060    0.1892 C.2       1 <0>         0.0000
     12 C12         0.5078    1.8052    0.8719 C.3       1 <0>         0.0000
     13 C13         0.5303    1.5298   -0.6557 C.3       1 <0>         0.0000
     14 C14        -1.1910    0.0080    1.5242 C.3       1 <0>         0.0000
     15 C15         1.3074   -0.5433    1.3414 C.3       1 <0>         0.0000
     16 C16        -0.8287   -0.6271   -0.8152 C.3       1 <0>         0.0000
     17 C17         0.2517    0.5225    1.6805 C.3       1 <0>         0.0000
     18 C18         0.5762    0.0206   -0.9420 C.3       1 <0>         0.0000
     19 C19        -3.0597   -0.4553    0.0841 C.3       1 <0>         0.0000
     20 C20         2.0966   -1.8720   -0.5492 C.3       1 <0>         0.0000
     21 N1          0.9177   -3.4849    3.5017 N.1       1 <0>         0.0000
     22 N2         -1.6941    0.0468    0.1505 N.3       1 <0>         0.0000
     23 N3          1.6269   -0.5650   -0.0978 N.3       1 <0>         0.0000
     24 O1          3.1345   -3.1618    1.2418 O.3       1 <0>         0.0000
     25 H1          4.6957   -6.6435    6.0980 H         1 <0>         0.0000
     26 H2          6.6955   -6.1605    4.6810 H         1 <0>         0.0000
     27 H3          2.5139   -5.5940    5.5250 H         1 <0>         0.0000
     28 H4          6.4939   -4.6942    2.7119 H         1 <0>         0.0000
     29 H5          6.3753   -2.6613    1.3843 H         1 <0>         0.0000
     30 H6          5.0955   -1.3234   -0.6333 H         1 <0>         0.0000
     31 H7          1.4720    2.2200    1.1861 H         1 <0>         0.0000
     32 H8         -0.2555    2.5521    1.1126 H         1 <0>         0.0000
     33 H9         -0.3520    1.9599   -1.1364 H         1 <0>         0.0000
     34 H10         1.4168    1.9891   -1.1036 H         1 <0>         0.0000
     35 H11        -1.2509   -1.0107    1.9534 H         1 <0>         0.0000
     36 H12        -1.8561    0.6428    2.1227 H         1 <0>         0.0000
     37 H13         2.2314   -0.3314    1.8944 H         1 <0>         0.0000
     38 H14         0.9520   -1.5226    1.6923 H         1 <0>         0.0000
     39 H15        -1.3259   -0.5573   -1.7897 H         1 <0>         0.0000
     40 H16        -0.7238   -1.7078   -0.5949 H         1 <0>         0.0000
     41 H17         0.3715    0.7446    2.7473 H         1 <0>         0.0000
     42 H18         0.9021   -0.1301   -1.9776 H         1 <0>         0.0000
     43 H19        -3.4525   -0.3351   -0.9312 H         1 <0>         0.0000
     44 H20        -3.6976    0.1192    0.7641 H         1 <0>         0.0000
     45 H21        -3.1443   -1.5240    0.3610 H         1 <0>         0.0000
     46 H22         2.3368   -1.7993   -1.6153 H         1 <0>         0.0000
     47 H23         1.3420   -2.6703   -0.4320 H         1 <0>         0.0000
@<TRIPOS>BOND
     1    1    8 1
     2    1   21 3
     3    2    3 ar
     4    2    4 ar
     5    2   25 1
     6    3    5 ar
     7    3   26 1
     8    4    8 ar
     9    4   27 1
    10    5    9 ar
    11    5   28 1
    12    6    7 1
    13    6   10 2
    14    6   29 1
    15    7   11 2
    16    7   30 1
    17    8    9 ar
    18    9   10 1
    19   10   24 1
    20   11   20 1
    21   11   24 1
    22   12   13 1
    23   12   17 1
    24   12   31 1
    25   12   32 1
    26   13   18 1
    27   13   33 1
    28   13   34 1
    29   14   17 1
    30   14   22 1
    31   14   35 1
    32   14   36 1
    33   15   17 1
    34   15   23 1
    35   15   37 1
    36   15   38 1
    37   16   18 1
    38   16   22 1
    39   16   39 1
    40   16   40 1
    41   17   41 1
    42   18   23 1
    43   18   42 1
    44   19   22 1
    45   19   43 1
    46   19   44 1
    47   19   45 1
    48   20   23 1
    49   20   46 1
    50   20   47 1
