@<TRIPOS>MOLECULE
*****
   43    45     0     0     0
SMALL
NO_CHARGES

@<TRIPOS>ATOM
      1 C1         -1.7405   -2.5440    2.6086 C.ar      1 <0>         0.0000
      2 C2         -2.6631   -3.2255    3.4322 C.ar      1 <0>         0.0000
      3 C3         -3.5256   -1.6313    1.2899 C.ar      1 <0>         0.0000
      4 C4         -2.1326   -1.7423    1.5375 C.ar      1 <0>         0.0000
      5 C5         -4.0354   -3.1374    3.2184 C.ar      1 <0>         0.0000
      6 C6         -4.3362   -0.9183    0.3216 C.2       1 <0>         0.0000
      7 C7         -4.4278   -2.3330    2.1367 C.ar      1 <0>         0.0000
      8 C8         -5.6595   -1.2069    0.6003 C.2       1 <0>         0.0000
      9 C9         -3.6474   -0.9216   -2.0915 C.2       1 <0>         0.0000
     10 C10        -5.5084    0.2670   -3.3327 C.3       1 <0>         0.0000
     11 C11        -4.2135   -1.5855   -4.3586 C.3       1 <0>         0.0000
     12 C12        -6.5847   -0.2277   -4.3124 C.3       1 <0>         0.0000
     13 C13        -5.2860   -2.6806   -4.3850 C.3       1 <0>         0.0000
     14 C14        -1.0967   -1.0380    0.6951 C.3       1 <0>         0.0000
     15 C15        -5.0530   -3.8510    4.0733 C.3       1 <0>         0.0000
     16 C16        -6.9200   -0.7782   -0.0860 C.3       1 <0>         0.0000
     17 C17        -3.8791   -0.0692   -0.8389 C.3       1 <0>         0.0000
     18 N1         -5.7100   -2.0631    1.6895 N.pl3     1 <0>         0.0000
     19 N2         -4.3986   -0.6859   -3.2207 N.am      1 <0>         0.0000
     20 O1         -2.7832   -1.8019   -2.0774 O.2       1 <0>         0.0000
     21 S1         -6.9759   -1.9950   -4.0612 S.3       1 <0>         0.0000
     22 H1         -0.6788   -2.6520    2.8188 H         1 <0>         0.0000
     23 H2         -2.2913   -3.8357    4.2527 H         1 <0>         0.0000
     24 H3         -5.1442    1.2496   -3.6690 H         1 <0>         0.0000
     25 H4         -5.9752    0.3969   -2.3601 H         1 <0>         0.0000
     26 H5         -3.2295   -2.0447   -4.2671 H         1 <0>         0.0000
     27 H6         -4.2303   -1.0009   -5.2834 H         1 <0>         0.0000
     28 H7         -7.5130    0.3219   -4.1362 H         1 <0>         0.0000
     29 H8         -6.3005   -0.0521   -5.3529 H         1 <0>         0.0000
     30 H9         -5.2793   -3.1930   -5.3514 H         1 <0>         0.0000
     31 H10        -5.0883   -3.4099   -3.5966 H         1 <0>         0.0000
     32 H11        -1.2221   -1.2828   -0.3638 H         1 <0>         0.0000
     33 H12        -1.1660    0.0520    0.8018 H         1 <0>         0.0000
     34 H13        -0.0885   -1.3299    1.0033 H         1 <0>         0.0000
     35 H14        -5.7412   -3.1461    4.5585 H         1 <0>         0.0000
     36 H15        -5.6611   -4.5478    3.4817 H         1 <0>         0.0000
     37 H16        -4.5657   -4.4291    4.8628 H         1 <0>         0.0000
     38 H17        -7.0772   -1.3170   -1.0283 H         1 <0>         0.0000
     39 H18        -7.7941   -0.9569    0.5490 H         1 <0>         0.0000
     40 H19        -6.9018    0.2936   -0.3100 H         1 <0>         0.0000
     41 H20        -4.5770    0.7524   -1.0084 H         1 <0>         0.0000
     42 H21        -2.9147    0.3888   -0.6131 H         1 <0>         0.0000
     43 H22        -6.5605   -2.3953    2.1200 H         1 <0>         0.0000
@<TRIPOS>BOND
     1    1    2 ar
     2    1    4 ar
     3    1   22 1
     4    2    5 ar
     5    2   23 1
     6    3    4 ar
     7    3    6 1
     8    3    7 ar
     9    4   14 1
    10    5    7 ar
    11    5   15 1
    12    6    8 2
    13    6   17 1
    14    7   18 1
    15    8   16 1
    16    8   18 1
    17    9   17 1
    18    9   19 am
    19    9   20 2
    20   10   12 1
    21   10   19 1
    22   10   24 1
    23   10   25 1
    24   11   13 1
    25   11   19 1
    26   11   26 1
    27   11   27 1
    28   12   21 1
    29   12   28 1
    30   12   29 1
    31   13   21 1
    32   13   30 1
    33   13   31 1
    34   14   32 1
    35   14   33 1
    36   14   34 1
    37   15   35 1
    38   15   36 1
    39   15   37 1
    40   16   38 1
    41   16   39 1
    42   16   40 1
    43   17   41 1
    44   17   42 1
    45   18   43 1
