@<TRIPOS>MOLECULE
*****
   39    41     0     0     0
SMALL
NO_CHARGES

@<TRIPOS>ATOM
      1 C1         -3.0408   -9.7585    7.2856 C.ar      1 <0>         0.0000
      2 C2         -4.0885   -8.9306    7.7165 C.ar      1 <0>         0.0000
      3 C3         -2.4079   -9.5370    6.0573 C.ar      1 <0>         0.0000
      4 C4         -4.5294   -7.8587    6.9291 C.ar      1 <0>         0.0000
      5 C5         -4.7251   -8.6197    1.4615 C.2       1 <0>         0.0000
      6 C6         -2.8444   -8.4737    5.2700 C.ar      1 <0>         0.0000
      7 C7         -3.4591   -8.4045    0.8096 C.2       1 <0>         0.0000
      8 C8         -3.8849   -7.6625    5.7156 C.ar      1 <0>         0.0000
      9 C9         -5.2327   -9.8128    1.0082 C.2       1 <0>         0.0000
     10 C10        -3.2334   -9.5033   -0.0286 C.2       1 <0>         0.0000
     11 C11        -2.2996   -8.0797    3.9375 C.2       1 <0>         0.0000
     12 C12        -2.5475   -7.2787    0.9733 C.2       1 <0>         0.0000
     13 C13        -6.5229  -10.4944    1.3363 C.3       1 <0>         0.0000
     14 C14        -2.0706   -9.8275   -0.9095 C.3       1 <0>         0.0000
     15 C15        -4.4895  -11.5887   -0.6279 C.3       1 <0>         0.0000
     16 C16        -2.7397   -6.3350    2.1802 C.3       1 <0>         0.0000
     17 N1         -4.3038  -10.3517    0.1136 N.pl3     1 <0>         0.0000
     18 N2         -3.0440   -7.0159    3.4380 N.am      1 <0>         0.0000
     19 O1         -1.3604   -8.5958    3.3565 O.2       1 <0>         0.0000
     20 O2         -1.6466   -6.9870    0.1887 O.2       1 <0>         0.0000
     21 O3         -5.5514   -6.5159    3.9306 O.2       1 <0>         0.0000
     22 O4         -3.7945   -5.0641    5.0003 O.2       1 <0>         0.0000
     23 S1         -4.2190   -6.3782    4.5220 S.o2      1 <0>         0.0000
     24 H1         -2.7180  -10.5816    7.9167 H         1 <0>         0.0000
     25 H2         -4.5650   -9.1202    8.6741 H         1 <0>         0.0000
     26 H3         -1.5950  -10.1660    5.7070 H         1 <0>         0.0000
     27 H4         -5.3380   -7.2118    7.2553 H         1 <0>         0.0000
     28 H5         -5.2303   -7.9601    2.1527 H         1 <0>         0.0000
     29 H6         -7.1441  -10.6637    0.4481 H         1 <0>         0.0000
     30 H7         -6.3713  -11.4660    1.8236 H         1 <0>         0.0000
     31 H8         -7.0926   -9.8664    2.0250 H         1 <0>         0.0000
     32 H9         -1.5931  -10.7703   -0.6146 H         1 <0>         0.0000
     33 H10        -2.3748   -9.9233   -1.9592 H         1 <0>         0.0000
     34 H11        -1.3356   -9.0274   -0.8425 H         1 <0>         0.0000
     35 H12        -4.9850  -11.4065   -1.5887 H         1 <0>         0.0000
     36 H13        -3.5242  -12.0603   -0.8172 H         1 <0>         0.0000
     37 H14        -5.0999  -12.2807   -0.0461 H         1 <0>         0.0000
     38 H15        -3.5726   -5.6597    1.9581 H         1 <0>         0.0000
     39 H16        -1.8279   -5.7421    2.2757 H         1 <0>         0.0000
@<TRIPOS>BOND
     1    1    2 ar
     2    1    3 ar
     3    1   24 1
     4    2    4 ar
     5    2   25 1
     6    3    6 ar
     7    3   26 1
     8    4    8 ar
     9    4   27 1
    10    5    7 1
    11    5    9 2
    12    5   28 1
    13    6    8 ar
    14    6   11 1
    15    7   10 2
    16    7   12 1
    17    8   23 1
    18    9   13 1
    19    9   17 1
    20   10   14 1
    21   10   17 1
    22   11   18 am
    23   11   19 2
    24   12   16 1
    25   12   20 2
    26   13   29 1
    27   13   30 1
    28   13   31 1
    29   14   32 1
    30   14   33 1
    31   14   34 1
    32   15   17 1
    33   15   35 1
    34   15   36 1
    35   15   37 1
    36   16   18 1
    37   16   38 1
    38   16   39 1
    39   18   23 1
    40   21   23 2
    41   22   23 2
