@<TRIPOS>MOLECULE
*****
   32    34     0     0     0
SMALL
NO_CHARGES

@<TRIPOS>ATOM
      1 C1          8.3892   -4.2964    3.7646 C.1       1 <0>         0.0000
      2 C2          6.3180    3.3393    3.0484 C.ar      1 <0>         0.0000
      3 C3          7.2551    4.3483    3.2872 C.ar      1 <0>         0.0000
      4 C4          4.8019   -6.8911    2.8289 C.2       1 <0>         0.0000
      5 C5          6.7012    2.0071    3.1793 C.ar      1 <0>         0.0000
      6 C6          8.5595    4.0096    3.6528 C.ar      1 <0>         0.0000
      7 C7          5.8506   -5.9790    3.0993 C.2       1 <0>         0.0000
      8 C8          3.6191   -6.2651    2.4925 C.2       1 <0>         0.0000
      9 C9          8.0151    1.6604    3.5476 C.ar      1 <0>         0.0000
     10 C10         8.9725    2.6764    3.7919 C.ar      1 <0>         0.0000
     11 C11         5.4613   -4.6483    2.9670 C.2       1 <0>         0.0000
     12 C12         8.3140    0.2227    3.6572 C.2       1 <0>         0.0000
     13 C13         7.9941   -1.8606    3.6093 C.2       1 <0>         0.0000
     14 C14         6.1759   -3.4192    3.1397 C.2       1 <0>         0.0000
     15 C15         7.4840   -3.2224    3.4953 C.2       1 <0>         0.0000
     16 C16        10.4000    2.3934    4.1904 C.3       1 <0>         0.0000
     17 N1          9.1024   -5.1937    3.9774 N.1       1 <0>         0.0000
     18 N2          7.3493   -0.7429    3.4109 N.2       1 <0>         0.0000
     19 N3          9.4909   -0.2820    3.9899 N.2       1 <0>         0.0000
     20 O1          9.2810   -1.6762    3.9590 O.3       1 <0>         0.0000
     21 S1          3.7700   -4.5534    2.5011 S.3       1 <0>         0.0000
     22 H1          5.2994    3.5876    2.7632 H         1 <0>         0.0000
     23 H2          6.9740    5.3939    3.1899 H         1 <0>         0.0000
     24 H3          4.9094   -7.9692    2.8791 H         1 <0>         0.0000
     25 H4          5.9879    1.2109    2.9980 H         1 <0>         0.0000
     26 H5          9.2828    4.8001    3.8370 H         1 <0>         0.0000
     27 H6          6.8514   -6.2811    3.3796 H         1 <0>         0.0000
     28 H7          2.6719   -6.7261    2.2414 H         1 <0>         0.0000
     29 H8          5.6157   -2.5021    2.9682 H         1 <0>         0.0000
     30 H9         10.4516    1.8212    5.1212 H         1 <0>         0.0000
     31 H10        10.9155    1.7906    3.4372 H         1 <0>         0.0000
     32 H11        10.9480    3.3297    4.3243 H         1 <0>         0.0000
@<TRIPOS>BOND
     1    1   15 1
     2    1   17 3
     3    2    3 ar
     4    2    5 ar
     5    2   22 1
     6    3    6 ar
     7    3   23 1
     8    4    7 1
     9    4    8 2
    10    4   24 1
    11    5    9 ar
    12    5   25 1
    13    6   10 ar
    14    6   26 1
    15    7   11 2
    16    7   27 1
    17    8   21 1
    18    8   28 1
    19    9   10 ar
    20    9   12 1
    21   10   16 1
    22   11   14 1
    23   11   21 1
    24   12   18 1
    25   12   19 2
    26   13   15 1
    27   13   18 2
    28   13   20 1
    29   14   15 2
    30   14   29 1
    31   16   30 1
    32   16   31 1
    33   16   32 1
    34   19   20 1
