@<TRIPOS>MOLECULE
*****
   31    33     0     0     0
SMALL
NO_CHARGES

@<TRIPOS>ATOM
      1 C1         -3.0748   -1.3484   -2.4167 C.ar      1 <0>         0.0000
      2 C2         -2.4324   -0.1279   -2.6657 C.ar      1 <0>         0.0000
      3 C3         -2.3654   -2.4443   -1.9090 C.ar      1 <0>         0.0000
      4 C4         -2.4361   -6.3438    0.5278 C.ar      1 <0>         0.0000
      5 C5         -1.7723   -8.3530   -0.6432 C.ar      1 <0>         0.0000
      6 C6         -1.0620    0.0252   -2.4110 C.ar      1 <0>         0.0000
      7 C7         -3.7527   -6.8034    0.5798 C.ar      1 <0>         0.0000
      8 C8         -3.0867   -8.8174   -0.6087 C.ar      1 <0>         0.0000
      9 C9         -0.9998   -2.2932   -1.6558 C.ar      1 <0>         0.0000
     10 C10        -1.4285   -7.1051   -0.0950 C.ar      1 <0>         0.0000
     11 C11        -0.3813   -1.0717   -1.9086 C.ar      1 <0>         0.0000
     12 C12        -4.0711   -8.0342    0.0001 C.ar      1 <0>         0.0000
     13 C13         0.0038   -3.2655   -1.1263 C.2       1 <0>         0.0000
     14 C14        -0.0167   -6.6594   -0.1476 C.2       1 <0>         0.0000
     15 N1          1.2307   -2.8691   -0.9795 N.2       1 <0>         0.0000
     16 N2          0.4554   -5.4963   -0.4360 N.2       1 <0>         0.0000
     17 N3         -0.4291   -4.5173   -0.7958 N.pl3     1 <0>         0.0000
     18 O1          2.1975   -1.1520   -2.6615 O.2       1 <0>         0.0000
     19 O2          1.6664   -0.4090   -0.3014 O.2       1 <0>         0.0000
     20 S1          1.3640   -1.2422   -1.4641 S.o2      1 <0>         0.0000
     21 Cl1        -5.7230   -8.6107    0.0524 Cl        1 <0>         0.0000
     22 H1         -4.1370   -1.4468   -2.6209 H         1 <0>         0.0000
     23 H2         -3.0025    0.7084   -3.0602 H         1 <0>         0.0000
     24 H3         -2.8873   -3.3805   -1.7256 H         1 <0>         0.0000
     25 H4         -2.1856   -5.4071    1.0181 H         1 <0>         0.0000
     26 H5         -1.0040   -8.9638   -1.1105 H         1 <0>         0.0000
     27 H6         -0.5535    0.9658   -2.5997 H         1 <0>         0.0000
     28 H7         -4.5219   -6.2199    1.0758 H         1 <0>         0.0000
     29 H8         -3.3465   -9.7773   -1.0435 H         1 <0>         0.0000
     30 H9          0.7498   -7.4048    0.0602 H         1 <0>         0.0000
     31 H10        -1.3891   -4.7660   -1.0213 H         1 <0>         0.0000
@<TRIPOS>BOND
     1    1    2 ar
     2    1    3 ar
     3    1   22 1
     4    2    6 ar
     5    2   23 1
     6    3    9 ar
     7    3   24 1
     8    4    7 ar
     9    4   10 ar
    10    4   25 1
    11    5    8 ar
    12    5   10 ar
    13    5   26 1
    14    6   11 ar
    15    6   27 1
    16    7   12 ar
    17    7   28 1
    18    8   12 ar
    19    8   29 1
    20    9   11 ar
    21    9   13 1
    22   10   14 1
    23   11   20 1
    24   12   21 1
    25   13   15 2
    26   13   17 1
    27   14   16 2
    28   14   30 1
    29   15   20 1
    30   16   17 1
    31   17   31 1
    32   18   20 2
    33   19   20 2
