@<TRIPOS>MOLECULE
*****
   47    50     0     0     0
SMALL
NO_CHARGES

@<TRIPOS>ATOM
      1 C1          7.7770   -3.3334    2.0254 C.1       1 <0>         0.0000
      2 C2          9.0117   -0.1417    0.5893 C.ar      1 <0>         0.0000
      3 C3          7.8813    0.3120   -0.1029 C.ar      1 <0>         0.0000
      4 C4          8.9440   -1.3467    1.2814 C.ar      1 <0>         0.0000
      5 C5          6.7037   -0.4298   -0.1014 C.ar      1 <0>         0.0000
      6 C6          4.8659   -3.5412    1.1392 C.2       1 <0>         0.0000
      7 C7          3.5113   -3.6831    0.7014 C.2       1 <0>         0.0000
      8 C8          7.7582   -2.1039    1.2882 C.ar      1 <0>         0.0000
      9 C9          6.6060   -1.6551    0.5907 C.ar      1 <0>         0.0000
     10 C10         5.3489   -2.3884    0.5605 C.2       1 <0>         0.0000
     11 C11         3.2449   -2.6200   -0.1186 C.2       1 <0>         0.0000
     12 C12         0.5883    1.6131    0.3080 C.3       1 <0>         0.0000
     13 C13         0.6621    1.2721   -1.2044 C.3       1 <0>         0.0000
     14 C14        -1.2517   -0.0438    0.9455 C.3       1 <0>         0.0000
     15 C15         1.2154   -0.7557    0.9078 C.3       1 <0>         0.0000
     16 C16        -0.8261   -0.7987   -1.3475 C.3       1 <0>         0.0000
     17 C17         0.2126    0.3848    1.1542 C.3       1 <0>         0.0000
     18 C18         0.6223   -0.2481   -1.4277 C.3       1 <0>         0.0000
     19 C19        -3.0808   -0.4463   -0.5614 C.3       1 <0>         0.0000
     20 C20         2.0297   -2.1984   -0.8801 C.3       1 <0>         0.0000
     21 N1          7.8243   -4.3263    2.6351 N.1       1 <0>         0.0000
     22 N2         -1.6885   -0.0341   -0.4491 N.3       1 <0>         0.0000
     23 N3          1.5869   -0.8632   -0.5083 N.3       1 <0>         0.0000
     24 O1          4.3530   -1.8268   -0.2135 O.3       1 <0>         0.0000
     25 H1          9.9308    0.4367    0.5886 H         1 <0>         0.0000
     26 H2          7.9191    1.2522   -0.6467 H         1 <0>         0.0000
     27 H3          9.8054   -1.7213    1.8259 H         1 <0>         0.0000
     28 H4          5.8343   -0.0668   -0.6374 H         1 <0>         0.0000
     29 H5          5.4021   -4.2042    1.8005 H         1 <0>         0.0000
     30 H6          2.8198   -4.4720    0.9666 H         1 <0>         0.0000
     31 H7          1.5617    1.9789    0.6524 H         1 <0>         0.0000
     32 H8         -0.1353    2.4154    0.4833 H         1 <0>         0.0000
     33 H9         -0.1665    1.7376   -1.7437 H         1 <0>         0.0000
     34 H10         1.5967    1.6539   -1.6260 H         1 <0>         0.0000
     35 H11        -1.3997   -1.0389    1.4118 H         1 <0>         0.0000
     36 H12        -1.9012    0.6550    1.4869 H         1 <0>         0.0000
     37 H13         2.1255   -0.5797    1.4949 H         1 <0>         0.0000
     38 H14         0.7824   -1.7006    1.2805 H         1 <0>         0.0000
     39 H15        -1.2728   -0.7350   -2.3464 H         1 <0>         0.0000
     40 H16        -0.8012   -1.8754   -1.0849 H         1 <0>         0.0000
     41 H17         0.2963    0.6469    2.2155 H         1 <0>         0.0000
     42 H18         0.9882   -0.4638   -2.4375 H         1 <0>         0.0000
     43 H19        -3.4176   -0.3443   -1.5982 H         1 <0>         0.0000
     44 H20        -3.7086    0.1978    0.0634 H         1 <0>         0.0000
     45 H21        -3.2507   -1.4946   -0.2471 H         1 <0>         0.0000
     46 H22         2.2570   -2.1954   -1.9535 H         1 <0>         0.0000
     47 H23         1.2653   -2.9800   -0.7119 H         1 <0>         0.0000
@<TRIPOS>BOND
     1    1    8 1
     2    1   21 3
     3    2    3 ar
     4    2    4 ar
     5    2   25 1
     6    3    5 ar
     7    3   26 1
     8    4    8 ar
     9    4   27 1
    10    5    9 ar
    11    5   28 1
    12    6    7 1
    13    6   10 2
    14    6   29 1
    15    7   11 2
    16    7   30 1
    17    8    9 ar
    18    9   10 1
    19   10   24 1
    20   11   20 1
    21   11   24 1
    22   12   13 1
    23   12   17 1
    24   12   31 1
    25   12   32 1
    26   13   18 1
    27   13   33 1
    28   13   34 1
    29   14   17 1
    30   14   22 1
    31   14   35 1
    32   14   36 1
    33   15   17 1
    34   15   23 1
    35   15   37 1
    36   15   38 1
    37   16   18 1
    38   16   22 1
    39   16   39 1
    40   16   40 1
    41   17   41 1
    42   18   23 1
    43   18   42 1
    44   19   22 1
    45   19   43 1
    46   19   44 1
    47   19   45 1
    48   20   23 1
    49   20   46 1
    50   20   47 1
