@<TRIPOS>MOLECULE
*****
   28    30     0     0     0
SMALL
NO_CHARGES

@<TRIPOS>ATOM
      1 C1         -2.1473    1.5769   -1.1161 C.ar      1 <0>         0.0000
      2 C2          0.1285    2.3882    2.6388 C.ar      1 <0>         0.0000
      3 C3          0.5010    1.8001    1.4134 C.ar      1 <0>         0.0000
      4 C4         -3.1043    2.5801   -1.2567 C.ar      1 <0>         0.0000
      5 C5         -1.0297   -0.0821    1.7842 C.ar      1 <0>         0.0000
      6 C6         -1.3678    4.1128   -2.0089 C.ar      1 <0>         0.0000
      7 C7         -0.8004    1.8079   -1.4275 C.ar      1 <0>         0.0000
      8 C8         -0.8116    1.7211    3.4004 C.ar      1 <0>         0.0000
      9 C9         -1.3710    0.5120    2.9846 C.ar      1 <0>         0.0000
     10 C10        -0.0821    0.6034    1.0039 C.ar      1 <0>         0.0000
     11 C11        -0.4451    3.0820   -1.8728 C.ar      1 <0>         0.0000
     12 C12        -2.7016    3.8431   -1.7000 C.ar      1 <0>         0.0000
     13 C13         0.2113    0.7019   -1.3781 C.2       1 <0>         0.0000
     14 C14        -2.2679    1.0455    4.9775 C.3       1 <0>         0.0000
     15 O1          0.8841    0.3677   -2.3214 O.2       1 <0>         0.0000
     16 O2         -1.3281    2.0752    4.6277 O.3       1 <0>         0.0000
     17 O3         -2.2604    0.0579    3.9279 O.3       1 <0>         0.0000
     18 O4          0.3027    0.0009   -0.1978 O.3       1 <0>         0.0000
     19 F1          0.8503    3.3496   -2.1402 F         1 <0>         0.0000
     20 Cl1        -3.8877    5.1188   -1.8664 Cl        1 <0>         0.0000
     21 H1         -2.4527    0.5957   -0.7671 H         1 <0>         0.0000
     22 H2          0.5688    3.3217    2.9733 H         1 <0>         0.0000
     23 H3          1.2500    2.2758    0.7886 H         1 <0>         0.0000
     24 H4         -4.1462    2.3891   -1.0238 H         1 <0>         0.0000
     25 H5         -1.4566   -1.0222    1.4521 H         1 <0>         0.0000
     26 H6         -1.0431    5.0921   -2.3433 H         1 <0>         0.0000
     27 H7         -1.9588    0.5748    5.9163 H         1 <0>         0.0000
     28 H8         -3.2707    1.4792    5.0559 H         1 <0>         0.0000
@<TRIPOS>BOND
     1    1    4 ar
     2    1    7 ar
     3    1   21 1
     4    2    3 ar
     5    2    8 ar
     6    2   22 1
     7    3   10 ar
     8    3   23 1
     9    4   12 ar
    10    4   24 1
    11    5    9 ar
    12    5   10 ar
    13    5   25 1
    14    6   11 ar
    15    6   12 ar
    16    6   26 1
    17    7   11 ar
    18    7   13 1
    19    8    9 ar
    20    8   16 1
    21    9   17 1
    22   10   18 1
    23   11   19 1
    24   12   20 1
    25   13   15 2
    26   13   18 1
    27   14   16 1
    28   14   17 1
    29   14   27 1
    30   14   28 1
