@<TRIPOS>MOLECULE
*****
   14    14     0     0     0
SMALL
NO_CHARGES

@<TRIPOS>ATOM
      1 C1         -1.2101    0.3674   -3.5203 C.2       1 <0>         0.0000
      2 C2         -0.5782    0.8746   -2.4187 C.2       1 <0>         0.0000
      3 C3         -0.7154    0.0361   -1.2607 C.2       1 <0>         0.0000
      4 C4         -1.4447   -1.1019   -1.4986 C.2       1 <0>         0.0000
      5 C5         -1.8544   -2.1837   -0.5396 C.3       1 <0>         0.0000
      6 N1         -3.0244   -1.7612    0.2494 N.3       1 <0>         0.0000
      7 S1         -1.9743   -1.1434   -3.1583 S.3       1 <0>         0.0000
      8 Br1         0.3779    2.5135   -2.4514 Br        1 <0>         0.0000
      9 Br2         0.0338    0.4446    0.4320 Br        1 <0>         0.0000
     10 H1         -1.2546    0.7917   -4.5139 H         1 <0>         0.0000
     11 H2         -2.0044   -3.1194   -1.1018 H         1 <0>         0.0000
     12 H3         -1.0269   -2.3563    0.1553 H         1 <0>         0.0000
     13 H4         -3.2563   -2.4861    0.9268 H         1 <0>         0.0000
     14 H5         -3.8319   -1.6552   -0.3627 H         1 <0>         0.0000
@<TRIPOS>BOND
     1    1    2 2
     2    1    7 1
     3    1   10 1
     4    2    3 1
     5    2    8 1
     6    3    4 2
     7    3    9 1
     8    4    5 1
     9    4    7 1
    10    5    6 1
    11    5   11 1
    12    5   12 1
    13    6   13 1
    14    6   14 1
