@<TRIPOS>MOLECULE
*****
   27    27     0     0     0
SMALL
NO_CHARGES

@<TRIPOS>ATOM
      1 C1          2.0138   -1.0089   -0.1067 C.ar      1 <0>         0.0000
      2 C2          0.9694   -0.3682    0.5737 C.ar      1 <0>         0.0000
      3 C3          2.8880   -1.7838    2.0054 C.ar      1 <0>         0.0000
      4 C4          2.9815   -1.7173    0.6061 C.ar      1 <0>         0.0000
      5 C5          0.8578   -0.4186    1.9631 C.ar      1 <0>         0.0000
      6 C6          1.8405   -1.1438    2.6724 C.ar      1 <0>         0.0000
      7 C7         -0.2647    0.2605    2.7066 C.3       1 <0>         0.0000
      8 C8          5.3915   -1.4579   -0.0752 C.3       1 <0>         0.0000
      9 C9          2.6352   -1.8816    4.8090 C.3       1 <0>         0.0000
     10 C10         4.1538   -2.3671   -0.1103 C.3       1 <0>         0.0000
     11 N1          4.4949   -3.6511    0.5318 N.3       1 <0>         0.0000
     12 O1          1.6782   -1.1653    4.0366 O.3       1 <0>         0.0000
     13 H1          2.0685   -0.9537   -1.1917 H         1 <0>         0.0000
     14 H2          0.2186    0.1802    0.0086 H         1 <0>         0.0000
     15 H3          3.6403   -2.3517    2.5396 H         1 <0>         0.0000
     16 H4         -0.8492   -0.4613    3.2875 H         1 <0>         0.0000
     17 H5          0.1212    0.9968    3.4200 H         1 <0>         0.0000
     18 H6         -0.9370    0.7713    2.0119 H         1 <0>         0.0000
     19 H7          5.7096   -1.2959    0.9591 H         1 <0>         0.0000
     20 H8          6.2249   -1.9107   -0.6267 H         1 <0>         0.0000
     21 H9          5.1693   -0.4870   -0.5273 H         1 <0>         0.0000
     22 H10         2.3221   -1.7731    5.8488 H         1 <0>         0.0000
     23 H11         3.6422   -1.4642    4.6866 H         1 <0>         0.0000
     24 H12         2.6502   -2.9455    4.5423 H         1 <0>         0.0000
     25 H13         3.8622   -2.4945   -1.1660 H         1 <0>         0.0000
     26 H14         5.2705   -4.0846    0.0325 H         1 <0>         0.0000
     27 H15         3.7033   -4.2890    0.4593 H         1 <0>         0.0000
@<TRIPOS>BOND
     1    1    2 ar
     2    1    4 ar
     3    1   13 1
     4    2    5 ar
     5    2   14 1
     6    3    4 ar
     7    3    6 ar
     8    3   15 1
     9    4   10 1
    10    5    6 ar
    11    5    7 1
    12    6   12 1
    13    7   16 1
    14    7   17 1
    15    7   18 1
    16    8   10 1
    17    8   19 1
    18    8   20 1
    19    8   21 1
    20    9   12 1
    21    9   22 1
    22    9   23 1
    23    9   24 1
    24   10   11 1
    25   10   25 1
    26   11   26 1
    27   11   27 1
