@<TRIPOS>MOLECULE
*****
   25    26     0     0     0
SMALL
NO_CHARGES

@<TRIPOS>ATOM
      1 C1          5.8250    3.3599    0.8359 C.ar      1 <0>         0.0000
      2 C2          7.0927    2.7957    0.7070 C.ar      1 <0>         0.0000
      3 C3          4.7323    2.5104    1.0294 C.ar      1 <0>         0.0000
      4 C4          0.8789   -1.1721    1.0464 C.ar      1 <0>         0.0000
      5 C5          1.0409   -0.5431    3.3532 C.ar      1 <0>         0.0000
      6 C6          7.2080    1.3993    0.7735 C.ar      1 <0>         0.0000
      7 C7         -0.0469   -2.1394    1.4259 C.ar      1 <0>         0.0000
      8 C8          1.4397   -0.3445    2.0302 C.ar      1 <0>         0.0000
      9 C9          4.9490    1.1251    1.0716 C.ar      1 <0>         0.0000
     10 C10         0.1028   -1.5494    3.6105 C.ar      1 <0>         0.0000
     11 C11         3.8088    0.1422    1.2450 C.2       1 <0>         0.0000
     12 C12         2.4493    0.7166    1.6808 C.3       1 <0>         0.0000
     13 N1          6.1709    0.5794    0.9446 N.ar      1 <0>         0.0000
     14 N2         -0.4393   -2.3305    2.6988 N.ar      1 <0>         0.0000
     15 O1          3.9626   -1.0444    1.0339 O.2       1 <0>         0.0000
     16 Br1        -0.4542   -1.8273    5.4387 Br        1 <0>         0.0000
     17 H1          5.6857    4.4366    0.7891 H         1 <0>         0.0000
     18 H2          7.9749    3.4120    0.5595 H         1 <0>         0.0000
     19 H3          3.7362    2.9267    1.1336 H         1 <0>         0.0000
     20 H4          1.1676   -1.0747    0.0043 H         1 <0>         0.0000
     21 H5          1.4410    0.0578    4.1633 H         1 <0>         0.0000
     22 H6          8.1840    0.9243    0.6830 H         1 <0>         0.0000
     23 H7         -0.4992   -2.7971    0.6867 H         1 <0>         0.0000
     24 H8          2.0717    1.3338    0.8552 H         1 <0>         0.0000
     25 H9          2.6015    1.3943    2.5266 H         1 <0>         0.0000
@<TRIPOS>BOND
     1    1    2 ar
     2    1    3 ar
     3    1   17 1
     4    2    6 ar
     5    2   18 1
     6    3    9 ar
     7    3   19 1
     8    4    7 ar
     9    4    8 ar
    10    4   20 1
    11    5    8 ar
    12    5   10 ar
    13    5   21 1
    14    6   13 ar
    15    6   22 1
    16    7   14 ar
    17    7   23 1
    18    8   12 1
    19    9   11 1
    20    9   13 ar
    21   10   14 ar
    22   10   16 1
    23   11   12 1
    24   11   15 2
    25   12   24 1
    26   12   25 1
