@<TRIPOS>MOLECULE
*****
   30    31     0     0     0
SMALL
NO_CHARGES

@<TRIPOS>ATOM
      1 C1          0.5797   -4.9556    2.8086 C.ar      1 <0>         0.0000
      2 C2         -0.2016   -4.3294    3.7831 C.ar      1 <0>         0.0000
      3 C3          1.7524   -4.3261    2.3749 C.ar      1 <0>         0.0000
      4 C4          0.1615   -3.0952    4.3302 C.ar      1 <0>         0.0000
      5 C5          2.1285   -3.0963    2.9097 C.ar      1 <0>         0.0000
      6 C6          1.5321    1.7255    6.5035 C.ar      1 <0>         0.0000
      7 C7         -0.3009    0.2287    6.8442 C.ar      1 <0>         0.0000
      8 C8          0.3266    1.4298    7.1795 C.ar      1 <0>         0.0000
      9 C9          2.0467    0.8562    5.5617 C.ar      1 <0>         0.0000
     10 C10         1.3401   -2.4645    3.8930 C.ar      1 <0>         0.0000
     11 C11         1.3083   -0.3447    5.3064 C.ar      1 <0>         0.0000
     12 C12        -0.2669    2.3065    8.1832 C.2       1 <0>         0.0000
     13 C13         3.3324    1.1575    4.8314 C.3       1 <0>         0.0000
     14 N1          0.1659   -0.6386    5.9382 N.ar      1 <0>         0.0000
     15 N2          0.2826    3.4198    8.5163 N.2       1 <0>         0.0000
     16 N3          1.8095   -1.2251    4.3668 N.pl3     1 <0>         0.0000
     17 O1         -0.4851    4.0763    9.5015 O.3       1 <0>         0.0000
     18 H1          0.2833   -5.9149    2.3936 H         1 <0>         0.0000
     19 H2         -1.1154   -4.8053    4.1306 H         1 <0>         0.0000
     20 H3          2.3776   -4.7925    1.6179 H         1 <0>         0.0000
     21 H4         -0.4478   -2.6175    5.0831 H         1 <0>         0.0000
     22 H5          3.0433   -2.6167    2.5639 H         1 <0>         0.0000
     23 H6          2.0537    2.6503    6.7340 H         1 <0>         0.0000
     24 H7         -1.2339   -0.0556    7.3311 H         1 <0>         0.0000
     25 H8         -1.2036    1.9926    8.6539 H         1 <0>         0.0000
     26 H9          4.0958    0.3903    5.0155 H         1 <0>         0.0000
     27 H10         3.1796    1.2238    3.7463 H         1 <0>         0.0000
     28 H11         3.7472    2.1132    5.1596 H         1 <0>         0.0000
     29 H12         2.6740   -0.9323    3.9354 H         1 <0>         0.0000
     30 H13         0.0249    4.8864    9.6642 H         1 <0>         0.0000
@<TRIPOS>BOND
     1    1    3 ar
     2    1    2 ar
     3    1   18 1
     4    2    4 ar
     5    2   19 1
     6    3    5 ar
     7    3   20 1
     8    4   10 ar
     9    4   21 1
    10    5   10 ar
    11    5   22 1
    12    6    8 ar
    13    6    9 ar
    14    6   23 1
    15    7    8 ar
    16    7   14 ar
    17    7   24 1
    18    8   12 1
    19    9   11 ar
    20    9   13 1
    21   10   16 1
    22   11   14 ar
    23   11   16 1
    24   12   15 2
    25   12   25 1
    26   13   26 1
    27   13   27 1
    28   13   28 1
    29   15   17 1
    30   16   29 1
    31   17   30 1
