@<TRIPOS>MOLECULE
*****
   32    33     0     0     0
SMALL
NO_CHARGES

@<TRIPOS>ATOM
      1 C1          0.0970   -5.5761    0.1135 C.2       1 <0>         0.0000
      2 C2         -0.1797   -1.9567   -2.1840 C.2       1 <0>         0.0000
      3 C3         -1.1946   -5.3527    0.7038 C.2       1 <0>         0.0000
      4 C4          0.1736   -1.2950   -0.9697 C.2       1 <0>         0.0000
      5 C5          0.1872   -3.3026   -2.0426 C.2       1 <0>         0.0000
      6 C6          0.0878   -6.9016   -0.2203 C.2       1 <0>         0.0000
      7 C7         -1.7605   -4.0700    1.2298 C.3       1 <0>         0.0000
      8 C8          0.0116    0.1371   -0.5729 C.3       1 <0>         0.0000
      9 C9          0.0748   -4.4754   -2.9606 C.3       1 <0>         0.0000
     10 C10         1.0737   -7.8082   -0.8738 C.3       1 <0>         0.0000
     11 C11         1.1847   -4.5660   -0.0876 C.3       1 <0>         0.0000
     12 N1          0.7129   -2.1765   -0.1346 N.2       1 <0>         0.0000
     13 N2         -1.9080   -6.4564    0.7233 N.2       1 <0>         0.0000
     14 N3          0.7173   -3.3750   -0.8012 N.pl3     1 <0>         0.0000
     15 N4         -0.7933   -1.3669   -3.3293 N.pl3     1 <0>         0.0000
     16 O1         -1.0860   -2.1029   -4.2881 O.3       1 <0>         0.0000
     17 O2         -1.0058   -0.1445   -3.3034 O.2       1 <0>         0.0000
     18 O3         -1.0949   -7.4486    0.1387 O.3       1 <0>         0.0000
     19 H1         -1.9108   -3.3527    0.4169 H         1 <0>         0.0000
     20 H2         -2.7196   -4.2568    1.7165 H         1 <0>         0.0000
     21 H3         -1.0764   -3.6038    1.9446 H         1 <0>         0.0000
     22 H4         -1.0374    0.4409   -0.6260 H         1 <0>         0.0000
     23 H5          0.3808    0.2712    0.4461 H         1 <0>         0.0000
     24 H6          0.5624    0.7943   -1.2512 H         1 <0>         0.0000
     25 H7          0.1319   -4.1444   -3.9966 H         1 <0>         0.0000
     26 H8          0.8649   -5.2037   -2.7643 H         1 <0>         0.0000
     27 H9         -0.8888   -4.9783   -2.8252 H         1 <0>         0.0000
     28 H10         1.3972   -8.5945   -0.1841 H         1 <0>         0.0000
     29 H11         0.6285   -8.2932   -1.7481 H         1 <0>         0.0000
     30 H12         1.9566   -7.2516   -1.1954 H         1 <0>         0.0000
     31 H13         1.5660   -4.1857    0.8623 H         1 <0>         0.0000
     32 H14         2.0274   -5.0067   -0.6286 H         1 <0>         0.0000
@<TRIPOS>BOND
     1    1    3 1
     2    1    6 2
     3    1   11 1
     4    2    4 1
     5    2    5 2
     6    2   15 1
     7    3    7 1
     8    3   13 2
     9    4    8 1
    10    4   12 2
    11    5    9 1
    12    5   14 1
    13    6   10 1
    14    6   18 1
    15    7   19 1
    16    7   20 1
    17    7   21 1
    18    8   22 1
    19    8   23 1
    20    8   24 1
    21    9   25 1
    22    9   26 1
    23    9   27 1
    24   10   28 1
    25   10   29 1
    26   10   30 1
    27   11   14 1
    28   11   31 1
    29   11   32 1
    30   12   14 1
    31   13   18 1
    32   15   16 1
    33   15   17 2
