@<TRIPOS>MOLECULE
*****
   31    32     0     0     0
SMALL
NO_CHARGES

@<TRIPOS>ATOM
      1 C1          1.8649   -2.2086   -0.2007 C.ar      1 <0>         0.0000
      2 C2          0.7761   -1.4842    0.2929 C.ar      1 <0>         0.0000
      3 C3          2.9881   -2.4084    0.6048 C.ar      1 <0>         0.0000
      4 C4          0.8115   -0.9625    1.5886 C.ar      1 <0>         0.0000
      5 C5          5.8558   -2.0142    4.1104 C.2       1 <0>         0.0000
      6 C6          4.8954   -1.2678    3.4682 C.2       1 <0>         0.0000
      7 C7          4.6763   -3.4228    2.9951 C.2       1 <0>         0.0000
      8 C8          3.0229   -1.9075    1.9098 C.ar      1 <0>         0.0000
      9 C9          1.9266   -1.1773    2.4029 C.ar      1 <0>         0.0000
     10 C10         2.6705   -3.5481    7.3077 C.3       1 <0>         0.0000
     11 C11         0.9429   -1.0260    4.5887 C.3       1 <0>         0.0000
     12 C12         1.5721   -1.4742    5.8960 C.3       1 <0>         0.0000
     13 N1          5.7062   -3.3568    3.8132 N.2       1 <0>         0.0000
     14 N2          4.1407   -2.1775    2.7425 N.pl3     1 <0>         0.0000
     15 O1          1.5847   -3.9571    4.8744 O.2       1 <0>         0.0000
     16 O2          2.0052   -0.6767    3.6801 O.3       1 <0>         0.0000
     17 S1          2.5620   -3.0100    5.5592 S.o       1 <0>         0.0000
     18 H1          1.8462   -2.6085   -1.2102 H         1 <0>         0.0000
     19 H2         -0.0975   -1.3159   -0.3307 H         1 <0>         0.0000
     20 H3          3.8487   -2.9563    0.2318 H         1 <0>         0.0000
     21 H4         -0.0264   -0.3910    1.9777 H         1 <0>         0.0000
     22 H5          6.6457   -1.6635    4.7624 H         1 <0>         0.0000
     23 H6          4.6780   -0.2109    3.4479 H         1 <0>         0.0000
     24 H7          4.2369   -4.3217    2.5834 H         1 <0>         0.0000
     25 H8          3.2597   -4.4672    7.3187 H         1 <0>         0.0000
     26 H9          1.6623   -3.7450    7.6812 H         1 <0>         0.0000
     27 H10         3.1718   -2.7801    7.9041 H         1 <0>         0.0000
     28 H11         0.3428   -1.8401    4.1721 H         1 <0>         0.0000
     29 H12         0.3046   -0.1503    4.7536 H         1 <0>         0.0000
     30 H13         2.2460   -0.7133    6.3009 H         1 <0>         0.0000
     31 H14         0.7897   -1.7133    6.6241 H         1 <0>         0.0000
@<TRIPOS>BOND
     1    1    2 ar
     2    1    3 ar
     3    1   18 1
     4    2    4 ar
     5    2   19 1
     6    3    8 ar
     7    3   20 1
     8    4    9 ar
     9    4   21 1
    10    5    6 2
    11    5   13 1
    12    5   22 1
    13    6   14 1
    14    6   23 1
    15    7   13 2
    16    7   14 1
    17    7   24 1
    18    8    9 ar
    19    8   14 1
    20    9   16 1
    21   10   17 1
    22   10   25 1
    23   10   26 1
    24   10   27 1
    25   11   12 1
    26   11   16 1
    27   11   28 1
    28   11   29 1
    29   12   17 1
    30   12   30 1
    31   12   31 1
    32   15   17 2
