@<TRIPOS>MOLECULE
*****
   25    25     0     0     0
SMALL
NO_CHARGES

@<TRIPOS>ATOM
      1 C1          5.2542    1.2503   -3.7770 C.2       1 <0>         0.0000
      2 C2          4.3887    0.1958   -3.7051 C.2       1 <0>         0.0000
      3 C3          6.0482   -0.8388   -4.7450 C.2       1 <0>         0.0000
      4 C4          1.9527    0.1169   -4.2212 C.2       1 <0>         0.0000
      5 C5          0.2479   -1.2275   -5.1472 C.3       1 <0>         0.0000
      6 C6          5.3129   -4.1546   -4.9207 C.3       1 <0>         0.0000
      7 C7          3.0032    0.2276   -3.1230 C.3       1 <0>         0.0000
      8 N1          4.8443   -0.9822   -4.2695 N.2       1 <0>         0.0000
      9 N2          6.7501   -1.8837   -5.3497 N.pl3     1 <0>         0.0000
     10 O1          1.7648    0.9572   -5.0778 O.2       1 <0>         0.0000
     11 O2          7.9756   -4.0731   -5.2354 O.2       1 <0>         0.0000
     12 O3          6.9554   -3.1863   -3.0730 O.2       1 <0>         0.0000
     13 O4          1.2519   -1.0346   -4.1268 O.3       1 <0>         0.0000
     14 S1          6.7426    0.7606   -4.5359 S.3       1 <0>         0.0000
     15 S2          6.8918   -3.4007   -4.5165 S.o2      1 <0>         0.0000
     16 H1          5.0970    2.2741   -3.4653 H         1 <0>         0.0000
     17 H2         -0.2104   -2.1909   -4.9249 H         1 <0>         0.0000
     18 H3          0.7117   -1.2376   -6.1361 H         1 <0>         0.0000
     19 H4         -0.4946   -0.4273   -5.1062 H         1 <0>         0.0000
     20 H5          5.2950   -5.1195   -4.4104 H         1 <0>         0.0000
     21 H6          4.5296   -3.4911   -4.5537 H         1 <0>         0.0000
     22 H7          5.2662   -4.2779   -6.0024 H         1 <0>         0.0000
     23 H8          2.8814   -0.5900   -2.4093 H         1 <0>         0.0000
     24 H9          2.8404    1.1777   -2.6089 H         1 <0>         0.0000
     25 H10         7.6485   -1.6532   -5.7693 H         1 <0>         0.0000
@<TRIPOS>BOND
     1    1    2 2
     2    1   14 1
     3    1   16 1
     4    2    7 1
     5    2    8 1
     6    3    8 2
     7    3    9 1
     8    3   14 1
     9    4    7 1
    10    4   10 2
    11    4   13 1
    12    5   13 1
    13    5   17 1
    14    5   18 1
    15    5   19 1
    16    6   15 1
    17    6   20 1
    18    6   21 1
    19    6   22 1
    20    7   23 1
    21    7   24 1
    22    9   15 1
    23    9   25 1
    24   11   15 2
    25   12   15 2
