@<TRIPOS>MOLECULE
*****
   30    31     0     0     0
SMALL
NO_CHARGES

@<TRIPOS>ATOM
      1 C1         -4.3082    1.7944   -0.0591 C.ar      1 <0>         0.0000
      2 C2         -3.5277    0.7968    0.5248 C.ar      1 <0>         0.0000
      3 C3         -3.9311    2.1819   -1.3507 C.ar      1 <0>         0.0000
      4 C4         -2.2089    0.6828   -1.3324 C.ar      1 <0>         0.0000
      5 C5          0.5907   -0.4766   -0.3325 C.3       1 <0>         0.0000
      6 C6         -0.9420   -2.2452   -1.3134 C.3       1 <0>         0.0000
      7 C7          1.5270   -1.6225    0.0973 C.3       1 <0>         0.0000
      8 C8          0.0748   -3.2979   -0.8314 C.3       1 <0>         0.0000
      9 C9         -0.2395   -0.8986   -1.5565 C.3       1 <0>         0.0000
     10 C10         0.0491   -2.8863    1.5775 C.3       1 <0>         0.0000
     11 N1         -2.4828    0.2314   -0.0872 N.ar      1 <0>         0.0000
     12 N2         -2.8983    1.6461   -1.9974 N.ar      1 <0>         0.0000
     13 N3          0.8428   -2.8937    0.3497 N.3       1 <0>         0.0000
     14 N4         -1.1568    0.1495   -2.0129 N.pl3     1 <0>         0.0000
     15 H1         -5.1528    2.2411    0.4540 H         1 <0>         0.0000
     16 H2         -3.7458    0.4309    1.5281 H         1 <0>         0.0000
     17 H3         -4.4823    2.9545   -1.8868 H         1 <0>         0.0000
     18 H4         -0.0850   -0.2085    0.4826 H         1 <0>         0.0000
     19 H5          1.1789    0.4158   -0.5781 H         1 <0>         0.0000
     20 H6         -1.4193   -2.5827   -2.2412 H         1 <0>         0.0000
     21 H7         -1.7313   -2.1077   -0.5711 H         1 <0>         0.0000
     22 H8          2.2714   -1.7993   -0.6918 H         1 <0>         0.0000
     23 H9          2.0824   -1.3384    0.9977 H         1 <0>         0.0000
     24 H10        -0.4351   -4.2421   -0.6117 H         1 <0>         0.0000
     25 H11         0.7931   -3.5053   -1.6371 H         1 <0>         0.0000
     26 H12         0.4576   -1.0388   -2.3931 H         1 <0>         0.0000
     27 H13         0.7028   -2.6540    2.4250 H         1 <0>         0.0000
     28 H14        -0.3665   -3.8864    1.7412 H         1 <0>         0.0000
     29 H15        -0.7862   -2.1664    1.5861 H         1 <0>         0.0000
     30 H16        -1.0274    0.5446   -2.9342 H         1 <0>         0.0000
@<TRIPOS>BOND
     1    1    3 ar
     2    1    2 ar
     3    1   15 1
     4    2   11 ar
     5    2   16 1
     6    3   12 ar
     7    3   17 1
     8    4   12 ar
     9    4   11 ar
    10    4   14 1
    11    5    7 1
    12    5    9 1
    13    5   18 1
    14    5   19 1
    15    6    8 1
    16    6    9 1
    17    6   20 1
    18    6   21 1
    19    7   13 1
    20    7   22 1
    21    7   23 1
    22    8   13 1
    23    8   24 1
    24    8   25 1
    25    9   14 1
    26    9   26 1
    27   10   13 1
    28   10   27 1
    29   10   28 1
    30   10   29 1
    31   14   30 1
