@<TRIPOS>MOLECULE
*****
   28    29     0     0     0
SMALL
NO_CHARGES

@<TRIPOS>ATOM
      1 C1          1.8827   -1.0352   -0.1125 C.ar      1 <0>         0.0000
      2 C2          5.4414    0.2288    6.0012 C.ar      1 <0>         0.0000
      3 C3          1.2963    0.0213    0.5844 C.ar      1 <0>         0.0000
      4 C4          2.4277   -2.1134    0.5847 C.ar      1 <0>         0.0000
      5 C5          4.7569   -0.8677    6.5257 C.ar      1 <0>         0.0000
      6 C6          4.9376    0.8965    4.8849 C.ar      1 <0>         0.0000
      7 C7          1.2548   -0.0004    1.9784 C.ar      1 <0>         0.0000
      8 C8          2.3861   -2.1351    1.9788 C.ar      1 <0>         0.0000
      9 C9          3.5687   -1.2962    5.9341 C.ar      1 <0>         0.0000
     10 C10         3.7494    0.4679    4.2933 C.ar      1 <0>         0.0000
     11 C11         1.7997   -1.0786    2.6757 C.ar      1 <0>         0.0000
     12 C12         3.0649   -0.6285    4.8179 C.ar      1 <0>         0.0000
     13 C13         0.5532   -0.3712    4.8192 C.3       1 <0>         0.0000
     14 C14         1.7548   -1.1014    4.1663 C.3       1 <0>         0.0000
     15 H1          1.9163   -1.0178   -1.1979 H         1 <0>         0.0000
     16 H2          6.3673    0.5618    6.4609 H         1 <0>         0.0000
     17 H3          0.8729    0.8615    0.0419 H         1 <0>         0.0000
     18 H4          2.8853   -2.9356    0.0423 H         1 <0>         0.0000
     19 H5          5.1494   -1.3884    7.3941 H         1 <0>         0.0000
     20 H6          5.4710    1.7495    4.4757 H         1 <0>         0.0000
     21 H7          0.7957    0.8271    2.5130 H         1 <0>         0.0000
     22 H8          2.8131   -2.9794    2.5137 H         1 <0>         0.0000
     23 H9          3.0421   -2.1513    6.3497 H         1 <0>         0.0000
     24 H10         3.3642    0.9944    3.4240 H         1 <0>         0.0000
     25 H11         0.5655    0.7025    4.5981 H         1 <0>         0.0000
     26 H12         0.5852   -0.4886    5.9083 H         1 <0>         0.0000
     27 H13        -0.4091   -0.7595    4.4688 H         1 <0>         0.0000
     28 H14         1.6037   -2.1565    4.4759 H         1 <0>         0.0000
@<TRIPOS>BOND
     1    1    4 ar
     2    1    3 ar
     3    1   15 1
     4    2    6 ar
     5    2    5 ar
     6    2   16 1
     7    3    7 ar
     8    3   17 1
     9    4    8 ar
    10    4   18 1
    11    5    9 ar
    12    5   19 1
    13    6   10 ar
    14    6   20 1
    15    7   11 ar
    16    7   21 1
    17    8   11 ar
    18    8   22 1
    19    9   12 ar
    20    9   23 1
    21   10   12 ar
    22   10   24 1
    23   11   14 1
    24   12   14 1
    25   13   14 1
    26   13   25 1
    27   13   26 1
    28   13   27 1
    29   14   28 1
