@<TRIPOS>MOLECULE
*****
   22    21     0     0     0
SMALL
NO_CHARGES

@<TRIPOS>ATOM
      1 C1          2.2768   -2.5653    1.3402 C.2       1 <0>         0.0000
      2 C2          2.1935   -3.0754    2.7406 C.3       1 <0>         0.0000
      3 C3          0.7217   -0.5101   -0.6481 C.3       1 <0>         0.0000
      4 C4          4.4421    2.1909    0.9464 C.3       1 <0>         0.0000
      5 C5          2.6175    0.9235    0.1801 C.3       1 <0>         0.0000
      6 C6          2.1176   -0.5024   -0.0388 C.3       1 <0>         0.0000
      7 N1          2.0779   -1.2047    1.2285 N.am      1 <0>         0.0000
      8 O1          2.5064   -3.3473    0.4250 O.2       1 <0>         0.0000
      9 O2          3.9345    0.8840    0.7177 O.3       1 <0>         0.0000
     10 H1          1.1703   -3.3748    3.0190 H         1 <0>         0.0000
     11 H2          2.8127   -3.9730    2.8987 H         1 <0>         0.0000
     12 H3          2.5098   -2.3645    3.5207 H         1 <0>         0.0000
     13 H4          0.0113    0.0180   -0.0036 H         1 <0>         0.0000
     14 H5          0.3551   -1.5325   -0.7942 H         1 <0>         0.0000
     15 H6          0.7214   -0.0171   -1.6266 H         1 <0>         0.0000
     16 H7          5.4521    2.1234    1.3581 H         1 <0>         0.0000
     17 H8          3.7876    2.7201    1.6436 H         1 <0>         0.0000
     18 H9          4.4733    2.7312   -0.0026 H         1 <0>         0.0000
     19 H10         2.6603    1.4676   -0.7693 H         1 <0>         0.0000
     20 H11         1.9750    1.4760    0.8745 H         1 <0>         0.0000
     21 H12         2.8095   -1.0357   -0.7005 H         1 <0>         0.0000
     22 H13         1.8956   -0.6718    2.0713 H         1 <0>         0.0000
@<TRIPOS>BOND
     1    1    2 1
     2    1    7 am
     3    1    8 2
     4    2   10 1
     5    2   11 1
     6    2   12 1
     7    3    6 1
     8    3   13 1
     9    3   14 1
    10    3   15 1
    11    4    9 1
    12    4   16 1
    13    4   17 1
    14    4   18 1
    15    5    6 1
    16    5    9 1
    17    5   19 1
    18    5   20 1
    19    6    7 1
    20    6   21 1
    21    7   22 1
