@<TRIPOS>MOLECULE
*****
   38    41     0     0     0
SMALL
NO_CHARGES

@<TRIPOS>ATOM
      1 C1          2.2218   -4.8391   -5.6563 C.ar      1 <0>         0.0000
      2 C2          3.0405   -3.6792   -5.6818 C.ar      1 <0>         0.0000
      3 C3          1.4915   -5.1486   -4.5280 C.ar      1 <0>         0.0000
      4 C4          3.1149   -2.8547   -4.5790 C.ar      1 <0>         0.0000
      5 C5          0.8079   -4.5996   -2.1954 C.ar      1 <0>         0.0000
      6 C6          0.8847   -3.7681   -1.0999 C.ar      1 <0>         0.0000
      7 C7          2.4334   -2.3179   -2.2494 C.ar      1 <0>         0.0000
      8 C8          1.5459   -4.3158   -3.3766 C.ar      1 <0>         0.0000
      9 C9          2.3751   -3.1484   -3.3998 C.ar      1 <0>         0.0000
     10 C10         1.7019   -2.6022   -1.1132 C.ar      1 <0>         0.0000
     11 C11         1.1098    0.5215   -0.9475 C.2       1 <0>         0.0000
     12 C12        -1.5653    0.2087    0.4037 C.3       1 <0>         0.0000
     13 C13        -0.8026    0.6014    1.6863 C.3       1 <0>         0.0000
     14 C14        -0.7503   -0.9650   -0.1581 C.3       1 <0>         0.0000
     15 C15         1.5983    1.4725    1.1073 C.3       1 <0>         0.0000
     16 C16         0.6914    0.2710    1.4128 C.3       1 <0>         0.0000
     17 C17         0.7060   -0.5374    0.0880 C.3       1 <0>         0.0000
     18 C18         1.7365   -1.6979    0.0982 C.3       1 <0>         0.0000
     19 O1          1.0125    0.4541   -2.1502 O.2       1 <0>         0.0000
     20 O2          1.6200    1.6270   -0.3302 O.3       1 <0>         0.0000
     21 H1          2.1720   -5.4808   -6.5323 H         1 <0>         0.0000
     22 H2          3.6074   -3.4426   -6.5785 H         1 <0>         0.0000
     23 H3          0.8617   -6.0355   -4.5070 H         1 <0>         0.0000
     24 H4          3.7363   -1.9625   -4.6001 H         1 <0>         0.0000
     25 H5          0.1821   -5.4889   -2.1646 H         1 <0>         0.0000
     26 H6          0.3176   -4.0061   -0.2026 H         1 <0>         0.0000
     27 H7          3.0572   -1.4283   -2.2849 H         1 <0>         0.0000
     28 H8         -2.6096   -0.0519    0.5983 H         1 <0>         0.0000
     29 H9         -1.5644    1.0369   -0.3141 H         1 <0>         0.0000
     30 H10        -0.9532    1.6490    1.9657 H         1 <0>         0.0000
     31 H11        -1.1570   -0.0060    2.5258 H         1 <0>         0.0000
     32 H12        -0.9604   -1.8797    0.4092 H         1 <0>         0.0000
     33 H13        -0.9371   -1.1715   -1.2139 H         1 <0>         0.0000
     34 H14         1.2335    2.4121    1.5289 H         1 <0>         0.0000
     35 H15         2.6281    1.3108    1.4425 H         1 <0>         0.0000
     36 H16         1.1145   -0.3029    2.2414 H         1 <0>         0.0000
     37 H17         1.5313   -2.2909    0.9969 H         1 <0>         0.0000
     38 H18         2.7422   -1.2799    0.2238 H         1 <0>         0.0000
@<TRIPOS>BOND
     1    1    2 ar
     2    1    3 ar
     3    1   21 1
     4    2    4 ar
     5    2   22 1
     6    3    8 ar
     7    3   23 1
     8    4    9 ar
     9    4   24 1
    10    5    6 ar
    11    5    8 ar
    12    5   25 1
    13    6   10 ar
    14    6   26 1
    15    7    9 ar
    16    7   10 ar
    17    7   27 1
    18    8    9 ar
    19   10   18 1
    20   11   17 1
    21   11   19 2
    22   11   20 1
    23   12   13 1
    24   12   14 1
    25   12   28 1
    26   12   29 1
    27   13   16 1
    28   13   30 1
    29   13   31 1
    30   14   17 1
    31   14   32 1
    32   14   33 1
    33   15   16 1
    34   15   20 1
    35   15   34 1
    36   15   35 1
    37   16   17 1
    38   16   36 1
    39   17   18 1
    40   18   37 1
    41   18   38 1
