@<TRIPOS>MOLECULE
*****
   41    42     0     0     0
SMALL
NO_CHARGES

@<TRIPOS>ATOM
      1 C1          4.5319   -2.3865   -6.2003 C.2       1 <0>         0.0000
      2 C2          5.4576   -0.9135   -7.8008 C.2       1 <0>         0.0000
      3 C3          3.8511   -3.1138   -5.0660 C.2       1 <0>         0.0000
      4 C4          5.9029   -5.6452    0.0580 C.3       1 <0>         0.0000
      5 C5          4.4848   -6.1060   -0.3056 C.3       1 <0>         0.0000
      6 C6          6.5998   -4.9939   -1.1443 C.3       1 <0>         0.0000
      7 C7          3.6519   -4.9543   -0.8861 C.3       1 <0>         0.0000
      8 C8          5.7630   -3.8439   -1.7235 C.3       1 <0>         0.0000
      9 C9          4.3430   -4.3010   -2.0936 C.3       1 <0>         0.0000
     10 C10         5.3925    1.1776  -11.3401 C.3       1 <0>         0.0000
     11 C11         3.4947    0.2703   -9.8973 C.3       1 <0>         0.0000
     12 C12         3.4822   -3.1487   -2.6308 C.3       1 <0>         0.0000
     13 C13         4.9672    0.1641  -10.2766 C.3       1 <0>         0.0000
     14 N1          5.0890   -3.0196   -7.2006 N.2       1 <0>         0.0000
     15 N2          5.6328   -2.1621   -8.1212 N.2       1 <0>         0.0000
     16 N3          4.0136   -2.5255   -3.8435 N.am      1 <0>         0.0000
     17 O1          3.1871   -4.1230   -5.2650 O.2       1 <0>         0.0000
     18 O2          5.5130    1.7199   -8.0742 O.2       1 <0>         0.0000
     19 S1          4.6096   -0.6377   -6.3068 S.3       1 <0>         0.0000
     20 S2          6.0555    0.4921   -8.7836 S.o       1 <0>         0.0000
     21 H1          6.4945   -6.4916    0.4261 H         1 <0>         0.0000
     22 H2          5.8475   -4.9188    0.8810 H         1 <0>         0.0000
     23 H3          4.5455   -6.9143   -1.0468 H         1 <0>         0.0000
     24 H4          3.9826   -6.5243    0.5745 H         1 <0>         0.0000
     25 H5          7.5924   -4.6272   -0.8577 H         1 <0>         0.0000
     26 H6          6.7576   -5.7501   -1.9251 H         1 <0>         0.0000
     27 H7          2.6587   -5.3167   -1.1778 H         1 <0>         0.0000
     28 H8          3.4941   -4.1944   -0.1063 H         1 <0>         0.0000
     29 H9          5.6975   -3.0344   -0.9805 H         1 <0>         0.0000
     30 H10         6.2698   -3.4290   -2.6034 H         1 <0>         0.0000
     31 H11         4.4166   -5.0502   -2.8924 H         1 <0>         0.0000
     32 H12         5.1911    2.1999  -11.0057 H         1 <0>         0.0000
     33 H13         6.4564    1.0930  -11.5831 H         1 <0>         0.0000
     34 H14         4.8216    1.0024  -12.2574 H         1 <0>         0.0000
     35 H15         3.2982    1.2229   -9.3964 H         1 <0>         0.0000
     36 H16         3.1817   -0.5446   -9.2397 H         1 <0>         0.0000
     37 H17         2.8818    0.2257  -10.8034 H         1 <0>         0.0000
     38 H18         3.3828   -2.3627   -1.8740 H         1 <0>         0.0000
     39 H19         2.4806   -3.5145   -2.8693 H         1 <0>         0.0000
     40 H20         5.2396   -0.8549  -10.5711 H         1 <0>         0.0000
     41 H21         4.7369   -1.8254   -3.7407 H         1 <0>         0.0000
@<TRIPOS>BOND
     1    1    3 1
     2    1   14 2
     3    1   19 1
     4    2   15 2
     5    2   19 1
     6    2   20 1
     7    3   16 am
     8    3   17 2
     9    4    6 1
    10    4    5 1
    11    4   21 1
    12    4   22 1
    13    5    7 1
    14    5   23 1
    15    5   24 1
    16    6    8 1
    17    6   25 1
    18    6   26 1
    19    7    9 1
    20    7   27 1
    21    7   28 1
    22    8    9 1
    23    8   29 1
    24    8   30 1
    25    9   12 1
    26    9   31 1
    27   10   13 1
    28   10   32 1
    29   10   33 1
    30   10   34 1
    31   11   13 1
    32   11   35 1
    33   11   36 1
    34   11   37 1
    35   12   16 1
    36   12   38 1
    37   12   39 1
    38   13   20 1
    39   13   40 1
    40   14   15 1
    41   16   41 1
    42   18   20 2
