@<TRIPOS>MOLECULE
*****
   26    27     0     0     0
SMALL
NO_CHARGES

@<TRIPOS>ATOM
      1 C1          4.8400    1.9070    1.0200 C.2       1 <0>         0.0000
      2 C2          5.2630    1.4080   -0.1620 C.2       1 <0>         0.0000
      3 C3          3.5320    0.2960    0.5680 C.2       1 <0>         0.0000
      4 C4          0.9140   -0.6330   -1.3870 C.2       1 <0>         0.0000
      5 C5          2.7480   -2.1890    0.7060 C.3       1 <0>         0.0000
      6 C6          2.1820   -1.4360    1.8940 C.3       1 <0>         0.0000
      7 C7          2.4120   -0.7350    0.5940 C.3       1 <0>         0.0000
      8 C8         -0.3330   -0.0190   -1.9910 C.3       1 <0>         0.0000
      9 C9          4.5070   -0.4100   -1.6680 C.3       1 <0>         0.0000
     10 N1          3.7610    1.2150    1.4680 N.2       1 <0>         0.0000
     11 N2          4.4370    0.3870   -0.4510 N.pl3     1 <0>         0.0000
     12 N3          1.2020   -0.3340   -0.0990 N.am      1 <0>         0.0000
     13 O1          1.6340   -1.3680   -2.0500 O.2       1 <0>         0.0000
     14 H1          5.2750    2.7240    1.5390 H         1 <0>         0.0000
     15 H2          6.0620    1.7020   -0.7920 H         1 <0>         0.0000
     16 H3          3.7980   -2.4410    0.7550 H         1 <0>         0.0000
     17 H4          2.0850   -2.8760    0.2000 H         1 <0>         0.0000
     18 H5          1.1580   -1.6530    2.1600 H         1 <0>         0.0000
     19 H6          2.8720   -1.1970    2.6930 H         1 <0>         0.0000
     20 H7         -1.2010   -0.3190   -1.4060 H         1 <0>         0.0000
     21 H8         -0.4450   -0.3700   -3.0160 H         1 <0>         0.0000
     22 H9         -0.2410    1.0660   -1.9830 H         1 <0>         0.0000
     23 H10         4.2310   -1.4250   -1.4240 H         1 <0>         0.0000
     24 H11         5.5220   -0.3590   -2.0350 H         1 <0>         0.0000
     25 H12         3.8090    0.0250   -2.3700 H         1 <0>         0.0000
     26 H13         0.6290    0.3680    0.3810 H         1 <0>         0.0000
@<TRIPOS>BOND
     1    1    2 2
     2    1   10 1
     3    1   14 1
     4    2   11 1
     5    2   15 1
     6    3    7 1
     7    3   10 2
     8    3   11 1
     9    4    8 1
    10    4   12 am
    11    4   13 2
    12    5    6 1
    13    5    7 1
    14    5   16 1
    15    5   17 1
    16    6    7 1
    17    6   18 1
    18    6   19 1
    19    7   12 1
    20    8   20 1
    21    8   21 1
    22    8   22 1
    23    9   11 1
    24    9   23 1
    25    9   24 1
    26    9   25 1
    27   12   26 1
