@<TRIPOS>MOLECULE
*****
   68    70     0     0     0
SMALL
NO_CHARGES

@<TRIPOS>ATOM
      1 C1         -9.5333   -1.6400    6.9490 C.1       1 <0>         0.0000
      2 C2         -7.1958   -1.1556    6.4538 C.ar      1 <0>         0.0000
      3 C3         -5.8326   -1.3617    6.6447 C.ar      1 <0>         0.0000
      4 C4         -6.3314   -3.0756    8.2879 C.ar      1 <0>         0.0000
      5 C5         -8.1392   -1.9002    7.1792 C.ar      1 <0>         0.0000
      6 C6         -7.6942   -2.8649    8.1061 C.ar      1 <0>         0.0000
      7 C7         -5.4037   -2.3285    7.5563 C.ar      1 <0>         0.0000
      8 C8         -3.4364   -2.5295    9.0470 C.2       1 <0>         0.0000
      9 C9         -3.0524   -2.8133    6.7719 C.2       1 <0>         0.0000
     10 C10        -2.0549    1.3051    0.4096 C.2       1 <0>         0.0000
     11 C11        -1.8646   -0.3719    2.1954 C.3       1 <0>         0.0000
     12 C12        -0.7052    1.7565    2.4966 C.3       1 <0>         0.0000
     13 C13        -0.6014   -1.1045    2.6374 C.3       1 <0>         0.0000
     14 C14         0.5426    0.9865    2.9340 C.3       1 <0>         0.0000
     15 C15        -1.9437   -2.7949    8.8545 C.3       1 <0>         0.0000
     16 C16        -1.5628   -4.0915    9.5874 C.3       1 <0>         0.0000
     17 C17        -1.1349   -1.5952    9.3689 C.3       1 <0>         0.0000
     18 C18        -1.9559    4.3899   -1.9874 C.3       1 <0>         0.0000
     19 C19        -1.6907    2.6952   -0.1153 C.3       1 <0>         0.0000
     20 C20        -2.3309    2.9964   -1.4723 C.3       1 <0>         0.0000
     21 C21        -0.0675   -1.8962    6.0173 C.3       1 <0>         0.0000
     22 C22         0.9917   -2.1965    4.9529 C.3       1 <0>         0.0000
     23 C23        -0.6123   -3.1723    6.6697 C.3       1 <0>         0.0000
     24 C24         1.3489   -0.9652    4.1091 C.3       1 <0>         0.0000
     25 C25        -8.6910   -3.6804    8.9002 C.3       1 <0>         0.0000
     26 N1        -10.6501   -1.3929    6.7311 N.1       1 <0>         0.0000
     27 N2         -4.0155   -2.5459    7.7792 N.am      1 <0>         0.0000
     28 N3         -1.8598   -2.9426    7.3956 N.pl3     1 <0>         0.0000
     29 N4         -1.5304    0.9311    1.6239 N.am      1 <0>         0.0000
     30 N5          0.1756   -0.2777    3.5674 N.3       1 <0>         0.0000
     31 O1         -4.0083   -2.3420   10.1029 O.2       1 <0>         0.0000
     32 O2         -2.7851    0.5509   -0.2372 O.2       1 <0>         0.0000
     33 F1         -8.0753   -4.5580    9.7261 F         1 <0>         0.0000
     34 F2         -9.4800   -2.8933    9.6675 F         1 <0>         0.0000
     35 F3         -9.5044   -4.3971    8.0896 F         1 <0>         0.0000
     36 S1         -3.3666   -2.9641    5.1477 S.2       1 <0>         0.0000
     37 H1         -7.5412   -0.4109    5.7445 H         1 <0>         0.0000
     38 H2         -5.1080   -0.7829    6.0851 H         1 <0>         0.0000
     39 H3         -5.9892   -3.8145    9.0010 H         1 <0>         0.0000
     40 H4         -2.4031   -0.9446    1.4416 H         1 <0>         0.0000
     41 H5         -2.5215   -0.2346    3.0651 H         1 <0>         0.0000
     42 H6         -1.2823    2.0360    3.3899 H         1 <0>         0.0000
     43 H7         -0.4060    2.6717    1.9887 H         1 <0>         0.0000
     44 H8         -0.9070   -2.0264    3.1372 H         1 <0>         0.0000
     45 H9         -0.0023   -1.3792    1.7481 H         1 <0>         0.0000
     46 H10         1.1940    0.8281    2.0520 H         1 <0>         0.0000
     47 H11         1.1008    1.5940    3.6552 H         1 <0>         0.0000
     48 H12        -0.4921   -4.2908    9.4890 H         1 <0>         0.0000
     49 H13        -2.1157   -4.9443    9.1837 H         1 <0>         0.0000
     50 H14        -1.8004   -3.9885   10.6490 H         1 <0>         0.0000
     51 H15        -0.0634   -1.7789    9.2487 H         1 <0>         0.0000
     52 H16        -1.3472   -1.4449   10.4302 H         1 <0>         0.0000
     53 H17        -1.3966   -0.6838    8.8249 H         1 <0>         0.0000
     54 H18        -0.8712    4.4929   -2.1126 H         1 <0>         0.0000
     55 H19        -2.2846    5.1753   -1.2960 H         1 <0>         0.0000
     56 H20        -2.4212    4.5885   -2.9586 H         1 <0>         0.0000
     57 H21        -0.5989    2.7789   -0.1947 H         1 <0>         0.0000
     58 H22        -1.9994    3.4523    0.6173 H         1 <0>         0.0000
     59 H23        -3.4176    2.9037   -1.3845 H         1 <0>         0.0000
     60 H24        -2.0240    2.2307   -2.1911 H         1 <0>         0.0000
     61 H25        -0.8963   -1.3665    5.5450 H         1 <0>         0.0000
     62 H26         0.3416   -1.2248    6.7814 H         1 <0>         0.0000
     63 H27         1.9140   -2.5720    5.4136 H         1 <0>         0.0000
     64 H28         0.6320   -3.0013    4.3019 H         1 <0>         0.0000
     65 H29         0.1067   -3.6042    7.3709 H         1 <0>         0.0000
     66 H30        -0.8157   -3.9235    5.9016 H         1 <0>         0.0000
     67 H31         1.8844   -0.2436    4.7382 H         1 <0>         0.0000
     68 H32         2.0489   -1.2701    3.3074 H         1 <0>         0.0000
@<TRIPOS>BOND
     1    1    5 1
     2    1   26 3
     3    2    3 ar
     4    2    5 ar
     5    2   37 1
     6    3    7 ar
     7    3   38 1
     8    4    6 ar
     9    4    7 ar
    10    4   39 1
    11    5    6 ar
    12    6   25 1
    13    7   27 1
    14    8   15 1
    15    8   27 am
    16    8   31 2
    17    9   27 1
    18    9   28 1
    19    9   36 2
    20   10   19 1
    21   10   29 am
    22   10   32 2
    23   11   13 1
    24   11   29 1
    25   11   40 1
    26   11   41 1
    27   12   14 1
    28   12   29 1
    29   12   42 1
    30   12   43 1
    31   13   30 1
    32   13   44 1
    33   13   45 1
    34   14   30 1
    35   14   46 1
    36   14   47 1
    37   15   16 1
    38   15   17 1
    39   15   28 1
    40   16   48 1
    41   16   49 1
    42   16   50 1
    43   17   51 1
    44   17   52 1
    45   17   53 1
    46   18   20 1
    47   18   54 1
    48   18   55 1
    49   18   56 1
    50   19   20 1
    51   19   57 1
    52   19   58 1
    53   20   59 1
    54   20   60 1
    55   21   22 1
    56   21   23 1
    57   21   61 1
    58   21   62 1
    59   22   24 1
    60   22   63 1
    61   22   64 1
    62   23   28 1
    63   23   65 1
    64   23   66 1
    65   24   30 1
    66   24   67 1
    67   24   68 1
    68   25   33 1
    69   25   34 1
    70   25   35 1
