@<TRIPOS>MOLECULE
*****
   44    46     0     0     0
SMALL
NO_CHARGES

@<TRIPOS>ATOM
      1 C1          1.9526    0.1041    7.6913 C.ar      1 <0>         0.0000
      2 C2         -2.9516    4.3608    5.7798 C.ar      1 <0>         0.0000
      3 C3          1.6454    1.3141    7.0690 C.ar      1 <0>         0.0000
      4 C4          1.4669   -1.0933    7.1661 C.ar      1 <0>         0.0000
      5 C5         -3.1517    3.0234    6.1220 C.ar      1 <0>         0.0000
      6 C6         -2.0981    4.6912    4.7272 C.ar      1 <0>         0.0000
      7 C7          0.8527    1.3266    5.9214 C.ar      1 <0>         0.0000
      8 C8          0.6741   -1.0808    6.0185 C.ar      1 <0>         0.0000
      9 C9         -2.4983    2.0164    5.4114 C.ar      1 <0>         0.0000
     10 C10        -1.4447    3.6843    4.0167 C.ar      1 <0>         0.0000
     11 C11         0.3670    0.1292    5.3961 C.ar      1 <0>         0.0000
     12 C12        -1.6448    2.3469    4.3588 C.ar      1 <0>         0.0000
     13 C13        -0.4643   -0.9226    3.3064 C.2       1 <0>         0.0000
     14 C14        -1.1574    1.1373    2.2500 C.2       1 <0>         0.0000
     15 C15        -0.8438   -0.3155    1.9738 C.3       1 <0>         0.0000
     16 C16         3.8933    0.9792    0.8387 C.3       1 <0>         0.0000
     17 C17         0.2863   -0.4376    0.9630 C.3       1 <0>         0.0000
     18 C18         2.6587    0.2109    0.3947 C.3       1 <0>         0.0000
     19 C19         1.5370    0.3076    1.4284 C.3       1 <0>         0.0000
     20 N1         -0.4447    0.1417    4.2213 N.am      1 <0>         0.0000
     21 N2         -0.9757    1.3161    3.6313 N.am      1 <0>         0.0000
     22 O1         -0.1624   -2.0971    3.4575 O.2       1 <0>         0.0000
     23 O2         -1.5884    1.9126    1.4088 O.2       1 <0>         0.0000
     24 O3         -2.0147   -0.9369    1.4977 O.3       1 <0>         0.0000
     25 H1          2.5692    0.0948    8.5854 H         1 <0>         0.0000
     26 H2         -3.4599    5.1446    6.3338 H         1 <0>         0.0000
     27 H3          2.0229    2.2465    7.4788 H         1 <0>         0.0000
     28 H4          1.7051   -2.0355    7.6509 H         1 <0>         0.0000
     29 H5         -3.8156    2.7665    6.9423 H         1 <0>         0.0000
     30 H6         -1.9414    5.7324    4.4611 H         1 <0>         0.0000
     31 H7          0.6197    2.2757    5.4449 H         1 <0>         0.0000
     32 H8          0.3012   -2.0203    5.6183 H         1 <0>         0.0000
     33 H9         -2.6619    0.9776    5.6871 H         1 <0>         0.0000
     34 H10        -0.7818    3.9538    3.1984 H         1 <0>         0.0000
     35 H11         3.6585    2.0348    1.0085 H         1 <0>         0.0000
     36 H12         4.6710    0.9236    0.0706 H         1 <0>         0.0000
     37 H13         4.3012    0.5642    1.7658 H         1 <0>         0.0000
     38 H14         0.5195   -1.4978    0.8108 H         1 <0>         0.0000
     39 H15        -0.0488   -0.0373   -0.0009 H         1 <0>         0.0000
     40 H16         2.9275   -0.8396    0.2337 H         1 <0>         0.0000
     41 H17         2.3142    0.6088   -0.5670 H         1 <0>         0.0000
     42 H18         1.8799   -0.1100    2.3830 H         1 <0>         0.0000
     43 H19         1.2918    1.3617    1.6069 H         1 <0>         0.0000
     44 H20        -2.7166   -0.7831    2.1562 H         1 <0>         0.0000
@<TRIPOS>BOND
     1    1    4 ar
     2    1    3 ar
     3    1   25 1
     4    2    6 ar
     5    2    5 ar
     6    2   26 1
     7    3    7 ar
     8    3   27 1
     9    4    8 ar
    10    4   28 1
    11    5    9 ar
    12    5   29 1
    13    6   10 ar
    14    6   30 1
    15    7   11 ar
    16    7   31 1
    17    8   11 ar
    18    8   32 1
    19    9   12 ar
    20    9   33 1
    21   10   12 ar
    22   10   34 1
    23   11   20 1
    24   12   21 1
    25   13   15 1
    26   13   20 am
    27   13   22 2
    28   14   15 1
    29   14   21 am
    30   14   23 2
    31   15   17 1
    32   15   24 1
    33   16   18 1
    34   16   35 1
    35   16   36 1
    36   16   37 1
    37   17   19 1
    38   17   38 1
    39   17   39 1
    40   18   19 1
    41   18   40 1
    42   18   41 1
    43   19   42 1
    44   19   43 1
    45   20   21 1
    46   24   44 1
