@<TRIPOS>MOLECULE
*****
   25    25     0     0     0
SMALL
NO_CHARGES

@<TRIPOS>ATOM
      1 C1          0.7687    8.9253    1.0674 C.2       1 <0>         0.0000
      2 C2          0.3697    6.9583   -0.1434 C.2       1 <0>         0.0000
      3 C3          0.7363   10.1577    1.9217 C.2       1 <0>         0.0000
      4 C4          0.6989    0.3835    0.1258 C.3       1 <0>         0.0000
      5 C5          1.0621    1.8228    0.5067 C.3       1 <0>         0.0000
      6 C6          0.3117    2.8592   -0.3421 C.3       1 <0>         0.0000
      7 C7          0.6830    4.2864    0.0512 C.3       1 <0>         0.0000
      8 N1          1.8294    8.5222    0.4117 N.2       1 <0>         0.0000
      9 N2          1.5957    7.3781   -0.3017 N.2       1 <0>         0.0000
     10 N3          1.9179   10.8262    1.9637 N.am      1 <0>         0.0000
     11 O1         -0.2880   10.4887    2.5122 O.2       1 <0>         0.0000
     12 O2         -1.7408    5.3867   -0.4901 O.2       1 <0>         0.0000
     13 S1         -0.6442    7.9298    0.8815 S.3       1 <0>         0.0000
     14 S2         -0.3036    5.4800   -0.9622 S.o       1 <0>         0.0000
     15 H1          0.9443    0.1775   -0.9222 H         1 <0>         0.0000
     16 H2          1.2428   -0.3378    0.7443 H         1 <0>         0.0000
     17 H3         -0.3727    0.1986    0.2592 H         1 <0>         0.0000
     18 H4          0.8337    1.9915    1.5666 H         1 <0>         0.0000
     19 H5          2.1436    1.9725    0.3952 H         1 <0>         0.0000
     20 H6          0.5388    2.6968   -1.4035 H         1 <0>         0.0000
     21 H7         -0.7684    2.7218   -0.2207 H         1 <0>         0.0000
     22 H8          0.4418    4.4979    1.0975 H         1 <0>         0.0000
     23 H9          1.7355    4.5192   -0.1384 H         1 <0>         0.0000
     24 H10         1.9737   11.6808    2.5018 H         1 <0>         0.0000
     25 H11         2.7127   10.4994    1.4279 H         1 <0>         0.0000
@<TRIPOS>BOND
     1    1    3 1
     2    1    8 2
     3    1   13 1
     4    2    9 2
     5    2   13 1
     6    2   14 1
     7    3   10 am
     8    3   11 2
     9    4    5 1
    10    4   15 1
    11    4   16 1
    12    4   17 1
    13    5    6 1
    14    5   18 1
    15    5   19 1
    16    6    7 1
    17    6   20 1
    18    6   21 1
    19    7   14 1
    20    7   22 1
    21    7   23 1
    22    8    9 1
    23   10   24 1
    24   10   25 1
    25   12   14 2
