@<TRIPOS>MOLECULE
*****
   40    40     0     0     0
SMALL
NO_CHARGES

@<TRIPOS>ATOM
      1 C1          9.5088   -2.4845   -0.6051 C.2       1 <0>         0.0000
      2 C2          7.6971   -1.8792    0.7561 C.2       1 <0>         0.0000
      3 C3         10.5002   -3.1190   -1.5344 C.2       1 <0>         0.0000
      4 C4          1.1989    2.2959   -0.1244 C.3       1 <0>         0.0000
      5 C5         12.4092   -0.8635   -4.1468 C.3       1 <0>         0.0000
      6 C6         13.5906   -2.9671   -4.9256 C.3       1 <0>         0.0000
      7 C7          1.8969    1.2553    0.7579 C.3       1 <0>         0.0000
      8 C8          3.3179    0.9288    0.2825 C.3       1 <0>         0.0000
      9 C9          4.0118   -0.1193    1.1632 C.3       1 <0>         0.0000
     10 C10        12.7104   -2.8407   -2.5790 C.3       1 <0>         0.0000
     11 C11         5.4203   -0.4329    0.6661 C.3       1 <0>         0.0000
     12 C12        12.4841   -2.3910   -4.0333 C.3       1 <0>         0.0000
     13 N1          9.6882   -1.3228   -0.0257 N.2       1 <0>         0.0000
     14 N2          8.6348   -0.9718    0.7756 N.2       1 <0>         0.0000
     15 N3         11.6533   -2.4214   -1.6647 N.am      1 <0>         0.0000
     16 O1         10.2397   -4.1839   -2.0967 O.2       1 <0>         0.0000
     17 O2          5.4045   -3.0395    1.4200 O.2       1 <0>         0.0000
     18 S1          8.0066   -3.2768   -0.2317 S.3       1 <0>         0.0000
     19 S2          6.1608   -1.7608    1.7217 S.o       1 <0>         0.0000
     20 H1          1.7548    3.2405   -0.1379 H         1 <0>         0.0000
     21 H2          1.1163    1.9450   -1.1595 H         1 <0>         0.0000
     22 H3          0.1875    2.5094    0.2368 H         1 <0>         0.0000
     23 H4         13.3495   -0.3988   -3.8229 H         1 <0>         0.0000
     24 H5         12.2290   -0.5572   -5.1825 H         1 <0>         0.0000
     25 H6         11.5988   -0.4520   -3.5359 H         1 <0>         0.0000
     26 H7         14.5754   -2.5844   -4.6297 H         1 <0>         0.0000
     27 H8         13.4302   -2.6919   -5.9731 H         1 <0>         0.0000
     28 H9         13.6225   -4.0606   -4.8676 H         1 <0>         0.0000
     29 H10         1.3032    0.3325    0.7785 H         1 <0>         0.0000
     30 H11         1.9362    1.6180    1.7932 H         1 <0>         0.0000
     31 H12         3.9165    1.8495    0.2633 H         1 <0>         0.0000
     32 H13         3.2793    0.5641   -0.7527 H         1 <0>         0.0000
     33 H14         3.4216   -1.0421    1.1716 H         1 <0>         0.0000
     34 H15         4.0572    0.2426    2.1982 H         1 <0>         0.0000
     35 H16        12.7695   -3.9312   -2.5350 H         1 <0>         0.0000
     36 H17        13.6561   -2.4356   -2.2020 H         1 <0>         0.0000
     37 H18         6.0963    0.4255    0.7309 H         1 <0>         0.0000
     38 H19         5.4146   -0.8207   -0.3573 H         1 <0>         0.0000
     39 H20        11.5246   -2.8147   -4.3531 H         1 <0>         0.0000
     40 H21        11.7140   -1.5357   -1.1754 H         1 <0>         0.0000
@<TRIPOS>BOND
     1    1    3 1
     2    1   13 2
     3    1   18 1
     4    2   14 2
     5    2   18 1
     6    2   19 1
     7    3   15 am
     8    3   16 2
     9    4    7 1
    10    4   20 1
    11    4   21 1
    12    4   22 1
    13    5   12 1
    14    5   23 1
    15    5   24 1
    16    5   25 1
    17    6   12 1
    18    6   26 1
    19    6   27 1
    20    6   28 1
    21    7    8 1
    22    7   29 1
    23    7   30 1
    24    8    9 1
    25    8   31 1
    26    8   32 1
    27    9   11 1
    28    9   33 1
    29    9   34 1
    30   10   12 1
    31   10   15 1
    32   10   35 1
    33   10   36 1
    34   11   19 1
    35   11   37 1
    36   11   38 1
    37   12   39 1
    38   13   14 1
    39   15   40 1
    40   17   19 2
