@<TRIPOS>MOLECULE
*****
   36    36     0     0     0
SMALL
NO_CHARGES

@<TRIPOS>ATOM
      1 C1          0.0321   -0.0797    2.4767 C.3       1 <0>         0.0000
      2 C2         -0.1694   -0.5002    0.9995 C.3       1 <0>         0.0000
      3 C3          1.4016   -0.6624    2.8946 C.3       1 <0>         0.0000
      4 C4          0.7100   -1.7477    0.8226 C.3       1 <0>         0.0000
      5 C5          0.0107   -3.0163    1.3386 C.3       1 <0>         0.0000
      6 C6          3.5423   -6.4518    3.7207 C.3       1 <0>         0.0000
      7 C7          3.9628   -7.9264    3.7796 C.3       1 <0>         0.0000
      8 C8          0.7550   -4.3579    1.2477 C.3       1 <0>         0.0000
      9 C9          2.4530   -6.2593    2.6611 C.3       1 <0>         0.0000
     10 C10         5.0610   -8.1584    4.8017 C.3       1 <0>         0.0000
     11 N1          1.9284   -1.3454    1.6433 N.4       1 <0>         0.0000
     12 O1          1.2621   -4.1453    3.8600 O.2       1 <0>         0.0000
     13 O2          3.1428   -3.7093    2.2143 O.2       1 <0>         0.0000
     14 F1          5.4163   -9.4592    4.8423 F         1 <0>         0.0000
     15 F2          6.1718   -7.4370    4.5091 F         1 <0>         0.0000
     16 F3          4.6656   -7.7997    6.0475 F         1 <0>         0.0000
     17 S1          1.9521   -4.5208    2.6155 S.o2      1 <0>         0.0000
     18 H1          0.0092    1.0055    2.5845 H         1 <0>         0.0000
     19 H2         -0.7545   -0.4859    3.1150 H         1 <0>         0.0000
     20 H3         -1.2139   -0.7038    0.7584 H         1 <0>         0.0000
     21 H4          0.1719    0.2885    0.3217 H         1 <0>         0.0000
     22 H5          2.1321    0.0821    3.2104 H         1 <0>         0.0000
     23 H6          1.3257   -1.4293    3.6658 H         1 <0>         0.0000
     24 H7          1.0482   -1.8951   -0.2062 H         1 <0>         0.0000
     25 H8         -0.8846   -3.1168    0.7175 H         1 <0>         0.0000
     26 H9         -0.3481   -2.8770    2.3623 H         1 <0>         0.0000
     27 H10         3.1647   -6.1362    4.6965 H         1 <0>         0.0000
     28 H11         4.4053   -5.8286    3.4747 H         1 <0>         0.0000
     29 H12         3.1228   -8.5692    4.0580 H         1 <0>         0.0000
     30 H13         4.3457   -8.2707    2.8145 H         1 <0>         0.0000
     31 H14         0.0400   -5.1773    1.3619 H         1 <0>         0.0000
     32 H15         1.3085   -4.4891    0.3143 H         1 <0>         0.0000
     33 H16         2.8029   -6.5062    1.6542 H         1 <0>         0.0000
     34 H17         1.5457   -6.8262    2.8899 H         1 <0>         0.0000
     35 H18         2.4770   -0.6783    1.0931 H         1 <0>         0.0000
     36 H19         2.5589   -2.1559    1.8677 H         1 <0>         0.0000
@<TRIPOS>BOND
     1    1    2 1
     2    1    3 1
     3    1   18 1
     4    1   19 1
     5    2    4 1
     6    2   20 1
     7    2   21 1
     8    3   11 1
     9    3   22 1
    10    3   23 1
    11    4    5 1
    12    4   11 1
    13    4   24 1
    14    5    8 1
    15    5   25 1
    16    5   26 1
    17    6    7 1
    18    6    9 1
    19    6   27 1
    20    6   28 1
    21    7   10 1
    22    7   29 1
    23    7   30 1
    24    8   17 1
    25    8   31 1
    26    8   32 1
    27    9   17 1
    28    9   33 1
    29    9   34 1
    30   10   14 1
    31   10   15 1
    32   10   16 1
    33   11   35 1
    34   11   36 1
    35   12   17 2
    36   13   17 2
