@<TRIPOS>MOLECULE
*****
   34    34     0     0     0
SMALL
NO_CHARGES

@<TRIPOS>ATOM
      1 C1          2.7933    0.4913   -1.4141 C.ar      1 <0>         0.0000
      2 C2          0.5359   -0.3323   -1.4465 C.ar      1 <0>         0.0000
      3 C3          3.1306   -0.5761   -0.5724 C.ar      1 <0>         0.0000
      4 C4          1.4764    0.6218   -1.8668 C.ar      1 <0>         0.0000
      5 C5          2.1149   -1.4840   -0.2199 C.ar      1 <0>         0.0000
      6 C6          4.5444   -0.7340   -0.0660 C.3       1 <0>         0.0000
      7 C7          0.0944    3.6459   -6.2988 C.3       1 <0>         0.0000
      8 C8          1.8133    0.8633   -6.2711 C.3       1 <0>         0.0000
      9 C9          2.3895   -2.6685    0.6729 C.3       1 <0>         0.0000
     10 C10         1.2520    3.4619   -4.1840 C.3       1 <0>         0.0000
     11 C11         1.9605    2.5484   -3.2008 C.3       1 <0>         0.0000
     12 N1          0.8479   -1.3534   -0.6510 N.ar      1 <0>         0.0000
     13 N2          0.7723    2.7473   -5.3667 N.3       1 <0>         0.0000
     14 O1          3.2889   -3.5689   -0.0013 O.3       1 <0>         0.0000
     15 O2          1.0154    1.6073   -2.6883 O.3       1 <0>         0.0000
     16 O3          1.9568    2.2675   -6.0533 O.3       1 <0>         0.0000
     17 H1          3.5599    1.2042   -1.6998 H         1 <0>         0.0000
     18 H2         -0.4957   -0.2463   -1.7833 H         1 <0>         0.0000
     19 H3          4.5734   -0.7324    1.0301 H         1 <0>         0.0000
     20 H4          4.9702   -1.6849   -0.3954 H         1 <0>         0.0000
     21 H5          5.1822    0.0814   -0.4183 H         1 <0>         0.0000
     22 H6         -0.2022    3.0808   -7.1855 H         1 <0>         0.0000
     23 H7          0.7270    4.4928   -6.6093 H         1 <0>         0.0000
     24 H8         -0.8094    4.0281   -5.8141 H         1 <0>         0.0000
     25 H9          2.7309    0.5474   -6.7756 H         1 <0>         0.0000
     26 H10         0.9494    0.6474   -6.9118 H         1 <0>         0.0000
     27 H11         1.6984    0.3245   -5.3239 H         1 <0>         0.0000
     28 H12         2.8373   -2.3348    1.6219 H         1 <0>         0.0000
     29 H13         1.4319   -3.1545    0.8879 H         1 <0>         0.0000
     30 H14         0.3777    3.9104   -3.7015 H         1 <0>         0.0000
     31 H15         1.9482    4.2733   -4.4585 H         1 <0>         0.0000
     32 H16         2.3748    3.1499   -2.3800 H         1 <0>         0.0000
     33 H17         2.7836    2.0286   -3.7028 H         1 <0>         0.0000
     34 H18         3.4532   -4.3199    0.5902 H         1 <0>         0.0000
@<TRIPOS>BOND
     1    1    3 ar
     2    1    4 ar
     3    1   17 1
     4    2    4 ar
     5    2   12 ar
     6    2   18 1
     7    3    5 ar
     8    3    6 1
     9    4   15 1
    10    5    9 1
    11    5   12 ar
    12    6   19 1
    13    6   20 1
    14    6   21 1
    15    7   13 1
    16    7   22 1
    17    7   23 1
    18    7   24 1
    19    8   16 1
    20    8   25 1
    21    8   26 1
    22    8   27 1
    23    9   14 1
    24    9   28 1
    25    9   29 1
    26   10   11 1
    27   10   13 1
    28   10   30 1
    29   10   31 1
    30   11   15 1
    31   11   32 1
    32   11   33 1
    33   13   16 1
    34   14   34 1
