@<TRIPOS>MOLECULE
*****
   57    60     0     0     0
SMALL
NO_CHARGES

@<TRIPOS>ATOM
      1 C1          1.4580    1.8513   -0.4885 C.ar      1 <0>         0.0000
      2 C2         -0.5826    1.0143   -1.5066 C.ar      1 <0>         0.0000
      3 C3         -2.8753   -7.3417    8.3443 C.ar      1 <0>         0.0000
      4 C4         -2.2197   -6.5062    7.4240 C.ar      1 <0>         0.0000
      5 C5          1.2560    3.0918   -1.0884 C.ar      1 <0>         0.0000
      6 C6         -0.7945    2.2431   -2.1180 C.ar      1 <0>         0.0000
      7 C7         -1.6500   -4.9703    9.2300 C.ar      1 <0>         0.0000
      8 C8          0.5439    0.7971   -0.6855 C.ar      1 <0>         0.0000
      9 C9         -2.9129   -6.9976    9.6904 C.ar      1 <0>         0.0000
     10 C10        -2.2978   -5.8106   10.1277 C.ar      1 <0>         0.0000
     11 C11        -1.6136   -5.3289    7.8747 C.ar      1 <0>         0.0000
     12 C12         0.1321    3.2640   -1.8953 C.ar      1 <0>         0.0000
     13 C13         0.6907   -0.5362   -0.0584 C.2       1 <0>         0.0000
     14 C14        -3.5612   -7.7163   10.8560 C.3       1 <0>         0.0000
     15 C15        -2.4863   -5.6411   11.6208 C.3       1 <0>         0.0000
     16 C16        -2.8812   -7.0651   12.0867 C.3       1 <0>         0.0000
     17 C17         2.3372   -2.2984    0.7995 C.3       1 <0>         0.0000
     18 C18         1.5264   -0.4548    2.3063 C.3       1 <0>         0.0000
     19 C19         1.3657   -3.2712    1.4617 C.3       1 <0>         0.0000
     20 C20         0.5009   -1.4134    2.9033 C.3       1 <0>         0.0000
     21 C21         1.8918   -0.8253    0.8519 C.3       1 <0>         0.0000
     22 C22        -0.0685   -3.6102    5.0297 C.3       1 <0>         0.0000
     23 C23         0.0654   -3.8221    3.5259 C.3       1 <0>         0.0000
     24 C24        -0.8577   -4.7519    5.6726 C.3       1 <0>         0.0000
     25 N1          1.0170   -2.8389    2.8752 N.4       1 <0>         0.0000
     26 O1         -0.1676   -1.4103   -0.2042 O.2       1 <0>         0.0000
     27 O2         -0.9383   -4.4403    7.0468 O.3       1 <0>         0.0000
     28 F1         -0.0658    4.4564   -2.4804 F         1 <0>         0.0000
     29 H1          2.3368    1.7254    0.1350 H         1 <0>         0.0000
     30 H2         -1.2824    0.1987   -1.6553 H         1 <0>         0.0000
     31 H3         -3.3434   -8.2574    7.9907 H         1 <0>         0.0000
     32 H4         -2.1914   -6.7936    6.3786 H         1 <0>         0.0000
     33 H5          1.9479    3.9159   -0.9475 H         1 <0>         0.0000
     34 H6         -1.6524    2.4260   -2.7573 H         1 <0>         0.0000
     35 H7         -1.1656   -4.0505    9.5477 H         1 <0>         0.0000
     36 H8         -4.6427   -7.5256   10.8612 H         1 <0>         0.0000
     37 H9         -3.4268   -8.8017   10.8216 H         1 <0>         0.0000
     38 H10        -1.5951   -5.2569   12.1265 H         1 <0>         0.0000
     39 H11        -3.2986   -4.9273   11.8125 H         1 <0>         0.0000
     40 H12        -3.5214   -7.0589   12.9725 H         1 <0>         0.0000
     41 H13        -1.9746   -7.6263   12.3365 H         1 <0>         0.0000
     42 H14         3.3218   -2.3807    1.2769 H         1 <0>         0.0000
     43 H15         2.4641   -2.6248   -0.2364 H         1 <0>         0.0000
     44 H16         1.1122    0.5560    2.3652 H         1 <0>         0.0000
     45 H17         2.4349   -0.4549    2.9223 H         1 <0>         0.0000
     46 H18         0.4259   -3.3182    0.9149 H         1 <0>         0.0000
     47 H19         1.7997   -4.2705    1.5407 H         1 <0>         0.0000
     48 H20         0.2893   -1.1641    3.9426 H         1 <0>         0.0000
     49 H21        -0.4319   -1.4189    2.3368 H         1 <0>         0.0000
     50 H22         2.7430   -0.2147    0.5478 H         1 <0>         0.0000
     51 H23        -0.5833   -2.6742    5.2603 H         1 <0>         0.0000
     52 H24         0.9214   -3.5713    5.5012 H         1 <0>         0.0000
     53 H25        -0.8885   -3.7176    3.0039 H         1 <0>         0.0000
     54 H26         0.4643   -4.8163    3.3084 H         1 <0>         0.0000
     55 H27        -0.3439   -5.7118    5.5164 H         1 <0>         0.0000
     56 H28        -1.8601   -4.8261    5.2258 H         1 <0>         0.0000
     57 H29         1.8842   -2.8531    3.4238 H         1 <0>         0.0000
@<TRIPOS>BOND
     1    1    5 ar
     2    1    8 ar
     3    1   29 1
     4    2    6 ar
     5    2    8 ar
     6    2   30 1
     7    3    4 ar
     8    3    9 ar
     9    3   31 1
    10    4   11 ar
    11    4   32 1
    12    5   12 ar
    13    5   33 1
    14    6   12 ar
    15    6   34 1
    16    7   10 ar
    17    7   11 ar
    18    7   35 1
    19    8   13 1
    20    9   10 ar
    21    9   14 1
    22   10   15 1
    23   11   27 1
    24   12   28 1
    25   13   21 1
    26   13   26 2
    27   14   16 1
    28   14   36 1
    29   14   37 1
    30   15   16 1
    31   15   38 1
    32   15   39 1
    33   16   40 1
    34   16   41 1
    35   17   19 1
    36   17   21 1
    37   17   42 1
    38   17   43 1
    39   18   20 1
    40   18   21 1
    41   18   44 1
    42   18   45 1
    43   19   25 1
    44   19   46 1
    45   19   47 1
    46   20   25 1
    47   20   48 1
    48   20   49 1
    49   21   50 1
    50   22   23 1
    51   22   24 1
    52   22   51 1
    53   22   52 1
    54   23   25 1
    55   23   53 1
    56   23   54 1
    57   24   27 1
    58   24   55 1
    59   24   56 1
    60   25   57 1
