@<TRIPOS>MOLECULE
*****
   28    29     0     0     0
SMALL
NO_CHARGES

@<TRIPOS>ATOM
      1 C1          3.8484   -8.6259    5.7896 C.ar      1 <0>         0.0000
      2 C2          4.4983   -4.4152    3.0591 C.ar      1 <0>         0.0000
      3 C3          3.0844   -7.9851    4.8374 C.ar      1 <0>         0.0000
      4 C4          5.2872   -5.0444    4.0018 C.ar      1 <0>         0.0000
      5 C5          5.1104   -8.1031    6.1718 C.ar      1 <0>         0.0000
      6 C6          3.2430   -4.9314    2.6630 C.ar      1 <0>         0.0000
      7 C7          4.8205   -6.2435    4.6035 C.ar      1 <0>         0.0000
      8 C8          3.5525   -6.7894    4.2274 C.ar      1 <0>         0.0000
      9 C9          5.5780   -6.9409    5.5905 C.ar      1 <0>         0.0000
     10 C10         2.7703   -6.1082    3.2319 C.ar      1 <0>         0.0000
     11 C11         0.2053   -4.7175    2.1799 C.2       1 <0>         0.0000
     12 C12        -0.3071   -7.1333    1.5846 C.3       1 <0>         0.0000
     13 C13         0.8077   -6.1296    1.8341 C.3       1 <0>         0.0000
     14 O1         -0.3367   -4.6208    3.3068 O.co2     1 <0>         0.0000
     15 O2          0.3185   -3.8755    1.2442 O.co2     1 <0>         0.0000
     16 O3          6.8030   -6.3928    5.9343 O.3       1 <0>         0.0000
     17 O4          1.6072   -6.7072    2.9063 O.3       1 <0>         0.0000
     18 H1          3.4884   -9.5380    6.2600 H         1 <0>         0.0000
     19 H2          4.8395   -3.4878    2.6036 H         1 <0>         0.0000
     20 H3          2.1146   -8.3691    4.5425 H         1 <0>         0.0000
     21 H4          6.2480   -4.6373    4.2970 H         1 <0>         0.0000
     22 H5          5.7084   -8.6162    6.9257 H         1 <0>         0.0000
     23 H6          2.6401   -4.3885    1.9428 H         1 <0>         0.0000
     24 H7         -0.9343   -7.2015    2.4784 H         1 <0>         0.0000
     25 H8         -0.9254   -6.7851    0.7507 H         1 <0>         0.0000
     26 H9          0.0911   -8.1269    1.3426 H         1 <0>         0.0000
     27 H10         1.4537   -6.0374    0.9531 H         1 <0>         0.0000
     28 H11         7.1955   -6.9565    6.6186 H         1 <0>         0.0000
@<TRIPOS>BOND
     1    1    3 ar
     2    1    5 ar
     3    1   18 1
     4    2    4 ar
     5    2    6 ar
     6    2   19 1
     7    3    8 ar
     8    3   20 1
     9    4    7 ar
    10    4   21 1
    11    5    9 ar
    12    5   22 1
    13    6   10 ar
    14    6   23 1
    15    7    8 ar
    16    7    9 ar
    17    8   10 ar
    18    9   16 1
    19   10   17 1
    20   11   13 1
    21   11   14 1
    22   11   15 2
    23   12   13 1
    24   12   24 1
    25   12   25 1
    26   12   26 1
    27   13   17 1
    28   13   27 1
    29   16   28 1
