@<TRIPOS>MOLECULE
*****
   25    25     0     0     0
SMALL
NO_CHARGES

@<TRIPOS>ATOM
      1 C1          2.2874   -0.6813    0.4890 C.ar      1 <0>         0.0000
      2 C2          1.2891   -0.1205    1.2846 C.ar      1 <0>         0.0000
      3 C3          2.4455   -0.9090    3.2686 C.ar      1 <0>         0.0000
      4 C4          3.3939   -1.3327    1.0515 C.ar      1 <0>         0.0000
      5 C5          1.3870   -0.2311    2.6694 C.ar      1 <0>         0.0000
      6 C6          3.4489   -1.4392    2.4565 C.ar      1 <0>         0.0000
      7 C7          4.3906   -1.8690    0.0335 C.2       1 <0>         0.0000
      8 N1          0.7459    2.0106    4.0736 N.pl3     1 <0>         0.0000
      9 N2          6.1045   -1.3870    2.9853 N.pl3     1 <0>         0.0000
     10 O1          3.9936   -2.4072   -0.9753 O.2       1 <0>         0.0000
     11 O2         -1.0721    0.6901    2.8646 O.2       1 <0>         0.0000
     12 O3          0.0760   -0.2740    4.9607 O.2       1 <0>         0.0000
     13 O4          4.4281   -2.3081    4.7548 O.2       1 <0>         0.0000
     14 O5          4.9891   -3.6293    2.6368 O.2       1 <0>         0.0000
     15 O6          5.6959   -1.6255    0.2335 O.3       1 <0>         0.0000
     16 S1          0.1041    0.4848    3.7107 S.o2      1 <0>         0.0000
     17 S2          4.7282   -2.3715    3.3262 S.o2      1 <0>         0.0000
     18 H1          2.2175   -0.6338   -0.5925 H         1 <0>         0.0000
     19 H2          0.4325    0.3747    0.8381 H         1 <0>         0.0000
     20 H3          2.4814   -1.0479    4.3442 H         1 <0>         0.0000
     21 H4          0.1532    2.7386    3.6758 H         1 <0>         0.0000
     22 H5          0.8291    2.1127    5.0846 H         1 <0>         0.0000
     23 H6          6.1822   -0.6478    3.6874 H         1 <0>         0.0000
     24 H7          6.9303   -1.9903    3.0419 H         1 <0>         0.0000
     25 H8          5.8736   -1.2438    1.1256 H         1 <0>         0.0000
@<TRIPOS>BOND
     1    1    2 ar
     2    1    4 ar
     3    1   18 1
     4    2    5 ar
     5    2   19 1
     6    3    5 ar
     7    3    6 ar
     8    3   20 1
     9    4    6 ar
    10    4    7 1
    11    5   16 1
    12    6   17 1
    13    7   10 2
    14    7   15 1
    15    8   16 1
    16    8   21 1
    17    8   22 1
    18    9   17 1
    19    9   23 1
    20    9   24 1
    21   11   16 2
    22   12   16 2
    23   13   17 2
    24   14   17 2
    25   15   25 1
