@<TRIPOS>MOLECULE
*****
   28    29     0     0     0
SMALL
NO_CHARGES

@<TRIPOS>ATOM
      1 C1         -3.4067    1.4488    2.9461 C.ar      1 <0>         0.0000
      2 C2         -3.6520    2.1211    4.1461 C.ar      1 <0>         0.0000
      3 C3         -2.1263    0.9676    2.6656 C.ar      1 <0>         0.0000
      4 C4         -2.6117    2.3070    5.0590 C.ar      1 <0>         0.0000
      5 C5         -1.0607    1.1427    3.5608 C.ar      1 <0>         0.0000
      6 C6         -1.3386    1.8206    4.7568 C.ar      1 <0>         0.0000
      7 C7         -0.3252   -1.6503    2.5905 C.2       1 <0>         0.0000
      8 C8         -1.3426   -3.6000    2.5269 C.3       1 <0>         0.0000
      9 C9         -1.2116   -3.1464    4.0021 C.3       1 <0>         0.0000
     10 C10         1.2080    1.7566    2.6405 C.3       1 <0>         0.0000
     11 C11         0.3415    0.6364    3.2292 C.3       1 <0>         0.0000
     12 N1         -0.8719   -2.4458    1.7453 N.2       1 <0>         0.0000
     13 N2          0.3529   -0.4941    2.2961 N.pl3     1 <0>         0.0000
     14 O1         -0.3664   -1.9656    3.9226 O.3       1 <0>         0.0000
     15 Cl1        -0.0618    2.0857    5.9481 Cl        1 <0>         0.0000
     16 H1         -4.2103    1.2927    2.2316 H         1 <0>         0.0000
     17 H2         -4.6449    2.4967    4.3779 H         1 <0>         0.0000
     18 H3         -1.9556    0.4258    1.7402 H         1 <0>         0.0000
     19 H4         -2.7809    2.8225    5.9991 H         1 <0>         0.0000
     20 H5         -0.7239   -4.4806    2.3115 H         1 <0>         0.0000
     21 H6         -2.3755   -3.8485    2.2641 H         1 <0>         0.0000
     22 H7         -2.1663   -2.8421    4.4421 H         1 <0>         0.0000
     23 H8         -0.7183   -3.8667    4.6574 H         1 <0>         0.0000
     24 H9          0.7817    2.1186    1.6976 H         1 <0>         0.0000
     25 H10         1.2605    2.6011    3.3306 H         1 <0>         0.0000
     26 H11         2.2217    1.3907    2.4524 H         1 <0>         0.0000
     27 H12         0.8036    0.2887    4.1544 H         1 <0>         0.0000
     28 H13         0.2797   -0.2604    1.3125 H         1 <0>         0.0000
@<TRIPOS>BOND
     1    1    2 ar
     2    1    3 ar
     3    1   16 1
     4    2    4 ar
     5    2   17 1
     6    3    5 ar
     7    3   18 1
     8    4    6 ar
     9    4   19 1
    10    5    6 ar
    11    5   11 1
    12    6   15 1
    13    7   12 2
    14    7   13 1
    15    7   14 1
    16    8    9 1
    17    8   12 1
    18    8   20 1
    19    8   21 1
    20    9   14 1
    21    9   22 1
    22    9   23 1
    23   10   11 1
    24   10   24 1
    25   10   25 1
    26   10   26 1
    27   11   13 1
    28   11   27 1
    29   13   28 1
