@<TRIPOS>MOLECULE
*****
   47    48     0     0     0
SMALL
NO_CHARGES

@<TRIPOS>ATOM
      1 C1          6.7941    3.6998    2.3032 C.ar      1 <0>         0.0000
      2 C2          6.4856    3.9422    0.9569 C.ar      1 <0>         0.0000
      3 C3          5.9490    2.8847    3.0572 C.ar      1 <0>         0.0000
      4 C4          5.3519    3.3777    0.3772 C.ar      1 <0>         0.0000
      5 C5          4.8046    2.3095    2.4884 C.ar      1 <0>         0.0000
      6 C6         -0.8894    2.7840    3.4043 C.2       1 <0>         0.0000
      7 C7         -2.2143    1.1873    3.0543 C.2       1 <0>         0.0000
      8 C8          4.5053    2.5575    1.1412 C.ar      1 <0>         0.0000
      9 C9         -0.1742   -2.1663   -1.1955 C.3       1 <0>         0.0000
     10 C10        -0.7574    0.0807   -2.1337 C.3       1 <0>         0.0000
     11 C11        -2.5549   -1.4244   -1.2914 C.3       1 <0>         0.0000
     12 C12         1.3926    0.8121    0.2706 C.3       1 <0>         0.0000
     13 C13         0.4597   -0.1936    0.9591 C.3       1 <0>         0.0000
     14 C14        -1.7768    0.9482    0.5650 C.3       1 <0>         0.0000
     15 C15         2.5189    1.2118    1.2128 C.3       1 <0>         0.0000
     16 C16        -1.1074   -0.9487   -1.0370 C.3       1 <0>         0.0000
     17 C17        -0.9808   -0.3681    0.4262 C.3       1 <0>         0.0000
     18 N1         -1.7617    1.9497    4.0435 N.2       1 <0>         0.0000
     19 N2         -0.7796    2.5846    2.0947 N.2       1 <0>         0.0000
     20 N3         -1.6490    1.5530    1.8806 N.pl3     1 <0>         0.0000
     21 O1         -1.6520   -1.2635    1.3448 O.3       1 <0>         0.0000
     22 O2          3.4185    2.0474    0.4823 O.3       1 <0>         0.0000
     23 H1          7.6785    4.1415    2.7535 H         1 <0>         0.0000
     24 H2          7.1328    4.5759    0.3556 H         1 <0>         0.0000
     25 H3          6.1736    2.6885    4.1027 H         1 <0>         0.0000
     26 H4          5.0994    3.5576   -0.6639 H         1 <0>         0.0000
     27 H5          4.1646    1.6824    3.0983 H         1 <0>         0.0000
     28 H6         -0.3278    3.5601    3.9085 H         1 <0>         0.0000
     29 H7         -2.9225    0.3744    3.1331 H         1 <0>         0.0000
     30 H8         -0.3545   -2.9227   -0.4232 H         1 <0>         0.0000
     31 H9         -0.3542   -2.6479   -2.1619 H         1 <0>         0.0000
     32 H10         0.8828   -1.8861   -1.1637 H         1 <0>         0.0000
     33 H11        -1.4773    0.9037   -2.1710 H         1 <0>         0.0000
     34 H12        -0.7917   -0.4129   -3.1109 H         1 <0>         0.0000
     35 H13         0.2396    0.5074   -2.0204 H         1 <0>         0.0000
     36 H14        -3.2735   -0.5995   -1.2560 H         1 <0>         0.0000
     37 H15        -2.6224   -1.8650   -2.2917 H         1 <0>         0.0000
     38 H16        -2.8663   -2.1730   -0.5606 H         1 <0>         0.0000
     39 H17         0.8567    1.7203   -0.0140 H         1 <0>         0.0000
     40 H18         1.8334    0.3875   -0.6358 H         1 <0>         0.0000
     41 H19         0.9430   -1.1779    0.9702 H         1 <0>         0.0000
     42 H20         0.3507    0.0940    2.0098 H         1 <0>         0.0000
     43 H21        -1.4398    1.6955   -0.1492 H         1 <0>         0.0000
     44 H22        -2.8334    0.7455    0.3847 H         1 <0>         0.0000
     45 H23         2.1086    1.7573    2.0718 H         1 <0>         0.0000
     46 H24         3.0531    0.3251    1.5838 H         1 <0>         0.0000
     47 H25        -1.0298   -1.9609    1.6024 H         1 <0>         0.0000
@<TRIPOS>BOND
     1    1    3 ar
     2    1    2 ar
     3    1   23 1
     4    2    4 ar
     5    2   24 1
     6    3    5 ar
     7    3   25 1
     8    4    8 ar
     9    4   26 1
    10    5    8 ar
    11    5   27 1
    12    6   18 1
    13    6   19 2
    14    6   28 1
    15    7   18 2
    16    7   20 1
    17    7   29 1
    18    8   22 1
    19    9   16 1
    20    9   30 1
    21    9   31 1
    22    9   32 1
    23   10   16 1
    24   10   33 1
    25   10   34 1
    26   10   35 1
    27   11   16 1
    28   11   36 1
    29   11   37 1
    30   11   38 1
    31   12   13 1
    32   12   15 1
    33   12   39 1
    34   12   40 1
    35   13   17 1
    36   13   41 1
    37   13   42 1
    38   14   17 1
    39   14   20 1
    40   14   43 1
    41   14   44 1
    42   15   22 1
    43   15   45 1
    44   15   46 1
    45   16   17 1
    46   17   21 1
    47   19   20 1
    48   21   47 1
