@<TRIPOS>MOLECULE
*****
   27    28     0     0     0
SMALL
NO_CHARGES

@<TRIPOS>ATOM
      1 C1         -2.0434    1.5863    1.1900 C.ar      1 <0>         0.0000
      2 C2         -1.6216    2.4143    0.1431 C.ar      1 <0>         0.0000
      3 C3         -1.5029    0.3052    1.3066 C.ar      1 <0>         0.0000
      4 C4         -0.6776    1.9514   -0.7717 C.ar      1 <0>         0.0000
      5 C5         -0.5367   -0.1750    0.4096 C.ar      1 <0>         0.0000
      6 C6         -0.1279    0.6635   -0.6444 C.ar      1 <0>         0.0000
      7 C7          0.2785   -2.2486   -0.7568 C.3       1 <0>         0.0000
      8 C8          1.3644   -1.5790   -1.5941 C.3       1 <0>         0.0000
      9 C9          0.0444   -1.5607    0.5981 C.3       1 <0>         0.0000
     10 C10         1.3336   -1.5293    1.4507 C.3       1 <0>         0.0000
     11 C11         1.1200   -1.0332    2.8736 C.3       1 <0>         0.0000
     12 O1          0.1517   -1.8820    3.5110 O.3       1 <0>         0.0000
     13 S1          1.0690    0.2141   -1.8861 S.3       1 <0>         0.0000
     14 H1         -2.7877    1.9337    1.9016 H         1 <0>         0.0000
     15 H2         -2.0336    3.4140    0.0304 H         1 <0>         0.0000
     16 H3         -1.8214   -0.3501    2.1145 H         1 <0>         0.0000
     17 H4         -0.3655    2.5882   -1.5964 H         1 <0>         0.0000
     18 H5         -0.6619   -2.2640   -1.3183 H         1 <0>         0.0000
     19 H6          0.5755   -3.2915   -0.5907 H         1 <0>         0.0000
     20 H7          2.3440   -1.6912   -1.1238 H         1 <0>         0.0000
     21 H8          1.4175   -2.0322   -2.5875 H         1 <0>         0.0000
     22 H9         -0.6882   -2.1565    1.1492 H         1 <0>         0.0000
     23 H10         2.0822   -0.8787    0.9843 H         1 <0>         0.0000
     24 H11         1.7563   -2.5413    1.4906 H         1 <0>         0.0000
     25 H12         2.0754   -1.0669    3.4167 H         1 <0>         0.0000
     26 H13         0.7694    0.0073    2.8615 H         1 <0>         0.0000
     27 H14         0.0158   -1.5592    4.4146 H         1 <0>         0.0000
@<TRIPOS>BOND
     1    1    2 ar
     2    1    3 ar
     3    1   14 1
     4    2    4 ar
     5    2   15 1
     6    3    5 ar
     7    3   16 1
     8    4    6 ar
     9    4   17 1
    10    5    6 ar
    11    5    9 1
    12    6   13 1
    13    7    8 1
    14    7    9 1
    15    7   18 1
    16    7   19 1
    17    8   13 1
    18    8   20 1
    19    8   21 1
    20    9   10 1
    21    9   22 1
    22   10   11 1
    23   10   23 1
    24   10   24 1
    25   11   12 1
    26   11   25 1
    27   11   26 1
    28   12   27 1
