@<TRIPOS>MOLECULE
*****
   38    40     0     0     0
SMALL
NO_CHARGES

@<TRIPOS>ATOM
      1 C1          1.7477   -2.4300    0.6525 C.ar      1 <0>         0.0000
      2 C2          3.1680   -0.5892    1.2737 C.ar      1 <0>         0.0000
      3 C3          0.6528   -1.7965    1.2424 C.ar      1 <0>         0.0000
      4 C4          2.0826    0.0630    1.8576 C.ar      1 <0>         0.0000
      5 C5         -2.2155    1.0928    2.9528 C.2       1 <0>         0.0000
      6 C6          3.0199   -1.8396    0.6536 C.ar      1 <0>         0.0000
      7 C7          0.8227   -0.5414    1.8321 C.ar      1 <0>         0.0000
      8 C8         -1.2591    1.2552    4.0034 C.2       1 <0>         0.0000
      9 C9         -1.5249    0.3687    1.9756 C.2       1 <0>         0.0000
     10 C10        -6.1988    3.0662    2.6929 C.2       1 <0>         0.0000
     11 C11        -6.6974    1.3893    1.3651 C.2       1 <0>         0.0000
     12 C12        -3.5691    1.5955    2.9645 C.2       1 <0>         0.0000
     13 C13         4.1927   -2.5201   -0.0122 C.3       1 <0>         0.0000
     14 C14        -1.4410    1.9540    5.3161 C.3       1 <0>         0.0000
     15 C15        -5.4626    4.0763    3.5082 C.3       1 <0>         0.0000
     16 N1         -0.1010    0.6819    3.6972 N.2       1 <0>         0.0000
     17 N2         -7.4669    3.1554    2.3677 N.2       1 <0>         0.0000
     18 N3         -7.7953    2.0861    1.5384 N.2       1 <0>         0.0000
     19 N4         -4.3838    1.4008    1.9836 N.2       1 <0>         0.0000
     20 N5         -0.2729    0.1295    2.4518 N.pl3     1 <0>         0.0000
     21 N6         -5.6542    1.9344    2.0813 N.pl3     1 <0>         0.0000
     22 S1         -6.4799   -0.0616    0.3953 S.3       1 <0>         0.0000
     23 Cl1        -2.0394   -0.1018    0.4103 Cl        1 <0>         0.0000
     24 H1          1.6097   -3.4078    0.1973 H         1 <0>         0.0000
     25 H2          4.1467   -0.1157    1.2990 H         1 <0>         0.0000
     26 H3         -0.3172   -2.2817    1.2565 H         1 <0>         0.0000
     27 H4          2.2014    1.0267    2.3416 H         1 <0>         0.0000
     28 H5         -3.8617    2.1382    3.8644 H         1 <0>         0.0000
     29 H6          4.2756   -2.2135   -1.0619 H         1 <0>         0.0000
     30 H7          5.1355   -2.2637    0.4797 H         1 <0>         0.0000
     31 H8          4.0854   -3.6085    0.0041 H         1 <0>         0.0000
     32 H9         -2.2338    1.4870    5.9103 H         1 <0>         0.0000
     33 H10        -0.5111    1.9066    5.8862 H         1 <0>         0.0000
     34 H11        -1.7067    3.0073    5.1745 H         1 <0>         0.0000
     35 H12        -5.2529    3.7260    4.5249 H         1 <0>         0.0000
     36 H13        -4.5140    4.3590    3.0399 H         1 <0>         0.0000
     37 H14        -6.0947    4.9632    3.5815 H         1 <0>         0.0000
     38 H15        -7.7760   -0.0672    0.0211 H         1 <0>         0.0000
@<TRIPOS>BOND
     1    1    3 ar
     2    1    6 ar
     3    1   24 1
     4    2    4 ar
     5    2    6 ar
     6    2   25 1
     7    3    7 ar
     8    3   26 1
     9    4    7 ar
    10    4   27 1
    11    5    8 1
    12    5    9 2
    13    5   12 1
    14    6   13 1
    15    7   20 1
    16    8   14 1
    17    8   16 2
    18    9   20 1
    19    9   23 1
    20   10   15 1
    21   10   17 2
    22   10   21 1
    23   11   18 2
    24   11   21 1
    25   11   22 1
    26   12   19 2
    27   12   28 1
    28   13   29 1
    29   13   30 1
    30   13   31 1
    31   14   32 1
    32   14   33 1
    33   14   34 1
    34   15   35 1
    35   15   36 1
    36   15   37 1
    37   16   20 1
    38   17   18 1
    39   19   21 1
    40   22   38 1
