@<TRIPOS>MOLECULE
*****
   35    36     0     0     0
SMALL
NO_CHARGES

@<TRIPOS>ATOM
      1 C1          1.0156   -3.4169    3.3504 C.2       1 <0>         0.0000
      2 C2          0.9458   -2.2228    4.0936 C.2       1 <0>         0.0000
      3 C3         -1.5360   -1.9010    0.3234 C.2       1 <0>         0.0000
      4 C4         -0.2929   -0.0596   -2.2864 C.3       1 <0>         0.0000
      5 C5         -0.2225   -1.4677   -1.6698 C.3       1 <0>         0.0000
      6 C6          0.6149   -0.6355    0.5156 C.3       1 <0>         0.0000
      7 C7          1.2677    0.4745   -0.3500 C.3       1 <0>         0.0000
      8 C8          0.2243    1.0431   -1.3386 C.3       1 <0>         0.0000
      9 C9          2.5875    0.0424   -1.0113 C.3       1 <0>         0.0000
     10 C10         0.7503    2.2417   -2.1332 C.3       1 <0>         0.0000
     11 C11        -1.7206   -1.8180    1.8468 C.3       1 <0>         0.0000
     12 N1          0.0405   -3.4043    2.4322 N.2       1 <0>         0.0000
     13 N2         -0.0707   -1.4881    3.6237 N.2       1 <0>         0.0000
     14 N3         -0.5730   -2.2388    2.6385 N.pl3     1 <0>         0.0000
     15 N4         -0.3883   -1.4105   -0.2213 N.am      1 <0>         0.0000
     16 O1         -2.4488   -2.3966   -0.3393 O.2       1 <0>         0.0000
     17 O2         -0.9335    1.4648   -0.5748 O.3       1 <0>         0.0000
     18 H1          1.6948   -4.2549    3.4292 H         1 <0>         0.0000
     19 H2          1.5551   -1.8694    4.9144 H         1 <0>         0.0000
     20 H3          0.2792   -0.0483   -3.2196 H         1 <0>         0.0000
     21 H4         -1.3277    0.1918   -2.5327 H         1 <0>         0.0000
     22 H5         -1.0067   -2.1087   -2.0685 H         1 <0>         0.0000
     23 H6          0.7401   -1.9436   -1.8865 H         1 <0>         0.0000
     24 H7          1.3952   -1.3006    0.9078 H         1 <0>         0.0000
     25 H8          0.1343   -0.1600    1.3672 H         1 <0>         0.0000
     26 H9          1.5243    1.2831    0.3484 H         1 <0>         0.0000
     27 H10         2.4428   -0.6863   -1.8133 H         1 <0>         0.0000
     28 H11         3.2493   -0.4140   -0.2680 H         1 <0>         0.0000
     29 H12         3.1162    0.9008   -1.4349 H         1 <0>         0.0000
     30 H13         1.0907    3.0403   -1.4613 H         1 <0>         0.0000
     31 H14        -0.0525    2.6421   -2.7598 H         1 <0>         0.0000
     32 H15         1.5872    1.9698   -2.7818 H         1 <0>         0.0000
     33 H16        -2.5742   -2.4560    2.0780 H         1 <0>         0.0000
     34 H17        -1.9507   -0.7949    2.1495 H         1 <0>         0.0000
     35 H18        -0.6649    2.2212   -0.0279 H         1 <0>         0.0000
@<TRIPOS>BOND
     1    1    2 1
     2    1   12 2
     3    1   18 1
     4    2   13 2
     5    2   19 1
     6    3   11 1
     7    3   15 am
     8    3   16 2
     9    4    5 1
    10    4    8 1
    11    4   20 1
    12    4   21 1
    13    5   15 1
    14    5   22 1
    15    5   23 1
    16    6    7 1
    17    6   15 1
    18    6   24 1
    19    6   25 1
    20    7    8 1
    21    7    9 1
    22    7   26 1
    23    8   10 1
    24    8   17 1
    25    9   27 1
    26    9   28 1
    27    9   29 1
    28   10   30 1
    29   10   31 1
    30   10   32 1
    31   11   14 1
    32   11   33 1
    33   11   34 1
    34   12   14 1
    35   13   14 1
    36   17   35 1
