@<TRIPOS>MOLECULE
*****
   31    33     0     0     0
SMALL
NO_CHARGES

@<TRIPOS>ATOM
      1 C1          0.8709    4.0314   -6.2228 C.ar      1 <0>         0.0000
      2 C2         -0.3966    3.6630   -5.7599 C.ar      1 <0>         0.0000
      3 C3          2.0060    3.7126   -5.4676 C.ar      1 <0>         0.0000
      4 C4         -0.5374    3.0083   -4.5364 C.ar      1 <0>         0.0000
      5 C5          1.8768    3.0260   -4.2610 C.ar      1 <0>         0.0000
      6 C6         -4.0399    3.6970    1.3214 C.2       1 <0>         0.0000
      7 C7          0.6020    2.7056   -3.7742 C.ar      1 <0>         0.0000
      8 C8         -1.0469    3.3344   -1.5193 C.2       1 <0>         0.0000
      9 C9         -3.4552    2.4713    1.1927 C.2       1 <0>         0.0000
     10 C10        -2.0259    3.3024   -0.5344 C.2       1 <0>         0.0000
     11 C11        -3.6485    4.8447    0.5100 C.2       1 <0>         0.0000
     12 C12        -0.9591    4.7449   -1.9552 C.2       1 <0>         0.0000
     13 C13        -3.8184    1.2696    2.0143 C.3       1 <0>         0.0000
     14 N1          0.5220    1.9127   -2.5942 N.2       1 <0>         0.0000
     15 N2         -0.2830    2.1702   -1.6559 N.2       1 <0>         0.0000
     16 N3         -2.4609    2.2796    0.2509 N.pl3     1 <0>         0.0000
     17 N4         -2.0831    5.3813   -1.3380 N.am      1 <0>         0.0000
     18 N5         -2.6247    4.5162   -0.3947 N.am      1 <0>         0.0000
     19 O1         -4.0873    5.9874    0.5651 O.2       1 <0>         0.0000
     20 O2         -0.1579    5.3508   -2.6471 O.2       1 <0>         0.0000
     21 H1          0.9747    4.5528   -7.1707 H         1 <0>         0.0000
     22 H2         -1.2798    3.8916   -6.3509 H         1 <0>         0.0000
     23 H3          2.9940    3.9874   -5.8280 H         1 <0>         0.0000
     24 H4         -1.5213    2.7165   -4.1804 H         1 <0>         0.0000
     25 H5          2.7486    2.7475   -3.6758 H         1 <0>         0.0000
     26 H6         -4.8234    3.8623    2.0499 H         1 <0>         0.0000
     27 H7         -4.1666    0.4526    1.3727 H         1 <0>         0.0000
     28 H8         -4.6102    1.5145    2.7226 H         1 <0>         0.0000
     29 H9         -2.9501    0.9082    2.5765 H         1 <0>         0.0000
     30 H10        -1.9638    1.3994    0.1488 H         1 <0>         0.0000
     31 H11        -2.0332    6.3529   -1.0427 H         1 <0>         0.0000
@<TRIPOS>BOND
     1    1    3 ar
     2    1    2 ar
     3    1   21 1
     4    2    4 ar
     5    2   22 1
     6    3    5 ar
     7    3   23 1
     8    4    7 ar
     9    4   24 1
    10    5    7 ar
    11    5   25 1
    12    6    9 2
    13    6   11 1
    14    6   26 1
    15    7   14 1
    16    8   10 2
    17    8   12 1
    18    8   15 1
    19    9   13 1
    20    9   16 1
    21   10   16 1
    22   10   18 1
    23   11   18 am
    24   11   19 2
    25   12   17 am
    26   12   20 2
    27   13   27 1
    28   13   28 1
    29   13   29 1
    30   14   15 2
    31   16   30 1
    32   17   18 1
    33   17   31 1
