@<TRIPOS>MOLECULE
*****
   15    14     0     0     0
SMALL
NO_CHARGES

@<TRIPOS>ATOM
      1 C1          0.3129    1.4291   -0.0370 C.2       1 <0>         0.0000
      2 C2         -0.4935    0.3957   -0.2898 C.2       1 <0>         0.0000
      3 C3         -0.5095   -0.8026    0.6030 C.2       1 <0>         0.0000
      4 O1          0.0782   -0.8889    1.6598 O.2       1 <0>         0.0000
      5 O2         -2.2407   -0.1158   -3.6978 O.2       1 <0>         0.0000
      6 O3         -1.2654   -1.8272    0.0992 O.3       1 <0>         0.0000
      7 O4         -0.2974   -1.5361   -2.5605 O.3       1 <0>         0.0000
      8 O5          0.1945    0.7427   -3.3230 O.3       1 <0>         0.0000
      9 O6         -1.4048    0.4033   -1.3374 O.3       1 <0>         0.0000
     10 P1         -1.0537   -0.1483   -2.8296 P.3       1 <0>         0.0000
     11 H1          0.3250    2.2954   -0.6891 H         1 <0>         0.0000
     12 H2          0.9651    1.3987    0.8282 H         1 <0>         0.0000
     13 H3         -1.2235   -2.5422    0.7638 H         1 <0>         0.0000
     14 H4         -0.7780   -2.0930   -1.9173 H         1 <0>         0.0000
     15 H5         -0.0474    1.2545   -4.1138 H         1 <0>         0.0000
@<TRIPOS>BOND
     1    1    2 2
     2    1   11 1
     3    1   12 1
     4    2    3 1
     5    2    9 1
     6    3    4 2
     7    3    6 1
     8    5   10 2
     9    6   13 1
    10    7   10 1
    11    7   14 1
    12    8   10 1
    13    8   15 1
    14    9   10 1
