@<TRIPOS>MOLECULE
*****
   32    34     0     0     0
SMALL
NO_CHARGES

@<TRIPOS>ATOM
      1 C1         -1.2398   -2.2698    4.2438 C.ar      1 <0>         0.0000
      2 C2         -1.2022   -2.7416    2.9126 C.ar      1 <0>         0.0000
      3 C3         -2.2351   -1.3952    4.6711 C.ar      1 <0>         0.0000
      4 C4         -2.1611   -2.3468    1.9821 C.ar      1 <0>         0.0000
      5 C5         -4.9502   -0.0965    2.5771 C.2       1 <0>         0.0000
      6 C6         -3.2173   -0.9789    3.7534 C.ar      1 <0>         0.0000
      7 C7         -4.3691   -0.1045    3.8347 C.2       1 <0>         0.0000
      8 C8         -3.1585   -1.4675    2.4184 C.ar      1 <0>         0.0000
      9 C9         -9.2827    4.4733    6.7225 C.ar      1 <0>         0.0000
     10 C10        -9.0575    3.8837    5.4527 C.ar      1 <0>         0.0000
     11 C11        -7.2589    2.8357    6.2765 C.ar      1 <0>         0.0000
     12 C12        -4.8169    0.6163    5.0088 C.2       1 <0>         0.0000
     13 C13       -10.4290    5.4054    6.9890 C.3       1 <0>         0.0000
     14 N1         -8.4380    4.1821    7.7107 N.ar      1 <0>         0.0000
     15 N2         -8.0535    3.0650    5.2126 N.ar      1 <0>         0.0000
     16 N3         -7.4107    3.3593    7.5094 N.ar      1 <0>         0.0000
     17 N4         -5.8596    1.3765    4.9881 N.2       1 <0>         0.0000
     18 N5         -4.2279   -0.9103    1.7322 N.pl3     1 <0>         0.0000
     19 N6         -6.1801    2.0004    6.1518 N.pl3     1 <0>         0.0000
     20 O1         -9.9058    4.1703    4.4419 O.3       1 <0>         0.0000
     21 H1         -0.4763   -2.5979    4.9439 H         1 <0>         0.0000
     22 H2         -0.4126   -3.4235    2.6094 H         1 <0>         0.0000
     23 H3         -2.2468   -1.0435    5.6997 H         1 <0>         0.0000
     24 H4         -2.1320   -2.7100    0.9577 H         1 <0>         0.0000
     25 H5         -5.8280    0.4361    2.2381 H         1 <0>         0.0000
     26 H6         -4.2253    0.4866    5.9255 H         1 <0>         0.0000
     27 H7        -11.3898    4.9162    6.7957 H         1 <0>         0.0000
     28 H8        -10.3939    5.7263    8.0318 H         1 <0>         0.0000
     29 H9        -10.3813    6.2867    6.3401 H         1 <0>         0.0000
     30 H10        -4.4455   -1.0726    0.7592 H         1 <0>         0.0000
     31 H11        -5.6243    1.8740    6.9977 H         1 <0>         0.0000
     32 H12        -9.5841    3.6740    3.6646 H         1 <0>         0.0000
@<TRIPOS>BOND
     1    1    2 ar
     2    1    3 ar
     3    1   21 1
     4    2    4 ar
     5    2   22 1
     6    3    6 ar
     7    3   23 1
     8    4    8 ar
     9    4   24 1
    10    5    7 2
    11    5   18 1
    12    5   25 1
    13    6    7 1
    14    6    8 ar
    15    7   12 1
    16    8   18 1
    17    9   10 ar
    18    9   13 1
    19    9   14 ar
    20   10   15 ar
    21   10   20 1
    22   11   15 ar
    23   11   16 ar
    24   11   19 1
    25   12   17 2
    26   12   26 1
    27   13   27 1
    28   13   28 1
    29   13   29 1
    30   14   16 ar
    31   17   19 1
    32   18   30 1
    33   19   31 1
    34   20   32 1
