@<TRIPOS>MOLECULE
*****
   37    39     0     0     0
SMALL
NO_CHARGES

@<TRIPOS>ATOM
      1 C1          0.3338   -4.8353    1.4663 C.2       1 <0>         0.0000
      2 C2          1.4574   -4.0684    1.7047 C.2       1 <0>         0.0000
      3 C3          0.2584    5.6637   -2.9113 C.ar      1 <0>         0.0000
      4 C4         -0.6260   -3.0210    0.1351 C.2       1 <0>         0.0000
      5 C5         -0.7178   -4.2744    0.6886 C.2       1 <0>         0.0000
      6 C6          0.8357   -0.9578    0.0470 C.2       1 <0>         0.0000
      7 C7          1.1885    4.9718   -2.1265 C.ar      1 <0>         0.0000
      8 C8         -0.9131    4.9893   -3.2820 C.ar      1 <0>         0.0000
      9 C9          2.1104   -0.7515    0.6071 C.2       1 <0>         0.0000
     10 C10         1.5609   -2.7639    1.1748 C.2       1 <0>         0.0000
     11 C11        -0.1729    3.1564   -2.1466 C.ar      1 <0>         0.0000
     12 C12        -0.0052   -0.0996   -0.7470 C.2       1 <0>         0.0000
     13 C13         2.4770    5.6014   -1.6692 C.3       1 <0>         0.0000
     14 C14        -1.9816    5.6394   -4.1199 C.3       1 <0>         0.0000
     15 C15         2.9383    0.4877    0.5037 C.3       1 <0>         0.0000
     16 N1          2.5291   -1.8501    1.2938 N.2       1 <0>         0.0000
     17 N2          0.9759    3.7046   -1.7374 N.ar      1 <0>         0.0000
     18 N3         -1.1345    3.7255   -2.8986 N.ar      1 <0>         0.0000
     19 N4          0.3714    1.1039   -1.0351 N.2       1 <0>         0.0000
     20 N5          0.4874   -2.2574    0.4082 N.pl3     1 <0>         0.0000
     21 N6         -0.4617    1.8533   -1.7843 N.pl3     1 <0>         0.0000
     22 I1         -2.1695   -5.7167   -0.3091 I         1 <0>         0.0000
     23 H1          0.2459   -5.8353    1.8758 H         1 <0>         0.0000
     24 H2          2.2823   -4.4407    2.3034 H         1 <0>         0.0000
     25 H3          0.4378    6.6875   -3.2227 H         1 <0>         0.0000
     26 H4         -1.3859   -2.5902   -0.5035 H         1 <0>         0.0000
     27 H5         -0.9680   -0.4941   -1.0996 H         1 <0>         0.0000
     28 H6          2.5142    5.6170   -0.5752 H         1 <0>         0.0000
     29 H7          3.3258    5.0007   -2.0103 H         1 <0>         0.0000
     30 H8          2.5873    6.6219   -2.0434 H         1 <0>         0.0000
     31 H9         -2.1737    5.0386   -5.0142 H         1 <0>         0.0000
     32 H10        -2.9191    5.6895   -3.5567 H         1 <0>         0.0000
     33 H11        -1.6987    6.6499   -4.4239 H         1 <0>         0.0000
     34 H12         2.3982    1.3545    0.8968 H         1 <0>         0.0000
     35 H13         3.8701    0.3486    1.0554 H         1 <0>         0.0000
     36 H14         3.1603    0.7257   -0.5414 H         1 <0>         0.0000
     37 H15        -1.3551    1.4924   -2.1192 H         1 <0>         0.0000
@<TRIPOS>BOND
     1    1    2 2
     2    1    5 1
     3    1   23 1
     4    2   10 1
     5    2   24 1
     6    3    8 ar
     7    3    7 ar
     8    3   25 1
     9    4    5 2
    10    4   20 1
    11    4   26 1
    12    5   22 1
    13    6    9 2
    14    6   12 1
    15    6   20 1
    16    7   13 1
    17    7   17 ar
    18    8   14 1
    19    8   18 ar
    20    9   15 1
    21    9   16 1
    22   10   16 2
    23   10   20 1
    24   11   18 ar
    25   11   17 ar
    26   11   21 1
    27   12   19 2
    28   12   27 1
    29   13   28 1
    30   13   29 1
    31   13   30 1
    32   14   31 1
    33   14   32 1
    34   14   33 1
    35   15   34 1
    36   15   35 1
    37   15   36 1
    38   19   21 1
    39   21   37 1
