@<TRIPOS>MOLECULE
*****
   35    36     0     0     0
SMALL
NO_CHARGES

@<TRIPOS>ATOM
      1 C1         -5.7633   -2.9811   -1.3754 C.2       1 <0>         0.0000
      2 C2         -5.3348   -3.5494   -2.5917 C.2       1 <0>         0.0000
      3 C3         -2.0439   -1.0254   -1.7830 C.2       1 <0>         0.0000
      4 C4          0.4544   -0.3181    0.5389 C.3       1 <0>         0.0000
      5 C5          0.2428   -1.1517   -0.7311 C.3       1 <0>         0.0000
      6 C6         -0.4608    0.8302   -1.9806 C.3       1 <0>         0.0000
      7 C7         -0.3178    1.7385   -0.7448 C.3       1 <0>         0.0000
      8 C8          0.7568    1.1530    0.2123 C.3       1 <0>         0.0000
      9 C9         -1.6813    1.9881   -0.0824 C.3       1 <0>         0.0000
     10 C10         0.9137    1.9709    1.4972 C.3       1 <0>         0.0000
     11 C11        -2.3218   -2.4404   -1.2299 C.3       1 <0>         0.0000
     12 N1         -4.6903   -2.5386   -0.7103 N.2       1 <0>         0.0000
     13 N2         -4.0027   -3.4505   -2.6627 N.2       1 <0>         0.0000
     14 N3         -3.6736   -2.8524   -1.5163 N.pl3     1 <0>         0.0000
     15 N4         -0.7821   -0.5417   -1.5793 N.am      1 <0>         0.0000
     16 O1         -2.9205   -0.4066   -2.3787 O.2       1 <0>         0.0000
     17 O2          2.0286    1.1152   -0.4788 O.3       1 <0>         0.0000
     18 H1         -6.7569   -2.8802   -0.9604 H         1 <0>         0.0000
     19 H2         -5.9020   -4.0138   -3.3869 H         1 <0>         0.0000
     20 H3         -0.4387   -0.3731    1.1698 H         1 <0>         0.0000
     21 H4          1.2932   -0.7277    1.1117 H         1 <0>         0.0000
     22 H5          1.1786   -1.1935   -1.2981 H         1 <0>         0.0000
     23 H6         -0.0261   -2.1756   -0.4744 H         1 <0>         0.0000
     24 H7         -1.2560    1.1844   -2.6355 H         1 <0>         0.0000
     25 H8          0.4795    0.8087   -2.5406 H         1 <0>         0.0000
     26 H9          0.0651    2.7073   -1.0994 H         1 <0>         0.0000
     27 H10        -2.1136    1.0689    0.3234 H         1 <0>         0.0000
     28 H11        -2.3915    2.3744   -0.8187 H         1 <0>         0.0000
     29 H12        -1.6096    2.7160    0.7301 H         1 <0>         0.0000
     30 H13         1.0908    3.0292    1.2675 H         1 <0>         0.0000
     31 H14         1.7703    1.5958    2.0652 H         1 <0>         0.0000
     32 H15         0.0265    1.9119    2.1331 H         1 <0>         0.0000
     33 H16        -2.1969   -2.4646   -0.1458 H         1 <0>         0.0000
     34 H17        -1.6490   -3.1716   -1.6818 H         1 <0>         0.0000
     35 H18         2.2779    2.0290   -0.6919 H         1 <0>         0.0000
@<TRIPOS>BOND
     1    1    2 1
     2    1   12 2
     3    1   18 1
     4    2   13 2
     5    2   19 1
     6    3   11 1
     7    3   15 am
     8    3   16 2
     9    4    5 1
    10    4    8 1
    11    4   20 1
    12    4   21 1
    13    5   15 1
    14    5   22 1
    15    5   23 1
    16    6    7 1
    17    6   15 1
    18    6   24 1
    19    6   25 1
    20    7    8 1
    21    7    9 1
    22    7   26 1
    23    8   10 1
    24    8   17 1
    25    9   27 1
    26    9   28 1
    27    9   29 1
    28   10   30 1
    29   10   31 1
    30   10   32 1
    31   11   14 1
    32   11   33 1
    33   11   34 1
    34   12   14 1
    35   13   14 1
    36   17   35 1
