@<TRIPOS>MOLECULE
*****
   15    14     0     0     0
SMALL
NO_CHARGES

@<TRIPOS>ATOM
      1 C1          0.2952    1.3297    0.3319 C.2       1 <0>         0.0000
      2 C2         -0.1953    0.1601   -0.0885 C.2       1 <0>         0.0000
      3 C3          0.2062   -1.1757    0.4482 C.2       1 <0>         0.0000
      4 O1         -0.2656   -2.2322    0.0879 O.2       1 <0>         0.0000
      5 O2         -2.6221    2.2072   -0.8543 O.2       1 <0>         0.0000
      6 O3          1.1741   -1.0759    1.3999 O.3       1 <0>         0.0000
      7 O4         -3.2128   -0.0930    0.2414 O.3       1 <0>         0.0000
      8 O5         -3.3068    0.1303   -2.2777 O.3       1 <0>         0.0000
      9 O6         -1.1276    0.0480   -1.1154 O.3       1 <0>         0.0000
     10 P1         -2.5803    0.7345   -0.9818 P.3       1 <0>         0.0000
     11 H1         -0.0507    2.2664   -0.0929 H         1 <0>         0.0000
     12 H2          1.0372    1.3449    1.1208 H         1 <0>         0.0000
     13 H3          1.3617   -1.9899    1.6856 H         1 <0>         0.0000
     14 H4         -3.8569    0.4402    0.7377 H         1 <0>         0.0000
     15 H5         -3.3866    0.7975   -2.9806 H         1 <0>         0.0000
@<TRIPOS>BOND
     1    1    2 2
     2    1   11 1
     3    1   12 1
     4    2    3 1
     5    2    9 1
     6    3    4 2
     7    3    6 1
     8    5   10 2
     9    6   13 1
    10    7   10 1
    11    7   14 1
    12    8   10 1
    13    8   15 1
    14    9   10 1
