@<TRIPOS>MOLECULE
*****
   32    34     0     0     0
SMALL
NO_CHARGES

@<TRIPOS>ATOM
      1 C1         -1.3745   -1.9940    4.6134 C.ar      1 <0>         0.0000
      2 C2         -1.3172   -2.6805    3.3799 C.ar      1 <0>         0.0000
      3 C3         -2.1807   -0.8708    4.7766 C.ar      1 <0>         0.0000
      4 C4         -2.0663   -2.2559    2.2845 C.ar      1 <0>         0.0000
      5 C5         -4.3132    0.5968    2.1801 C.2       1 <0>         0.0000
      6 C6         -2.9488   -0.4184    3.6878 C.ar      1 <0>         0.0000
      7 C7         -3.8733    0.6790    3.4912 C.2       1 <0>         0.0000
      8 C8         -2.8744   -1.1263    2.4558 C.ar      1 <0>         0.0000
      9 C9         -7.8665    6.6077    5.0223 C.ar      1 <0>         0.0000
     10 C10        -7.6614    5.7776    3.8912 C.ar      1 <0>         0.0000
     11 C11        -6.2377    4.5295    5.0857 C.ar      1 <0>         0.0000
     12 C12        -4.2561    1.6652    4.4809 C.2       1 <0>         0.0000
     13 C13        -8.7893    7.7917    4.9994 C.3       1 <0>         0.0000
     14 N1         -7.2096    6.3168    6.1443 N.ar      1 <0>         0.0000
     15 N2         -6.8530    4.7373    3.9050 N.ar      1 <0>         0.0000
     16 N3         -6.3833    5.2742    6.1998 N.ar      1 <0>         0.0000
     17 N4         -5.0913    2.6126    4.2148 N.2       1 <0>         0.0000
     18 N5         -3.7169   -0.4807    1.5623 N.pl3     1 <0>         0.0000
     19 N6         -5.3719    3.4767    5.2250 N.pl3     1 <0>         0.0000
     20 O1         -8.3208    6.0610    2.7473 O.3       1 <0>         0.0000
     21 H1         -0.7771   -2.3522    5.4474 H         1 <0>         0.0000
     22 H2         -0.6783   -3.5541    3.2837 H         1 <0>         0.0000
     23 H3         -2.2112   -0.3563    5.7337 H         1 <0>         0.0000
     24 H4         -2.0219   -2.7844    1.3354 H         1 <0>         0.0000
     25 H5         -5.0095    1.2368    1.6561 H         1 <0>         0.0000
     26 H6         -3.8008    1.5710    5.4763 H         1 <0>         0.0000
     27 H7         -9.8137    7.4901    4.7551 H         1 <0>         0.0000
     28 H8         -8.7813    8.2703    5.9805 H         1 <0>         0.0000
     29 H9         -8.4798    8.5198    4.2419 H         1 <0>         0.0000
     30 H10        -3.8722   -0.7563    0.6029 H         1 <0>         0.0000
     31 H11        -4.9428    3.3819    6.1455 H         1 <0>         0.0000
     32 H12        -8.0480    5.3839    2.0984 H         1 <0>         0.0000
@<TRIPOS>BOND
     1    1    2 ar
     2    1    3 ar
     3    1   21 1
     4    2    4 ar
     5    2   22 1
     6    3    6 ar
     7    3   23 1
     8    4    8 ar
     9    4   24 1
    10    5    7 2
    11    5   18 1
    12    5   25 1
    13    6    7 1
    14    6    8 ar
    15    7   12 1
    16    8   18 1
    17    9   10 ar
    18    9   13 1
    19    9   14 ar
    20   10   15 ar
    21   10   20 1
    22   11   15 ar
    23   11   16 ar
    24   11   19 1
    25   12   17 2
    26   12   26 1
    27   13   27 1
    28   13   28 1
    29   13   29 1
    30   14   16 ar
    31   17   19 1
    32   18   30 1
    33   19   31 1
    34   20   32 1
