@<TRIPOS>MOLECULE
*****
   25    26     0     0     0
SMALL
NO_CHARGES

@<TRIPOS>ATOM
      1 C1          2.5183   -2.0349    2.4047 C.ar      1 <0>         0.0000
      2 C2          1.4315   -1.3126    2.8847 C.ar      1 <0>         0.0000
      3 C3          2.9362   -1.8594    1.0865 C.ar      1 <0>         0.0000
      4 C4         -4.6961    4.0076    2.4363 C.2       1 <0>         0.0000
      5 C5          0.7270   -0.3966    2.0765 C.ar      1 <0>         0.0000
      6 C6          2.2563   -0.9582    0.2635 C.ar      1 <0>         0.0000
      7 C7          1.1558   -0.2211    0.7354 C.ar      1 <0>         0.0000
      8 C8         -3.0198    2.6067    2.4356 C.2       1 <0>         0.0000
      9 C9         -0.3938    0.2850    2.7299 C.2       1 <0>         0.0000
     10 N1         -4.1570    4.0312    1.2489 N.2       1 <0>         0.0000
     11 N2         -3.0813    3.1378    1.2348 N.2       1 <0>         0.0000
     12 N3         -1.1645    1.1552    2.1758 N.2       1 <0>         0.0000
     13 N4         -4.0126    3.1129    3.2464 N.pl3     1 <0>         0.0000
     14 N5         -4.2006    2.7337    4.5842 N.3       1 <0>         0.0000
     15 N6         -2.1454    1.6747    2.9422 N.pl3     1 <0>         0.0000
     16 Cl1         2.8239   -0.7783   -1.3806 Cl        1 <0>         0.0000
     17 Cl2         0.3526    0.8827   -0.3352 Cl        1 <0>         0.0000
     18 H1          3.0416   -2.7336    3.0507 H         1 <0>         0.0000
     19 H2          1.1078   -1.4515    3.9131 H         1 <0>         0.0000
     20 H3          3.7811   -2.4103    0.6868 H         1 <0>         0.0000
     21 H4         -5.5475    4.5844    2.7740 H         1 <0>         0.0000
     22 H5         -0.5472   -0.0058    3.7792 H         1 <0>         0.0000
     23 H6         -5.1324    2.3362    4.6968 H         1 <0>         0.0000
     24 H7         -4.1134    3.5527    5.1848 H         1 <0>         0.0000
     25 H8         -2.2810    1.3947    3.9150 H         1 <0>         0.0000
@<TRIPOS>BOND
     1    1    2 ar
     2    1    3 ar
     3    1   18 1
     4    2    5 ar
     5    2   19 1
     6    3    6 ar
     7    3   20 1
     8    4   10 2
     9    4   13 1
    10    4   21 1
    11    5    7 ar
    12    5    9 1
    13    6    7 ar
    14    6   16 1
    15    7   17 1
    16    8   11 2
    17    8   13 1
    18    8   15 1
    19    9   12 2
    20    9   22 1
    21   10   11 1
    22   12   15 1
    23   13   14 1
    24   14   23 1
    25   14   24 1
    26   15   25 1
