@<TRIPOS>MOLECULE
*****
   25    26     0     0     0
SMALL
NO_CHARGES

@<TRIPOS>ATOM
      1 C1          1.8915   -2.6469    2.0775 C.ar      1 <0>         0.0000
      2 C2          0.7947   -1.8036    2.2153 C.ar      1 <0>         0.0000
      3 C3          3.0530   -2.1773    1.4674 C.ar      1 <0>         0.0000
      4 C4         -1.9416    5.3973    0.9294 C.2       1 <0>         0.0000
      5 C5          0.8125   -0.4723    1.7507 C.ar      1 <0>         0.0000
      6 C6          3.1036   -0.8600    1.0039 C.ar      1 <0>         0.0000
      7 C7          2.0000   -0.0003    1.1385 C.ar      1 <0>         0.0000
      8 C8         -2.0505    3.3679    1.6839 C.2       1 <0>         0.0000
      9 C9         -0.4271    0.2805    1.9684 C.2       1 <0>         0.0000
     10 N1         -2.7089    5.4181    1.9903 N.2       1 <0>         0.0000
     11 N2         -2.7712    4.1156    2.4865 N.2       1 <0>         0.0000
     12 N3         -0.6671    1.4690    1.5394 N.2       1 <0>         0.0000
     13 N4         -1.5003    4.1176    0.6747 N.pl3     1 <0>         0.0000
     14 N5         -0.7155    3.7306   -0.4282 N.3       1 <0>         0.0000
     15 N6         -1.9083    1.9877    1.7891 N.pl3     1 <0>         0.0000
     16 Cl1         4.5874   -0.3204    0.2573 Cl        1 <0>         0.0000
     17 Cl2         2.1526    1.6377    0.5594 Cl        1 <0>         0.0000
     18 H1          1.8466   -3.6684    2.4428 H         1 <0>         0.0000
     19 H2         -0.1098   -2.1739    2.6903 H         1 <0>         0.0000
     20 H3          3.9225   -2.8150    1.3481 H         1 <0>         0.0000
     21 H4         -1.6593    6.2392    0.3124 H         1 <0>         0.0000
     22 H5         -1.1910   -0.2634    2.5393 H         1 <0>         0.0000
     23 H6         -1.2994    3.1590   -1.0403 H         1 <0>         0.0000
     24 H7          0.0239    3.1237   -0.0733 H         1 <0>         0.0000
     25 H8         -2.4513    1.5967    2.5616 H         1 <0>         0.0000
@<TRIPOS>BOND
     1    1    2 ar
     2    1    3 ar
     3    1   18 1
     4    2    5 ar
     5    2   19 1
     6    3    6 ar
     7    3   20 1
     8    4   10 2
     9    4   13 1
    10    4   21 1
    11    5    7 ar
    12    5    9 1
    13    6    7 ar
    14    6   16 1
    15    7   17 1
    16    8   11 2
    17    8   13 1
    18    8   15 1
    19    9   12 2
    20    9   22 1
    21   10   11 1
    22   12   15 1
    23   13   14 1
    24   14   23 1
    25   14   24 1
    26   15   25 1
