@<TRIPOS>MOLECULE
*****
   15    14     0     0     0
SMALL
NO_CHARGES

@<TRIPOS>ATOM
      1 C1          0.0713    1.2465    1.0374 C.2       1 <0>         0.0000
      2 C2         -0.5541    0.1694    0.5640 C.2       1 <0>         0.0000
      3 C3         -0.3491   -1.2134    1.1231 C.2       1 <0>         0.0000
      4 O1          0.4011   -1.4382    2.0459 O.2       1 <0>         0.0000
      5 O2         -2.4598    2.6361   -0.4024 O.2       1 <0>         0.0000
      6 O3         -1.0598   -2.1916    0.5194 O.3       1 <0>         0.0000
      7 O4         -3.6272    0.5023    0.5892 O.3       1 <0>         0.0000
      8 O5         -3.4179    0.7223   -1.9100 O.3       1 <0>         0.0000
      9 O6         -1.4386    0.1972   -0.5340 O.3       1 <0>         0.0000
     10 P1         -2.7215    1.1911   -0.5430 P.3       1 <0>         0.0000
     11 H1         -0.0922    2.2338    0.6198 H         1 <0>         0.0000
     12 H2          0.7478    1.1164    1.8745 H         1 <0>         0.0000
     13 H3         -1.6004   -1.8004   -0.1930 H         1 <0>         0.0000
     14 H4         -4.1993    1.1402    1.0498 H         1 <0>         0.0000
     15 H5         -3.2774    1.3656   -2.6263 H         1 <0>         0.0000
@<TRIPOS>BOND
     1    1    2 2
     2    1   11 1
     3    1   12 1
     4    2    3 1
     5    2    9 1
     6    3    4 2
     7    3    6 1
     8    5   10 2
     9    6   13 1
    10    7   10 1
    11    7   14 1
    12    8   10 1
    13    8   15 1
    14    9   10 1
