@<TRIPOS>MOLECULE
*****
   15    14     0     0     0
SMALL
NO_CHARGES

@<TRIPOS>ATOM
      1 C1          1.2175    0.7136   -0.2243 C.2       1 <0>         0.0000
      2 C2          0.3160   -0.2540   -0.3844 C.2       1 <0>         0.0000
      3 C3         -0.3763   -0.9176    0.7784 C.2       1 <0>         0.0000
      4 O1         -0.1711   -0.5970    1.9270 O.2       1 <0>         0.0000
      5 O2         -0.7950   -0.9005   -4.0742 O.2       1 <0>         0.0000
      6 O3         -1.2476   -1.8977    0.4507 O.3       1 <0>         0.0000
      7 O4          1.5470    0.0307   -3.2795 O.3       1 <0>         0.0000
      8 O5         -0.5021    1.3997   -2.8648 O.3       1 <0>         0.0000
      9 O6         -0.0995   -0.8001   -1.6069 O.3       1 <0>         0.0000
     10 P1         -0.0375   -0.1291   -3.0768 P.3       1 <0>         0.0000
     11 H1          1.7290    1.1859   -1.0542 H         1 <0>         0.0000
     12 H2          1.4387    1.0302    0.7883 H         1 <0>         0.0000
     13 H3         -1.2557   -2.0114   -0.5191 H         1 <0>         0.0000
     14 H4          1.8015    0.0803   -4.2177 H         1 <0>         0.0000
     15 H5         -1.4383    1.5287   -3.0982 H         1 <0>         0.0000
@<TRIPOS>BOND
     1    1    2 2
     2    1   11 1
     3    1   12 1
     4    2    3 1
     5    2    9 1
     6    3    4 2
     7    3    6 1
     8    5   10 2
     9    6   13 1
    10    7   10 1
    11    7   14 1
    12    8   10 1
    13    8   15 1
    14    9   10 1
