@<TRIPOS>MOLECULE
*****
   29    30     0     0     0
SMALL
NO_CHARGES

@<TRIPOS>ATOM
      1 C1          1.5910   -3.5130   -1.3350 C.ar      1 <0>         0.0000
      2 C2          0.4190   -3.2050   -0.6510 C.ar      1 <0>         0.0000
      3 C3          4.7320    1.6400   -0.8420 C.ar      1 <0>         0.0000
      4 C4          5.9790    1.0780   -0.6080 C.ar      1 <0>         0.0000
      5 C5          2.6800   -2.6530   -1.2670 C.ar      1 <0>         0.0000
      6 C6          0.3390   -2.0480    0.1120 C.ar      1 <0>         0.0000
      7 C7          3.6260    0.8060   -0.8110 C.ar      1 <0>         0.0000
      8 C8          6.0760   -0.2860   -0.3550 C.ar      1 <0>         0.0000
      9 C9          2.6250   -1.4660   -0.5230 C.ar      1 <0>         0.0000
     10 C10         1.4390   -1.1810    0.1990 C.ar      1 <0>         0.0000
     11 C11         3.7750   -0.5620   -0.5470 C.ar      1 <0>         0.0000
     12 C12         0.0500    0.5950    1.2690 C.3       1 <0>         0.0000
     13 C13         2.2190   -0.0800    2.2280 C.3       1 <0>         0.0000
     14 N1          5.0050   -1.0740   -0.3290 N.ar      1 <0>         0.0000
     15 N2          1.3580   -0.0360    1.0290 N.pl3     1 <0>         0.0000
     16 H1          1.6530   -4.4020   -1.9090 H         1 <0>         0.0000
     17 H2         -0.4120   -3.8610   -0.7080 H         1 <0>         0.0000
     18 H3          4.6280    2.6760   -1.0380 H         1 <0>         0.0000
     19 H4          6.8500    1.6790   -0.6210 H         1 <0>         0.0000
     20 H5          3.5690   -2.8910   -1.7930 H         1 <0>         0.0000
     21 H6         -0.5500   -1.8380    0.6430 H         1 <0>         0.0000
     22 H7          2.6570    1.1960   -0.9820 H         1 <0>         0.0000
     23 H8          7.0230   -0.7300   -0.1760 H         1 <0>         0.0000
     24 H9         -0.4770    0.6300    0.3250 H         1 <0>         0.0000
     25 H10         0.2300    1.5970    1.6350 H         1 <0>         0.0000
     26 H11        -0.4840    0.0040    2.0010 H         1 <0>         0.0000
     27 H12         2.3560    0.9350    2.5760 H         1 <0>         0.0000
     28 H13         3.1730   -0.5170    1.9660 H         1 <0>         0.0000
     29 H14         1.7210   -0.6890    2.9710 H         1 <0>         0.0000
@<TRIPOS>BOND
     1    1    2 ar
     2    1    5 ar
     3    1   16 1
     4    2    6 ar
     5    2   17 1
     6    3    4 ar
     7    3    7 ar
     8    3   18 1
     9    4    8 ar
    10    4   19 1
    11    5    9 ar
    12    5   20 1
    13    6   10 ar
    14    6   21 1
    15    7   11 ar
    16    7   22 1
    17    8   14 ar
    18    8   23 1
    19    9   10 ar
    20    9   11 1
    21   10   15 1
    22   11   14 ar
    23   12   15 1
    24   12   24 1
    25   12   25 1
    26   12   26 1
    27   13   15 1
    28   13   27 1
    29   13   28 1
    30   13   29 1
