@<TRIPOS>MOLECULE
*****
   48    51     0     0     0
SMALL
NO_CHARGES

@<TRIPOS>ATOM
      1 C1          4.9842   -4.3840    0.0323 C.ar      1 <0>         0.0000
      2 C2          6.7416   -3.5381    1.4566 C.ar      1 <0>         0.0000
      3 C3          4.4641   -2.0323    2.8325 C.ar      1 <0>         0.0000
      4 C4          3.6695   -1.7040    0.5810 C.ar      1 <0>         0.0000
      5 C5          5.8542   -5.3431   -0.4854 C.ar      1 <0>         0.0000
      6 C6          7.6206   -4.4913    0.9443 C.ar      1 <0>         0.0000
      7 C7          3.5657   -1.0693    3.2926 C.ar      1 <0>         0.0000
      8 C8          2.7821   -0.7256    1.0225 C.ar      1 <0>         0.0000
      9 C9          7.6101   -2.9284   -2.1968 C.ar      1 <0>         0.0000
     10 C10         9.6565   -2.4725   -0.9753 C.ar      1 <0>         0.0000
     11 C11         0.8238   -3.1202    2.5354 C.ar      1 <0>         0.0000
     12 C12        -0.4646   -2.2327    0.6777 C.ar      1 <0>         0.0000
     13 C13         7.0708   -1.7277   -1.7346 C.ar      1 <0>         0.0000
     14 C14         9.1238   -1.2623   -0.5255 C.ar      1 <0>         0.0000
     15 C15         1.2398   -4.1902    1.7413 C.ar      1 <0>         0.0000
     16 C16        -0.0539   -3.3029   -0.1198 C.ar      1 <0>         0.0000
     17 C17         5.4200   -3.4503    0.9898 C.ar      1 <0>         0.0000
     18 C18         4.5118   -2.3873    1.4749 C.ar      1 <0>         0.0000
     19 C19         7.1777   -5.3653   -0.0466 C.ar      1 <0>         0.0000
     20 C20         2.7136   -0.4390    2.3863 C.ar      1 <0>         0.0000
     21 C21         8.8882   -3.3089   -1.7858 C.ar      1 <0>         0.0000
     22 C22        -0.0084   -2.1417    1.9930 C.ar      1 <0>         0.0000
     23 C23         7.8232   -0.9096   -0.8902 C.ar      1 <0>         0.0000
     24 C24         0.8035   -4.2657    0.4174 C.ar      1 <0>         0.0000
     25 O1          8.1266   -6.2307   -0.6218 O.3       1 <0>         0.0000
     26 O2          1.7834    0.4540    2.9449 O.3       1 <0>         0.0000
     27 O3          9.4801   -4.5376   -2.1224 O.3       1 <0>         0.0000
     28 O4         -0.3670   -1.0583    2.8099 O.3       1 <0>         0.0000
     29 S1          8.4899   -5.8962   -2.2341 S.3       1 <0>         0.0000
     30 S2          0.2229    0.4466    2.3194 S.3       1 <0>         0.0000
     31 Cl1         7.1104    0.5666   -0.2624 Cl        1 <0>         0.0000
     32 Cl2         1.3470   -5.5956   -0.5977 Cl        1 <0>         0.0000
     33 H1          3.9525   -4.3675   -0.3056 H         1 <0>         0.0000
     34 H2          7.1063   -2.8125    2.1779 H         1 <0>         0.0000
     35 H3          5.0980   -2.5510    3.5465 H         1 <0>         0.0000
     36 H4          3.7144   -1.9362   -0.4791 H         1 <0>         0.0000
     37 H5          5.5202   -6.0477   -1.2414 H         1 <0>         0.0000
     38 H6          8.6593   -4.5260    1.2566 H         1 <0>         0.0000
     39 H7          3.4866   -0.8273    4.3482 H         1 <0>         0.0000
     40 H8          2.1231   -0.2230    0.3229 H         1 <0>         0.0000
     41 H9          7.0170   -3.5835   -2.8246 H         1 <0>         0.0000
     42 H10        10.6503   -2.7911   -0.6761 H         1 <0>         0.0000
     43 H11         1.1720   -3.0183    3.5576 H         1 <0>         0.0000
     44 H12        -1.1189   -1.4653    0.2753 H         1 <0>         0.0000
     45 H13         6.0647   -1.4369   -2.0180 H         1 <0>         0.0000
     46 H14         9.7043   -0.6143    0.1233 H         1 <0>         0.0000
     47 H15         1.9119   -4.9426    2.1407 H         1 <0>         0.0000
     48 H16        -0.3940   -3.3869   -1.1470 H         1 <0>         0.0000
@<TRIPOS>BOND
     1    1    5 ar
     2    1   17 ar
     3    1   33 1
     4    2    6 ar
     5    2   17 ar
     6    2   34 1
     7    3    7 ar
     8    3   18 ar
     9    3   35 1
    10    4    8 ar
    11    4   18 ar
    12    4   36 1
    13    5   19 ar
    14    5   37 1
    15    6   19 ar
    16    6   38 1
    17    7   20 ar
    18    7   39 1
    19    8   20 ar
    20    8   40 1
    21    9   13 ar
    22    9   21 ar
    23    9   41 1
    24   10   14 ar
    25   10   21 ar
    26   10   42 1
    27   11   15 ar
    28   11   22 ar
    29   11   43 1
    30   12   16 ar
    31   12   22 ar
    32   12   44 1
    33   13   23 ar
    34   13   45 1
    35   14   23 ar
    36   14   46 1
    37   15   24 ar
    38   15   47 1
    39   16   24 ar
    40   16   48 1
    41   17   18 1
    42   19   25 1
    43   20   26 1
    44   21   27 1
    45   22   28 1
    46   23   31 1
    47   24   32 1
    48   25   29 1
    49   26   30 1
    50   27   29 1
    51   28   30 1
