@<TRIPOS>MOLECULE
*****
   24    24     0     0     0
SMALL
NO_CHARGES

@<TRIPOS>ATOM
      1 C1          1.9586   -1.0412   -0.1635 C.ar      1 <0>         0.0000
      2 C2          3.1002   -0.9087    0.6338 C.ar      1 <0>         0.0000
      3 C3          0.7079   -1.2083    0.4391 C.ar      1 <0>         0.0000
      4 C4          2.9951   -0.9520    2.0256 C.ar      1 <0>         0.0000
      5 C5          0.6031   -1.2479    1.8313 C.ar      1 <0>         0.0000
      6 C6          1.7447   -1.1319    2.6361 C.ar      1 <0>         0.0000
      7 C7          2.6675   -1.9911    4.8713 C.3       1 <0>         0.0000
      8 C8          1.2657    0.4591    6.5113 C.3       1 <0>         0.0000
      9 C9          1.6041   -1.1700    4.1385 C.3       1 <0>         0.0000
     10 O1          2.9858    1.1151    4.5928 O.2       1 <0>         0.0000
     11 O2          0.4749    1.2802    4.1184 O.2       1 <0>         0.0000
     12 S1          1.6169    0.5871    4.7369 S.o2      1 <0>         0.0000
     13 H1          2.0426   -1.0077   -1.2467 H         1 <0>         0.0000
     14 H2          4.0733   -0.7646    0.1718 H         1 <0>         0.0000
     15 H3         -0.1853   -1.3017   -0.1730 H         1 <0>         0.0000
     16 H4          3.8841   -0.8231    2.6344 H         1 <0>         0.0000
     17 H5         -0.3727   -1.3584    2.2974 H         1 <0>         0.0000
     18 H6          3.6540   -1.5307    4.7861 H         1 <0>         0.0000
     19 H7          2.4311   -2.1016    5.9332 H         1 <0>         0.0000
     20 H8          2.7131   -2.9909    4.4306 H         1 <0>         0.0000
     21 H9          1.1256    1.4870    6.8514 H         1 <0>         0.0000
     22 H10         0.3468   -0.1114    6.6580 H         1 <0>         0.0000
     23 H11         2.1124    0.0033    7.0241 H         1 <0>         0.0000
     24 H12         0.5998   -1.5185    4.3975 H         1 <0>         0.0000
@<TRIPOS>BOND
     1    1    3 ar
     2    1    2 ar
     3    1   13 1
     4    2    4 ar
     5    2   14 1
     6    3    5 ar
     7    3   15 1
     8    4    6 ar
     9    4   16 1
    10    5    6 ar
    11    5   17 1
    12    6    9 1
    13    7    9 1
    14    7   18 1
    15    7   19 1
    16    7   20 1
    17    8   12 1
    18    8   21 1
    19    8   22 1
    20    8   23 1
    21    9   12 1
    22    9   24 1
    23   10   12 2
    24   11   12 2
