@<TRIPOS>MOLECULE
*****
   41    42     0     0     0
SMALL
NO_CHARGES

@<TRIPOS>ATOM
      1 C1         -2.2688   -3.7372   -0.5416 C.ar      1 <0>         0.0000
      2 C2         -3.5893   -4.1001   -0.8391 C.ar      1 <0>         0.0000
      3 C3         -3.0676   -1.6429    0.3472 C.ar      1 <0>         0.0000
      4 C4         -1.9951   -2.5090    0.0623 C.ar      1 <0>         0.0000
      5 C5         -4.6508   -3.2500   -0.5515 C.ar      1 <0>         0.0000
      6 C6         -4.3866   -1.9942    0.0462 C.ar      1 <0>         0.0000
      7 C7          1.5950   -2.6115    1.2966 C.2       1 <0>         0.0000
      8 C8         -6.5757    0.8472    0.8457 C.2       1 <0>         0.0000
      9 C9         -7.3323    1.2020   -0.2070 C.2       1 <0>         0.0000
     10 C10         0.5194   -3.1335    0.3436 C.3       1 <0>         0.0000
     11 C11        -0.4142   -1.4507    1.7985 C.3       1 <0>         0.0000
     12 C12        -0.5830   -2.0617    0.3816 C.3       1 <0>         0.0000
     13 C13        -8.6652    1.8818   -0.0174 C.3       1 <0>         0.0000
     14 C14        -6.9454    0.9307   -1.6389 C.3       1 <0>         0.0000
     15 C15        -6.8413   -3.8447    0.1601 C.3       1 <0>         0.0000
     16 C16        -5.2507    0.1439    0.7439 C.3       1 <0>         0.0000
     17 N1          1.0171   -1.6028    2.0304 N.am      1 <0>         0.0000
     18 O1          2.7438   -3.0169    1.4124 O.2       1 <0>         0.0000
     19 O2         -5.9239   -3.6201   -0.9215 O.3       1 <0>         0.0000
     20 O3         -5.4751   -1.2012    0.2779 O.3       1 <0>         0.0000
     21 H1         -1.4646   -4.4215   -0.7912 H         1 <0>         0.0000
     22 H2         -3.8145   -5.0518   -1.3124 H         1 <0>         0.0000
     23 H3         -2.8603   -0.6793    0.7993 H         1 <0>         0.0000
     24 H4         -6.9431    1.0488    1.8500 H         1 <0>         0.0000
     25 H5          0.9368   -3.3209   -0.6470 H         1 <0>         0.0000
     26 H6          0.1698   -4.0904    0.7486 H         1 <0>         0.0000
     27 H7         -0.7095   -0.3981    1.8391 H         1 <0>         0.0000
     28 H8         -1.0116   -2.0060    2.5350 H         1 <0>         0.0000
     29 H9         -0.3003   -1.2771   -0.3323 H         1 <0>         0.0000
     30 H10        -8.6802    2.8552   -0.5239 H         1 <0>         0.0000
     31 H11        -9.4710    1.2843   -0.4621 H         1 <0>         0.0000
     32 H12        -8.8984    2.0397    1.0390 H         1 <0>         0.0000
     33 H13        -7.6291    0.1938   -2.0778 H         1 <0>         0.0000
     34 H14        -7.0314    1.8436   -2.2408 H         1 <0>         0.0000
     35 H15        -5.9348    0.5336   -1.7430 H         1 <0>         0.0000
     36 H16        -7.7666   -4.1980   -0.2996 H         1 <0>         0.0000
     37 H17        -7.0326   -2.9234    0.7165 H         1 <0>         0.0000
     38 H18        -6.4529   -4.6165    0.8368 H         1 <0>         0.0000
     39 H19        -4.7602    0.1138    1.7244 H         1 <0>         0.0000
     40 H20        -4.5742    0.6515    0.0440 H         1 <0>         0.0000
     41 H21         1.4917   -1.2447    2.8504 H         1 <0>         0.0000
@<TRIPOS>BOND
     1    1    2 ar
     2    1    4 ar
     3    1   21 1
     4    2    5 ar
     5    2   22 1
     6    3    4 ar
     7    3    6 ar
     8    3   23 1
     9    4   12 1
    10    5    6 ar
    11    5   19 1
    12    6   20 1
    13    7   10 1
    14    7   17 am
    15    7   18 2
    16    8    9 2
    17    8   16 1
    18    8   24 1
    19    9   13 1
    20    9   14 1
    21   10   12 1
    22   10   25 1
    23   10   26 1
    24   11   12 1
    25   11   17 1
    26   11   27 1
    27   11   28 1
    28   12   29 1
    29   13   30 1
    30   13   31 1
    31   13   32 1
    32   14   33 1
    33   14   34 1
    34   14   35 1
    35   15   19 1
    36   15   36 1
    37   15   37 1
    38   15   38 1
    39   16   20 1
    40   16   39 1
    41   16   40 1
    42   17   41 1
