@<TRIPOS>MOLECULE
*****
   32    34     0     0     0
SMALL
NO_CHARGES

@<TRIPOS>ATOM
      1 C1          1.6917   -1.4343   -0.1874 C.ar      1 <0>         0.0000
      2 C2          2.9687   -1.3270    1.8497 C.ar      1 <0>         0.0000
      3 C3          0.5943   -0.8649    0.4629 C.ar      1 <0>         0.0000
      4 C4          1.8816   -0.7586    2.5143 C.ar      1 <0>         0.0000
      5 C5          6.0629   -4.2100   -3.6545 C.2       1 <0>         0.0000
      6 C6          5.7987   -4.7041   -1.6280 C.2       1 <0>         0.0000
      7 C7          2.8939   -1.6785    0.4927 C.ar      1 <0>         0.0000
      8 C8          0.6958   -0.5315    1.8135 C.ar      1 <0>         0.0000
      9 C9          4.4856   -0.0944   -1.6596 C.3       1 <0>         0.0000
     10 C10         5.0737    0.2307   -0.2899 C.3       1 <0>         0.0000
     11 C11         5.0164   -1.1833   -0.7813 C.3       1 <0>         0.0000
     12 C12         3.6999   -3.3078   -1.2597 C.3       1 <0>         0.0000
     13 C13         4.1313   -2.2799   -0.1819 C.3       1 <0>         0.0000
     14 N1          6.6184   -4.9408   -2.6423 N.2       1 <0>         0.0000
     15 N2          4.9582   -3.5497   -3.3300 N.2       1 <0>         0.0000
     16 N3          4.7945   -3.8824   -2.0153 N.pl3     1 <0>         0.0000
     17 O1          4.9523   -2.9441    0.7901 O.3       1 <0>         0.0000
     18 F1          6.2451   -1.6883   -1.1755 F         1 <0>         0.0000
     19 Cl1        -0.6776    0.1810    2.6372 Cl        1 <0>         0.0000
     20 H1          1.5839   -1.6763   -1.2391 H         1 <0>         0.0000
     21 H2          3.8980   -1.4851    2.3873 H         1 <0>         0.0000
     22 H3         -0.3302   -0.6832   -0.0758 H         1 <0>         0.0000
     23 H4          1.9556   -0.4891    3.5632 H         1 <0>         0.0000
     24 H5          6.4762   -4.1670   -4.6540 H         1 <0>         0.0000
     25 H6          5.9012   -5.0745   -0.6179 H         1 <0>         0.0000
     26 H7          3.4134    0.0035   -1.7919 H         1 <0>         0.0000
     27 H8          5.0837    0.1318   -2.5359 H         1 <0>         0.0000
     28 H9          6.0640    0.6737   -0.2653 H         1 <0>         0.0000
     29 H10         4.4003    0.5474    0.4979 H         1 <0>         0.0000
     30 H11         3.1331   -4.1065   -0.7680 H         1 <0>         0.0000
     31 H12         3.0553   -2.8455   -2.0041 H         1 <0>         0.0000
     32 H13         4.3824   -3.5584    1.2825 H         1 <0>         0.0000
@<TRIPOS>BOND
     1    1    3 ar
     2    1    7 ar
     3    1   20 1
     4    2    4 ar
     5    2    7 ar
     6    2   21 1
     7    3    8 ar
     8    3   22 1
     9    4    8 ar
    10    4   23 1
    11    5   14 1
    12    5   15 2
    13    5   24 1
    14    6   14 2
    15    6   16 1
    16    6   25 1
    17    7   13 1
    18    8   19 1
    19    9   10 1
    20    9   11 1
    21    9   26 1
    22    9   27 1
    23   10   11 1
    24   10   28 1
    25   10   29 1
    26   11   13 1
    27   11   18 1
    28   12   13 1
    29   12   16 1
    30   12   30 1
    31   12   31 1
    32   13   17 1
    33   15   16 1
    34   17   32 1
