@<TRIPOS>MOLECULE
*****
   39    41     0     0     0
SMALL
NO_CHARGES

@<TRIPOS>ATOM
      1 C1          1.0747   -3.1768   -2.0399 C.ar      1 <0>         0.0000
      2 C2          1.3922   -4.5159   -2.2856 C.ar      1 <0>         0.0000
      3 C3          2.0073   -3.3794    0.1818 C.ar      1 <0>         0.0000
      4 C4          1.3751   -2.6064   -0.7995 C.ar      1 <0>         0.0000
      5 C5          2.0217   -5.2944   -1.3164 C.ar      1 <0>         0.0000
      6 C6          2.3438   -4.7157   -0.0677 C.ar      1 <0>         0.0000
      7 C7          0.3219   -0.0967    1.4190 C.2       1 <0>         0.0000
      8 C8          3.2330   -7.0493    3.6452 C.3       1 <0>         0.0000
      9 C9          4.0139   -5.9875    4.3898 C.3       1 <0>         0.0000
     10 C10        -0.5246   -0.9116   -0.5972 C.3       1 <0>         0.0000
     11 C11         4.0629   -6.0452    2.8779 C.3       1 <0>         0.0000
     12 C12         1.0087   -1.1590   -0.5298 C.3       1 <0>         0.0000
     13 C13         1.7827   -0.1894   -1.4282 C.3       1 <0>         0.0000
     14 C14         1.7168   -7.6113   -0.8617 C.3       1 <0>         0.0000
     15 C15         3.3757   -4.9667    2.0904 C.3       1 <0>         0.0000
     16 N1         -0.6908    0.0430    0.4888 N.am      1 <0>         0.0000
     17 O1          0.3654    0.3431    2.5467 O.2       1 <0>         0.0000
     18 O2          1.3346   -0.8235    0.8501 O.3       1 <0>         0.0000
     19 O3          2.3684   -6.5882   -1.6307 O.3       1 <0>         0.0000
     20 O4          2.9816   -5.5251    0.8271 O.3       1 <0>         0.0000
     21 H1          0.5875   -2.5934   -2.8170 H         1 <0>         0.0000
     22 H2          1.1646   -4.9802   -3.2410 H         1 <0>         0.0000
     23 H3          2.2377   -2.9189    1.1327 H         1 <0>         0.0000
     24 H4          3.5864   -8.0750    3.6900 H         1 <0>         0.0000
     25 H5          2.1523   -6.9462    3.5997 H         1 <0>         0.0000
     26 H6          3.4571   -5.1764    4.8512 H         1 <0>         0.0000
     27 H7          4.9020   -6.2879    4.9373 H         1 <0>         0.0000
     28 H8         -0.8196   -0.4890   -1.5615 H         1 <0>         0.0000
     29 H9         -1.0822   -1.8402   -0.4267 H         1 <0>         0.0000
     30 H10         4.9833   -6.4123    2.4310 H         1 <0>         0.0000
     31 H11         1.4742    0.8411   -1.2268 H         1 <0>         0.0000
     32 H12         1.6022   -0.4129   -2.4831 H         1 <0>         0.0000
     33 H13         2.8537   -0.2840   -1.2332 H         1 <0>         0.0000
     34 H14         2.0399   -8.5610   -1.2928 H         1 <0>         0.0000
     35 H15         0.6267   -7.5219   -0.9529 H         1 <0>         0.0000
     36 H16         2.0073   -7.5636    0.1909 H         1 <0>         0.0000
     37 H17         4.0465   -4.1150    1.9185 H         1 <0>         0.0000
     38 H18         2.4903   -4.6037    2.6291 H         1 <0>         0.0000
     39 H19        -1.6046    0.2779    0.8545 H         1 <0>         0.0000
@<TRIPOS>BOND
     1    1    2 ar
     2    1    4 ar
     3    1   21 1
     4    2    5 ar
     5    2   22 1
     6    3    4 ar
     7    3    6 ar
     8    3   23 1
     9    4   12 1
    10    5    6 ar
    11    5   19 1
    12    6   20 1
    13    7   16 am
    14    7   17 2
    15    7   18 1
    16    8    9 1
    17    8   11 1
    18    8   24 1
    19    8   25 1
    20    9   11 1
    21    9   26 1
    22    9   27 1
    23   10   12 1
    24   10   16 1
    25   10   28 1
    26   10   29 1
    27   11   15 1
    28   11   30 1
    29   12   13 1
    30   12   18 1
    31   13   31 1
    32   13   32 1
    33   13   33 1
    34   14   19 1
    35   14   34 1
    36   14   35 1
    37   14   36 1
    38   15   20 1
    39   15   37 1
    40   15   38 1
    41   16   39 1
