@<TRIPOS>MOLECULE
*****
   67    71     0     0     0
SMALL
NO_CHARGES

@<TRIPOS>ATOM
      1 C1          2.8320    0.4280    2.3831 C.1       1 <0>         0.0000
      2 C2          3.5878    1.3737    2.5139 C.1       1 <0>         0.0000
      3 C3         -3.6087   -7.2753    2.6975 C.ar      1 <0>         0.0000
      4 C4         -3.3071   -8.2175    1.7101 C.ar      1 <0>         0.0000
      5 C5          0.8623   -0.5891    1.2963 C.ar      1 <0>         0.0000
      6 C6         -2.7380   -6.2047    2.9149 C.ar      1 <0>         0.0000
      7 C7         -2.1492   -8.0761    0.9390 C.ar      1 <0>         0.0000
      8 C8         -0.0215   -1.6387    1.1259 C.ar      1 <0>         0.0000
      9 C9          2.0912   -1.8424    2.9724 C.ar      1 <0>         0.0000
     10 C10         1.9375   -0.6704    2.2252 C.ar      1 <0>         0.0000
     11 C11         1.1931   -2.9077    2.8049 C.ar      1 <0>         0.0000
     12 C12        -1.5708   -6.0757    2.1537 C.ar      1 <0>         0.0000
     13 C13        -1.2664   -7.0063    1.1416 C.ar      1 <0>         0.0000
     14 C14         0.1259   -2.8208    1.8807 C.ar      1 <0>         0.0000
     15 C15         1.3482   -4.1285    3.5823 C.2       1 <0>         0.0000
     16 C16        -0.6427   -4.9305    2.3964 C.2       1 <0>         0.0000
     17 C17         2.3466   -9.5498    3.0690 C.3       1 <0>         0.0000
     18 C18         4.7706    3.3766    1.4355 C.3       1 <0>         0.0000
     19 C19         3.8958    3.9180    2.5294 C.3       1 <0>         0.0000
     20 C20         1.1486   -8.6728    3.4525 C.3       1 <0>         0.0000
     21 C21         3.4489   -9.5177    4.1269 C.3       1 <0>         0.0000
     22 C22         2.6767   -7.2741    4.8720 C.3       1 <0>         0.0000
     23 C23         4.4656    2.5047    2.6538 C.3       1 <0>         0.0000
     24 C24         1.6098   -7.2459    3.7769 C.3       1 <0>         0.0000
     25 C25        -0.0478   -6.8316    0.2647 C.3       1 <0>         0.0000
     26 C26         4.7721   -8.2825    6.7798 C.3       1 <0>         0.0000
     27 C27         5.7435   -6.6016    5.1291 C.3       1 <0>         0.0000
     28 C28         0.4490   -6.3075    4.1934 C.3       1 <0>         0.0000
     29 C29         5.1033   -7.9754    5.3226 C.3       1 <0>         0.0000
     30 N1         -0.7664   -3.8605    1.6819 N.2       1 <0>         0.0000
     31 N2          0.3566   -5.0979    3.3649 N.am      1 <0>         0.0000
     32 N3          3.8650   -8.0915    4.4167 N.4       1 <0>         0.0000
     33 O1          2.2671   -4.3556    4.3842 O.2       1 <0>         0.0000
     34 H1         -4.5158   -7.3678    3.2878 H         1 <0>         0.0000
     35 H2         -3.9782   -9.0528    1.5300 H         1 <0>         0.0000
     36 H3          0.7444    0.3213    0.7161 H         1 <0>         0.0000
     37 H4         -2.9659   -5.4610    3.6746 H         1 <0>         0.0000
     38 H5         -1.9347   -8.7998    0.1562 H         1 <0>         0.0000
     39 H6         -0.8417   -1.5783    0.4172 H         1 <0>         0.0000
     40 H7          2.8974   -1.9381    3.6915 H         1 <0>         0.0000
     41 H8          2.0425  -10.5922    2.9353 H         1 <0>         0.0000
     42 H9          2.7580   -9.2211    2.1057 H         1 <0>         0.0000
     43 H10         4.3027    3.0905    0.4995 H         1 <0>         0.0000
     44 H11         5.7852    3.7524    1.3471 H         1 <0>         0.0000
     45 H12         4.3046    4.6681    3.1991 H         1 <0>         0.0000
     46 H13         2.8308    4.0013    2.3406 H         1 <0>         0.0000
     47 H14         0.4179   -8.6586    2.6399 H         1 <0>         0.0000
     48 H15         0.6391   -9.0986    4.3268 H         1 <0>         0.0000
     49 H16         3.1082   -9.9425    5.0727 H         1 <0>         0.0000
     50 H17         4.3408  -10.0579    3.8020 H         1 <0>         0.0000
     51 H18         3.0092   -6.2622    5.0919 H         1 <0>         0.0000
     52 H19         2.2984   -7.7495    5.7794 H         1 <0>         0.0000
     53 H20         5.2753    2.3749    3.3671 H         1 <0>         0.0000
     54 H21         2.0678   -6.8139    2.8780 H         1 <0>         0.0000
     55 H22        -0.1605   -5.9538   -0.3799 H         1 <0>         0.0000
     56 H23         0.8646   -6.6719    0.8508 H         1 <0>         0.0000
     57 H24         0.1080   -7.7047   -0.3738 H         1 <0>         0.0000
     58 H25         4.1598   -7.4989    7.2322 H         1 <0>         0.0000
     59 H26         4.2723   -9.2463    6.9070 H         1 <0>         0.0000
     60 H27         5.7099   -8.3291    7.3391 H         1 <0>         0.0000
     61 H28         5.1143   -5.7912    5.5044 H         1 <0>         0.0000
     62 H29         5.9772   -6.4048    4.0770 H         1 <0>         0.0000
     63 H30         6.6858   -6.5745    5.6819 H         1 <0>         0.0000
     64 H31         0.5735   -5.9818    5.2292 H         1 <0>         0.0000
     65 H32        -0.4975   -6.8368    4.1214 H         1 <0>         0.0000
     66 H33         5.7796   -8.7426    4.9342 H         1 <0>         0.0000
     67 H34         4.1538   -7.6869    3.5193 H         1 <0>         0.0000
@<TRIPOS>BOND
     1    1    2 3
     2    1   10 1
     3    2   23 1
     4    3    4 ar
     5    3    6 ar
     6    3   34 1
     7    4    7 ar
     8    4   35 1
     9    5    8 ar
    10    5   10 ar
    11    5   36 1
    12    6   12 ar
    13    6   37 1
    14    7   13 ar
    15    7   38 1
    16    8   14 ar
    17    8   39 1
    18    9   10 ar
    19    9   11 ar
    20    9   40 1
    21   11   14 ar
    22   11   15 1
    23   12   13 ar
    24   12   16 1
    25   13   25 1
    26   14   30 1
    27   15   31 am
    28   15   33 2
    29   16   30 2
    30   16   31 1
    31   17   20 1
    32   17   21 1
    33   17   41 1
    34   17   42 1
    35   18   19 1
    36   18   23 1
    37   18   43 1
    38   18   44 1
    39   19   23 1
    40   19   45 1
    41   19   46 1
    42   20   24 1
    43   20   47 1
    44   20   48 1
    45   21   32 1
    46   21   49 1
    47   21   50 1
    48   22   24 1
    49   22   32 1
    50   22   51 1
    51   22   52 1
    52   23   53 1
    53   24   28 1
    54   24   54 1
    55   25   55 1
    56   25   56 1
    57   25   57 1
    58   26   29 1
    59   26   58 1
    60   26   59 1
    61   26   60 1
    62   27   29 1
    63   27   61 1
    64   27   62 1
    65   27   63 1
    66   28   31 1
    67   28   64 1
    68   28   65 1
    69   29   32 1
    70   29   66 1
    71   32   67 1
