@<TRIPOS>MOLECULE
*****
   32    34     0     0     0
SMALL
NO_CHARGES

@<TRIPOS>ATOM
      1 C1          2.8406   -0.3622    0.2406 C.ar      1 <0>         0.0000
      2 C2          2.1477   -2.4972    1.1203 C.ar      1 <0>         0.0000
      3 C3          1.7228    0.2425    0.8202 C.ar      1 <0>         0.0000
      4 C4          1.0317   -1.9067    1.7111 C.ar      1 <0>         0.0000
      5 C5          0.7758   -2.2277   -2.8766 C.2       1 <0>         0.0000
      6 C6          2.7863   -1.7581   -3.2808 C.2       1 <0>         0.0000
      7 C7          3.0706   -1.7356    0.3879 C.ar      1 <0>         0.0000
      8 C8          0.8279   -0.5349    1.5549 C.ar      1 <0>         0.0000
      9 C9          6.3175   -0.8722    0.3449 C.3       1 <0>         0.0000
     10 C10         6.8303   -1.9346   -0.6268 C.3       1 <0>         0.0000
     11 C11         5.3980   -1.5061   -0.6465 C.3       1 <0>         0.0000
     12 C12         3.8034   -3.2765   -1.5026 C.3       1 <0>         0.0000
     13 C13         4.2531   -2.4466   -0.2588 C.3       1 <0>         0.0000
     14 N1          1.5607   -1.4502   -3.6820 N.2       1 <0>         0.0000
     15 N2          1.4377   -2.9907   -2.0164 N.2       1 <0>         0.0000
     16 N3          2.7405   -2.6798   -2.2877 N.pl3     1 <0>         0.0000
     17 O1          4.7916   -3.4352    0.6357 O.3       1 <0>         0.0000
     18 F1          5.0560   -0.6976   -1.7366 F         1 <0>         0.0000
     19 Cl1        -0.5772    0.2203    2.2878 Cl        1 <0>         0.0000
     20 H1          3.5209    0.2508   -0.3382 H         1 <0>         0.0000
     21 H2          2.2886   -3.5694    1.2157 H         1 <0>         0.0000
     22 H3          1.5483    1.3069    0.6993 H         1 <0>         0.0000
     23 H4          0.3205   -2.5047    2.2719 H         1 <0>         0.0000
     24 H5         -0.3054   -2.2372   -2.9282 H         1 <0>         0.0000
     25 H6          3.7107   -1.3477   -3.6613 H         1 <0>         0.0000
     26 H7          6.2116   -1.1348    1.3932 H         1 <0>         0.0000
     27 H8          6.5992    0.1586    0.1563 H         1 <0>         0.0000
     28 H9          7.4432   -1.5894   -1.4534 H         1 <0>         0.0000
     29 H10         7.0596   -2.9196   -0.2372 H         1 <0>         0.0000
     30 H11         4.6641   -3.4668   -2.1478 H         1 <0>         0.0000
     31 H12         3.4275   -4.2305   -1.1346 H         1 <0>         0.0000
     32 H13         4.7194   -3.0874    1.5392 H         1 <0>         0.0000
@<TRIPOS>BOND
     1    1    3 ar
     2    1    7 ar
     3    1   20 1
     4    2    4 ar
     5    2    7 ar
     6    2   21 1
     7    3    8 ar
     8    3   22 1
     9    4    8 ar
    10    4   23 1
    11    5   14 1
    12    5   15 2
    13    5   24 1
    14    6   14 2
    15    6   16 1
    16    6   25 1
    17    7   13 1
    18    8   19 1
    19    9   10 1
    20    9   11 1
    21    9   26 1
    22    9   27 1
    23   10   11 1
    24   10   28 1
    25   10   29 1
    26   11   13 1
    27   11   18 1
    28   12   13 1
    29   12   16 1
    30   12   30 1
    31   12   31 1
    32   13   17 1
    33   15   16 1
    34   17   32 1
