@<TRIPOS>MOLECULE
*****
   53    57     0     0     0
SMALL
NO_CHARGES

@<TRIPOS>ATOM
      1 C1         -0.5884    1.1951    1.7153 C.ar      1 <0>         0.0000
      2 C2         -0.6760    0.0527    0.8826 C.ar      1 <0>         0.0000
      3 C3         -4.4430    2.2217    6.9751 C.ar      1 <0>         0.0000
      4 C4         -1.5647    1.4565    2.6664 C.ar      1 <0>         0.0000
      5 C5         -4.1917    1.2190    6.0289 C.ar      1 <0>         0.0000
      6 C6         -5.0889   -1.0205   -0.5321 C.ar      1 <0>         0.0000
      7 C7         -6.7615   -2.3440    0.6018 C.ar      1 <0>         0.0000
      8 C8         -1.7288   -0.8490    0.9887 C.ar      1 <0>         0.0000
      9 C9         -4.5861    3.5490    6.5857 C.ar      1 <0>         0.0000
     10 C10        -6.0479   -0.5611   -1.4365 C.ar      1 <0>         0.0000
     11 C11        -7.7356   -1.8991   -0.2980 C.ar      1 <0>         0.0000
     12 C12        -4.2369    2.8992    4.2732 C.ar      1 <0>         0.0000
     13 C13        -2.6516    0.5666    2.7829 C.ar      1 <0>         0.0000
     14 C14        -4.0950    1.5540    4.6709 C.ar      1 <0>         0.0000
     15 C15        -3.8024    0.5364    3.6388 C.2       1 <0>         0.0000
     16 C16        -5.4326   -1.9160    0.4928 C.ar      1 <0>         0.0000
     17 C17        -2.7155   -0.5891    1.9561 C.ar      1 <0>         0.0000
     18 C18        -4.4801    3.8950    5.2266 C.ar      1 <0>         0.0000
     19 C19        -7.3576   -1.0145   -1.3010 C.ar      1 <0>         0.0000
     20 C20        -4.5178   -0.6144    3.3121 C.2       1 <0>         0.0000
     21 C21        -5.7840   -1.1341    3.8803 C.2       1 <0>         0.0000
     22 C22        -4.1551    7.8856    2.3545 C.3       1 <0>         0.0000
     23 C23        -3.6088    8.0369    3.7579 C.3       1 <0>         0.0000
     24 C24        -4.7747    7.1111    3.4990 C.3       1 <0>         0.0000
     25 C25        -4.3855   -2.3988    1.4786 C.3       1 <0>         0.0000
     26 C26        -4.5681    5.6249    3.5607 C.3       1 <0>         0.0000
     27 N1         -3.8418   -1.3093    2.3019 N.pl3     1 <0>         0.0000
     28 O1         -6.1827   -2.2737    3.7135 O.2       1 <0>         0.0000
     29 O2         -6.5297   -0.2726    4.6138 O.3       1 <0>         0.0000
     30 O3         -4.6300    5.2194    4.9371 O.3       1 <0>         0.0000
     31 F1         -8.2966   -0.5731   -2.1792 F         1 <0>         0.0000
     32 H1          0.2572    1.8686    1.6056 H         1 <0>         0.0000
     33 H2          0.1021   -0.1278    0.1457 H         1 <0>         0.0000
     34 H3         -4.5207    1.9610    8.0271 H         1 <0>         0.0000
     35 H4         -1.4979    2.3265    3.3137 H         1 <0>         0.0000
     36 H5         -4.0604    0.1875    6.3415 H         1 <0>         0.0000
     37 H6         -4.0651   -0.6682   -0.6239 H         1 <0>         0.0000
     38 H7         -7.0433   -3.0112    1.4102 H         1 <0>         0.0000
     39 H8         -1.7695   -1.7231    0.3461 H         1 <0>         0.0000
     40 H9         -4.7787    4.3356    7.3093 H         1 <0>         0.0000
     41 H10        -5.7962    0.1309   -2.2344 H         1 <0>         0.0000
     42 H11        -8.7698   -2.2204   -0.2219 H         1 <0>         0.0000
     43 H12        -4.1667    3.1351    3.2182 H         1 <0>         0.0000
     44 H13        -4.7260    8.7058    1.9304 H         1 <0>         0.0000
     45 H14        -3.5568    7.3370    1.6318 H         1 <0>         0.0000
     46 H15        -2.6481    7.5818    3.9825 H         1 <0>         0.0000
     47 H16        -3.8029    8.9633    4.2894 H         1 <0>         0.0000
     48 H17        -5.7502    7.4445    3.8438 H         1 <0>         0.0000
     49 H18        -4.8034   -3.1552    2.1377 H         1 <0>         0.0000
     50 H19        -3.5373   -2.8424    0.9532 H         1 <0>         0.0000
     51 H20        -3.5894    5.3565    3.1399 H         1 <0>         0.0000
     52 H21        -5.3444    5.0976    2.9903 H         1 <0>         0.0000
     53 H22        -6.0771    0.5866    4.7174 H         1 <0>         0.0000
@<TRIPOS>BOND
     1    1    2 ar
     2    1    4 ar
     3    1   32 1
     4    2    8 ar
     5    2   33 1
     6    3    5 ar
     7    3    9 ar
     8    3   34 1
     9    4   13 ar
    10    4   35 1
    11    5   14 ar
    12    5   36 1
    13    6   10 ar
    14    6   16 ar
    15    6   37 1
    16    7   11 ar
    17    7   16 ar
    18    7   38 1
    19    8   17 ar
    20    8   39 1
    21    9   18 ar
    22    9   40 1
    23   10   19 ar
    24   10   41 1
    25   11   19 ar
    26   11   42 1
    27   12   14 ar
    28   12   18 ar
    29   12   43 1
    30   13   15 1
    31   13   17 ar
    32   14   15 1
    33   15   20 2
    34   16   25 1
    35   17   27 1
    36   18   30 1
    37   19   31 1
    38   20   21 1
    39   20   27 1
    40   21   28 2
    41   21   29 1
    42   22   23 1
    43   22   24 1
    44   22   44 1
    45   22   45 1
    46   23   24 1
    47   23   46 1
    48   23   47 1
    49   24   26 1
    50   24   48 1
    51   25   27 1
    52   25   49 1
    53   25   50 1
    54   26   30 1
    55   26   51 1
    56   26   52 1
    57   29   53 1
