@<TRIPOS>MOLECULE
*****
   73    76     0     0     0
SMALL
NO_CHARGES

@<TRIPOS>ATOM
      1 C1         -5.8766    2.6790   -3.8031 C.ar      1 <0>         0.0000
      2 C2         -4.6493    3.0857   -3.2669 C.ar      1 <0>         0.0000
      3 C3         -7.0557    3.2758   -3.3455 C.ar      1 <0>         0.0000
      4 C4         -1.3572  -11.4713    3.7388 C.ar      1 <0>         0.0000
      5 C5         -2.0065  -11.9648    4.8735 C.ar      1 <0>         0.0000
      6 C6         -4.6047    4.0698   -2.2788 C.ar      1 <0>         0.0000
      7 C7         -7.0063    4.2673   -2.3618 C.ar      1 <0>         0.0000
      8 C8         -5.1713    6.5024    2.7396 C.ar      1 <0>         0.0000
      9 C9         -4.2049    7.8615    1.0076 C.ar      1 <0>         0.0000
     10 C10        -3.2387    4.1148    1.3865 C.ar      1 <0>         0.0000
     11 C11        -5.3038    3.0603    0.7569 C.ar      1 <0>         0.0000
     12 C12        -4.9495    7.5113    3.6727 C.ar      1 <0>         0.0000
     13 C13        -3.9660    8.8807    1.9333 C.ar      1 <0>         0.0000
     14 C14        -2.7224    2.8860    1.7812 C.ar      1 <0>         0.0000
     15 C15        -4.8055    1.8180    1.1585 C.ar      1 <0>         0.0000
     16 C16        -1.8228  -10.2899    3.1637 C.ar      1 <0>         0.0000
     17 C17        -3.0953  -11.2474    5.3757 C.ar      1 <0>         0.0000
     18 C18        -4.8227    6.6603    1.3851 C.ar      1 <0>         0.0000
     19 C19        -4.5336    4.2274    0.8440 C.ar      1 <0>         0.0000
     20 C20        -5.7827    4.6704   -1.8006 C.ar      1 <0>         0.0000
     21 C21        -4.3451    8.7093    3.2693 C.ar      1 <0>         0.0000
     22 C22        -3.5018    1.7238    1.6647 C.ar      1 <0>         0.0000
     23 C23        -2.9227   -9.6388    3.7444 C.ar      1 <0>         0.0000
     24 C24        -5.0579    5.5546    0.4139 C.2       1 <0>         0.0000
     25 C25        -5.7203    5.7371   -0.7599 C.2       1 <0>         0.0000
     26 C26        -5.8159    7.7419   -2.3394 C.3       1 <0>         0.0000
     27 C27        -3.4485   -8.3498    3.1772 C.3       1 <0>         0.0000
     28 C28        -6.4326    7.0247   -1.1262 C.3       1 <0>         0.0000
     29 C29        -3.4578   -3.1541    2.3136 C.3       1 <0>         0.0000
     30 C30        -2.7628   -1.7932    2.4338 C.3       1 <0>         0.0000
     31 C31        -2.5740   -4.3076    2.8052 C.3       1 <0>         0.0000
     32 C32        -3.6494   -0.6551    1.9505 C.3       1 <0>         0.0000
     33 C33        -3.2693   -5.6605    2.6711 C.3       1 <0>         0.0000
     34 N1         -3.5505  -10.1099    4.8332 N.ar      1 <0>         0.0000
     35 O1         -2.0866   -6.6841    4.8635 O.2       1 <0>         0.0000
     36 O2         -4.1412    9.6721    4.2296 O.3       1 <0>         0.0000
     37 O3         -2.9091    0.5605    2.0773 O.3       1 <0>         0.0000
     38 S1         -2.1950   -6.9845    3.3808 S.o       1 <0>         0.0000
     39 H1         -5.9130    1.9109   -4.5716 H         1 <0>         0.0000
     40 H2         -3.7247    2.6357   -3.6203 H         1 <0>         0.0000
     41 H3         -8.0156    2.9694   -3.7542 H         1 <0>         0.0000
     42 H4         -0.5058  -11.9953    3.3124 H         1 <0>         0.0000
     43 H5         -1.6814  -12.8801    5.3596 H         1 <0>         0.0000
     44 H6         -3.6502    4.3765   -1.8618 H         1 <0>         0.0000
     45 H7         -7.9330    4.7142   -2.0108 H         1 <0>         0.0000
     46 H8         -5.6268    5.5703    3.0627 H         1 <0>         0.0000
     47 H9         -3.8906    7.9978   -0.0228 H         1 <0>         0.0000
     48 H10        -2.6265    5.0064    1.4916 H         1 <0>         0.0000
     49 H11        -6.3140    3.1178    0.3645 H         1 <0>         0.0000
     50 H12        -5.2313    7.3881    4.7144 H         1 <0>         0.0000
     51 H13        -3.4780    9.8011    1.6151 H         1 <0>         0.0000
     52 H14        -1.7181    2.8011    2.1863 H         1 <0>         0.0000
     53 H15        -5.4394    0.9429    1.0731 H         1 <0>         0.0000
     54 H16        -1.3409   -9.8704    2.2842 H         1 <0>         0.0000
     55 H17        -3.6283  -11.6003    6.2573 H         1 <0>         0.0000
     56 H18        -5.8142    7.0949   -3.2218 H         1 <0>         0.0000
     57 H19        -4.7790    8.0333   -2.1413 H         1 <0>         0.0000
     58 H20        -6.3816    8.6478   -2.5825 H         1 <0>         0.0000
     59 H21        -3.6450   -8.4248    2.1023 H         1 <0>         0.0000
     60 H22        -4.3517   -8.0514    3.7138 H         1 <0>         0.0000
     61 H23        -6.4642    7.6982   -0.2681 H         1 <0>         0.0000
     62 H24        -7.4765    6.7853   -1.3675 H         1 <0>         0.0000
     63 H25        -4.3909   -3.1440    2.8925 H         1 <0>         0.0000
     64 H26        -3.7442   -3.3296    1.2677 H         1 <0>         0.0000
     65 H27        -2.4804   -1.6056    3.4759 H         1 <0>         0.0000
     66 H28        -1.8363   -1.7904    1.8480 H         1 <0>         0.0000
     67 H29        -1.6342   -4.3174    2.2387 H         1 <0>         0.0000
     68 H30        -2.3103   -4.1509    3.8565 H         1 <0>         0.0000
     69 H31        -4.5680   -0.5980    2.5511 H         1 <0>         0.0000
     70 H32        -3.9378   -0.8072    0.9009 H         1 <0>         0.0000
     71 H33        -4.2085   -5.6805    3.2345 H         1 <0>         0.0000
     72 H34        -3.4676   -5.9167    1.6238 H         1 <0>         0.0000
     73 H35        -3.7165   10.4420    3.8195 H         1 <0>         0.0000
@<TRIPOS>BOND
     1    1    3 ar
     2    1    2 ar
     3    1   39 1
     4    2    6 ar
     5    2   40 1
     6    3    7 ar
     7    3   41 1
     8    4    5 ar
     9    4   16 ar
    10    4   42 1
    11    5   17 ar
    12    5   43 1
    13    6   20 ar
    14    6   44 1
    15    7   20 ar
    16    7   45 1
    17    8   12 ar
    18    8   18 ar
    19    8   46 1
    20    9   13 ar
    21    9   18 ar
    22    9   47 1
    23   10   14 ar
    24   10   19 ar
    25   10   48 1
    26   11   15 ar
    27   11   19 ar
    28   11   49 1
    29   12   21 ar
    30   12   50 1
    31   13   21 ar
    32   13   51 1
    33   14   22 ar
    34   14   52 1
    35   15   22 ar
    36   15   53 1
    37   16   23 ar
    38   16   54 1
    39   17   34 ar
    40   17   55 1
    41   18   24 1
    42   19   24 1
    43   20   25 1
    44   21   36 1
    45   22   37 1
    46   23   27 1
    47   23   34 ar
    48   24   25 2
    49   25   28 1
    50   26   28 1
    51   26   56 1
    52   26   57 1
    53   26   58 1
    54   27   38 1
    55   27   59 1
    56   27   60 1
    57   28   61 1
    58   28   62 1
    59   29   30 1
    60   29   31 1
    61   29   63 1
    62   29   64 1
    63   30   32 1
    64   30   65 1
    65   30   66 1
    66   31   33 1
    67   31   67 1
    68   31   68 1
    69   32   37 1
    70   32   69 1
    71   32   70 1
    72   33   38 1
    73   33   71 1
    74   33   72 1
    75   35   38 2
    76   36   73 1
