@<TRIPOS>MOLECULE
*****
   73    76     0     0     0
SMALL
NO_CHARGES

@<TRIPOS>ATOM
      1 C1         -7.4256    2.9803   -3.8060 C.ar      1 <0>         0.0000
      2 C2         -6.0733    3.2611   -3.5803 C.ar      1 <0>         0.0000
      3 C3         -8.4004    3.6754   -3.0829 C.ar      1 <0>         0.0000
      4 C4          3.5781   -9.0456    4.3212 C.ar      1 <0>         0.0000
      5 C5          4.2831   -9.5725    3.2359 C.ar      1 <0>         0.0000
      6 C6         -5.7020    4.2184   -2.6355 C.ar      1 <0>         0.0000
      7 C7         -8.0249    4.6398   -2.1438 C.ar      1 <0>         0.0000
      8 C8         -4.8417    6.6078    2.3641 C.ar      1 <0>         0.0000
      9 C9         -4.1655    7.8862    0.4436 C.ar      1 <0>         0.0000
     10 C10        -3.5157    4.0693    0.6245 C.ar      1 <0>         0.0000
     11 C11        -5.7550    3.2115    0.4750 C.ar      1 <0>         0.0000
     12 C12        -4.3121    7.5769    3.2117 C.ar      1 <0>         0.0000
     13 C13        -3.6198    8.8640    1.2800 C.ar      1 <0>         0.0000
     14 C14        -3.0294    2.7888    0.9085 C.ar      1 <0>         0.0000
     15 C15        -5.2919    1.9352    0.7673 C.ar      1 <0>         0.0000
     16 C16         3.1358   -7.7254    4.2530 C.ar      1 <0>         0.0000
     17 C17         4.5119   -8.7457    2.1329 C.ar      1 <0>         0.0000
     18 C18        -4.7977    6.7478    0.9643 C.ar      1 <0>         0.0000
     19 C19        -4.8753    4.3079    0.3831 C.ar      1 <0>         0.0000
     20 C20        -6.6702    4.9166   -1.8926 C.ar      1 <0>         0.0000
     21 C21        -3.6985    8.7137    2.6689 C.ar      1 <0>         0.0000
     22 C22        -3.9219    1.7107    0.9791 C.ar      1 <0>         0.0000
     23 C23         3.4116   -6.9751    3.0990 C.ar      1 <0>         0.0000
     24 C24        -5.3596    5.6853    0.0826 C.2       1 <0>         0.0000
     25 C25        -6.2610    5.9518   -0.9003 C.2       1 <0>         0.0000
     26 C26        -6.5365    7.9889   -2.4164 C.3       1 <0>         0.0000
     27 C27         2.9358   -5.5555    2.9648 C.3       1 <0>         0.0000
     28 C28        -6.9134    7.3075   -1.0897 C.3       1 <0>         0.0000
     29 C29        -0.6051   -1.7635    2.0579 C.3       1 <0>         0.0000
     30 C30        -2.0556   -1.3515    1.7827 C.3       1 <0>         0.0000
     31 C31        -0.4710   -3.2618    2.3591 C.3       1 <0>         0.0000
     32 C32        -2.1824    0.1364    1.4905 C.3       1 <0>         0.0000
     33 C33         0.9767   -3.6664    2.6274 C.3       1 <0>         0.0000
     34 N1          4.0899   -7.4764    2.0549 N.ar      1 <0>         0.0000
     35 O1          0.6601   -6.1189    1.5592 O.2       1 <0>         0.0000
     36 O2         -3.1846    9.6384    3.5475 O.3       1 <0>         0.0000
     37 O3         -3.5632    0.4188    1.2570 O.3       1 <0>         0.0000
     38 S1          1.0742   -5.4939    2.8777 S.o       1 <0>         0.0000
     39 H1         -7.7162    2.2316   -4.5385 H         1 <0>         0.0000
     40 H2         -5.3065    2.7323   -4.1412 H         1 <0>         0.0000
     41 H3         -9.4543    3.4657   -3.2485 H         1 <0>         0.0000
     42 H4          3.3765   -9.6512    5.2010 H         1 <0>         0.0000
     43 H5          4.6474  -10.5958    3.2394 H         1 <0>         0.0000
     44 H6         -4.6511    4.4272   -2.4590 H         1 <0>         0.0000
     45 H7         -8.7948    5.1636   -1.5831 H         1 <0>         0.0000
     46 H8         -5.3037    5.7223    2.7921 H         1 <0>         0.0000
     47 H9         -4.0846    8.0044   -0.6327 H         1 <0>         0.0000
     48 H10        -2.8156    4.8996    0.5852 H         1 <0>         0.0000
     49 H11        -6.8171    3.3654    0.3153 H         1 <0>         0.0000
     50 H12        -4.3608    7.4695    4.2915 H         1 <0>         0.0000
     51 H13        -3.1283    9.7355    0.8495 H         1 <0>         0.0000
     52 H14        -1.9671    2.6510    1.0756 H         1 <0>         0.0000
     53 H15        -5.9746    1.0935    0.8403 H         1 <0>         0.0000
     54 H16         2.5787   -7.2811    5.0739 H         1 <0>         0.0000
     55 H17         5.0588   -9.1190    1.2685 H         1 <0>         0.0000
     56 H18        -6.8018    7.3609   -3.2722 H         1 <0>         0.0000
     57 H19        -5.4599    8.1827   -2.4694 H         1 <0>         0.0000
     58 H20        -7.0582    8.9463   -2.5218 H         1 <0>         0.0000
     59 H21         3.2207   -4.9439    3.8275 H         1 <0>         0.0000
     60 H22         3.3237   -5.1221    2.0406 H         1 <0>         0.0000
     61 H23        -6.6764    7.9636   -0.2503 H         1 <0>         0.0000
     62 H24        -8.0026    7.1710   -1.0753 H         1 <0>         0.0000
     63 H25         0.0197   -1.5132    1.1903 H         1 <0>         0.0000
     64 H26        -0.2103   -1.1816    2.9020 H         1 <0>         0.0000
     65 H27        -2.4509   -1.9150    0.9300 H         1 <0>         0.0000
     66 H28        -2.6869   -1.5956    2.6449 H         1 <0>         0.0000
     67 H29        -1.0937   -3.5191    3.2252 H         1 <0>         0.0000
     68 H30        -0.8470   -3.8457    1.5123 H         1 <0>         0.0000
     69 H31        -1.5903    0.4100    0.6060 H         1 <0>         0.0000
     70 H32        -1.8186    0.7303    2.3408 H         1 <0>         0.0000
     71 H33         1.6185   -3.4293    1.7721 H         1 <0>         0.0000
     72 H34         1.3769   -3.1849    3.5272 H         1 <0>         0.0000
     73 H35        -2.7962   10.3707    3.0433 H         1 <0>         0.0000
@<TRIPOS>BOND
     1    1    3 ar
     2    1    2 ar
     3    1   39 1
     4    2    6 ar
     5    2   40 1
     6    3    7 ar
     7    3   41 1
     8    4    5 ar
     9    4   16 ar
    10    4   42 1
    11    5   17 ar
    12    5   43 1
    13    6   20 ar
    14    6   44 1
    15    7   20 ar
    16    7   45 1
    17    8   12 ar
    18    8   18 ar
    19    8   46 1
    20    9   13 ar
    21    9   18 ar
    22    9   47 1
    23   10   14 ar
    24   10   19 ar
    25   10   48 1
    26   11   15 ar
    27   11   19 ar
    28   11   49 1
    29   12   21 ar
    30   12   50 1
    31   13   21 ar
    32   13   51 1
    33   14   22 ar
    34   14   52 1
    35   15   22 ar
    36   15   53 1
    37   16   23 ar
    38   16   54 1
    39   17   34 ar
    40   17   55 1
    41   18   24 1
    42   19   24 1
    43   20   25 1
    44   21   36 1
    45   22   37 1
    46   23   27 1
    47   23   34 ar
    48   24   25 2
    49   25   28 1
    50   26   28 1
    51   26   56 1
    52   26   57 1
    53   26   58 1
    54   27   38 1
    55   27   59 1
    56   27   60 1
    57   28   61 1
    58   28   62 1
    59   29   30 1
    60   29   31 1
    61   29   63 1
    62   29   64 1
    63   30   32 1
    64   30   65 1
    65   30   66 1
    66   31   33 1
    67   31   67 1
    68   31   68 1
    69   32   37 1
    70   32   69 1
    71   32   70 1
    72   33   38 1
    73   33   71 1
    74   33   72 1
    75   35   38 2
    76   36   73 1
