@<TRIPOS>MOLECULE
*****
   58    60     0     0     0
SMALL
NO_CHARGES

@<TRIPOS>ATOM
      1 C1          2.1122   -6.8122    6.7622 C.ar      1 <0>         0.0000
      2 C2          1.8993   -7.0776    8.1155 C.ar      1 <0>         0.0000
      3 C3         -3.1239   -3.8066    9.5512 C.ar      1 <0>         0.0000
      4 C4         -2.2678   -4.6561   11.6807 C.ar      1 <0>         0.0000
      5 C5         -1.8235   -3.4870    9.1608 C.ar      1 <0>         0.0000
      6 C6         -0.9680   -4.3396   11.2822 C.ar      1 <0>         0.0000
      7 C7          1.0022   -1.8044    3.6016 C.ar      1 <0>         0.0000
      8 C8         -0.8316   -3.3674    3.4080 C.ar      1 <0>         0.0000
      9 C9          1.5703   -4.5038    7.1099 C.ar      1 <0>         0.0000
     10 C10         1.9512   -5.5247    6.2344 C.ar      1 <0>         0.0000
     11 C11         1.8390   -2.8242    4.0729 C.ar      1 <0>         0.0000
     12 C12        -0.0149   -4.4007    3.8787 C.ar      1 <0>         0.0000
     13 C13         1.3324   -4.1334    4.2016 C.ar      1 <0>         0.0000
     14 C14         1.5234   -6.0493    8.9879 C.ar      1 <0>         0.0000
     15 C15        -0.3205   -2.0783    3.2607 C.ar      1 <0>         0.0000
     16 C16        -3.3160   -4.3869   10.8040 C.ar      1 <0>         0.0000
     17 C17        -0.7623   -3.7638   10.0273 C.ar      1 <0>         0.0000
     18 C18         1.3660   -4.7548    8.4670 C.ar      1 <0>         0.0000
     19 C19        -2.2644    0.4210    1.3349 C.2       1 <0>         0.0000
     20 C20         3.2650   -2.4840    4.4515 C.3       1 <0>         0.0000
     21 C21        -0.5979   -5.7857    4.0482 C.3       1 <0>         0.0000
     22 C22        -1.8071   -1.9357    0.6337 C.3       1 <0>         0.0000
     23 C23         0.0892   -0.2699    0.8608 C.3       1 <0>         0.0000
     24 C24         2.1984   -5.2458    4.7578 C.3       1 <0>         0.0000
     25 C25        -1.2543   -0.7452    1.4210 C.3       1 <0>         0.0000
     26 O1         -2.5932    0.8978    0.2710 O.2       1 <0>         0.0000
     27 O2          0.8207   -2.1923    8.6120 O.2       1 <0>         0.0000
     28 O3          1.7653   -3.3299   10.6992 O.2       1 <0>         0.0000
     29 O4          1.2797   -6.2638   10.3143 O.3       1 <0>         0.0000
     30 O5         -2.7478    0.8730    2.5076 O.3       1 <0>         0.0000
     31 O6         -1.1586   -1.0482    2.8471 O.3       1 <0>         0.0000
     32 F1         -4.5775   -4.6967   11.1867 F         1 <0>         0.0000
     33 S1          0.9067   -3.3558    9.5099 S.o2      1 <0>         0.0000
     34 H1          2.3977   -7.6304    6.1045 H         1 <0>         0.0000
     35 H2          2.0194   -8.0899    8.4980 H         1 <0>         0.0000
     36 H3         -3.9780   -3.6046    8.9126 H         1 <0>         0.0000
     37 H4         -2.4754   -5.0983   12.6501 H         1 <0>         0.0000
     38 H5         -1.6323   -3.0141    8.2026 H         1 <0>         0.0000
     39 H6         -0.1193   -4.5259   11.9308 H         1 <0>         0.0000
     40 H7          1.3708   -0.7867    3.5169 H         1 <0>         0.0000
     41 H8         -1.8735   -3.5547    3.1662 H         1 <0>         0.0000
     42 H9          1.4104   -3.4927    6.7506 H         1 <0>         0.0000
     43 H10         3.4959   -2.7788    5.4804 H         1 <0>         0.0000
     44 H11         3.9873   -2.9867    3.7980 H         1 <0>         0.0000
     45 H12         3.4409   -1.4089    4.3712 H         1 <0>         0.0000
     46 H13        -0.0987   -6.5155    3.3998 H         1 <0>         0.0000
     47 H14        -0.4898   -6.1433    5.0775 H         1 <0>         0.0000
     48 H15        -1.6615   -5.7958    3.7979 H         1 <0>         0.0000
     49 H16        -1.0933   -2.7634    0.6415 H         1 <0>         0.0000
     50 H17        -2.7531   -2.2796    1.0616 H         1 <0>         0.0000
     51 H18        -1.9850   -1.6302   -0.3994 H         1 <0>         0.0000
     52 H19         0.8168   -1.0855    0.8701 H         1 <0>         0.0000
     53 H20         0.4834    0.5632    1.4497 H         1 <0>         0.0000
     54 H21        -0.0509    0.0679   -0.1682 H         1 <0>         0.0000
     55 H22         3.2560   -5.0038    4.6187 H         1 <0>         0.0000
     56 H23         2.0297   -6.1702    4.1967 H         1 <0>         0.0000
     57 H24         1.4281   -7.2008   10.5193 H         1 <0>         0.0000
     58 H25        -2.3381    0.3316    3.2156 H         1 <0>         0.0000
@<TRIPOS>BOND
     1    1    2 ar
     2    1   10 ar
     3    1   34 1
     4    2   14 ar
     5    2   35 1
     6    3    5 ar
     7    3   16 ar
     8    3   36 1
     9    4    6 ar
    10    4   16 ar
    11    4   37 1
    12    5   17 ar
    13    5   38 1
    14    6   17 ar
    15    6   39 1
    16    7   11 ar
    17    7   15 ar
    18    7   40 1
    19    8   12 ar
    20    8   15 ar
    21    8   41 1
    22    9   10 ar
    23    9   18 ar
    24    9   42 1
    25   10   24 1
    26   11   13 ar
    27   11   20 1
    28   12   13 ar
    29   12   21 1
    30   13   24 1
    31   14   18 ar
    32   14   29 1
    33   15   31 1
    34   16   32 1
    35   17   33 1
    36   18   33 1
    37   19   25 1
    38   19   26 2
    39   19   30 1
    40   20   43 1
    41   20   44 1
    42   20   45 1
    43   21   46 1
    44   21   47 1
    45   21   48 1
    46   22   25 1
    47   22   49 1
    48   22   50 1
    49   22   51 1
    50   23   25 1
    51   23   52 1
    52   23   53 1
    53   23   54 1
    54   24   55 1
    55   24   56 1
    56   25   31 1
    57   27   33 2
    58   28   33 2
    59   29   57 1
    60   30   58 1
