@<TRIPOS>MOLECULE
*****
   66    69     0     0     0
SMALL
NO_CHARGES

@<TRIPOS>ATOM
      1 C1         -0.0790   -3.6960    1.1196 C.ar      1 <0>         0.0000
      2 C2         -2.1564   -1.8423   -1.8867 C.ar      1 <0>         0.0000
      3 C3         -0.4053   -2.3924    1.4645 C.ar      1 <0>         0.0000
      4 C4         -1.9531   -0.5610   -1.3644 C.ar      1 <0>         0.0000
      5 C5         -4.2614   -0.4740   -0.6191 C.ar      1 <0>         0.0000
      6 C6         -1.0904   -4.6651    1.2023 C.ar      1 <0>         0.0000
      7 C7         -3.4036   -2.4544   -1.7549 C.ar      1 <0>         0.0000
      8 C8         -4.4475   -1.7560   -1.1309 C.ar      1 <0>         0.0000
      9 C9         -2.7595   -2.9815    1.9343 C.ar      1 <0>         0.0000
     10 C10        -2.3785   -4.2792    1.6029 C.ar      1 <0>         0.0000
     11 C11        -2.9941    0.1153   -0.7180 C.ar      1 <0>         0.0000
     12 C12        -1.7190   -2.0394    1.8680 C.ar      1 <0>         0.0000
     13 C13        -1.2407   -6.0688    0.9575 C.2       1 <0>         0.0000
     14 C14        -1.5782   -4.8191   -2.7025 C.2       1 <0>         0.0000
     15 C15        -5.7197   -2.5720   -1.1505 C.3       1 <0>         0.0000
     16 C16        -5.2120   -3.9993   -1.4508 C.3       1 <0>         0.0000
     17 C17        -3.8860   -3.8165   -2.2397 C.3       1 <0>         0.0000
     18 C18        -5.7479   -2.1843    4.3020 C.3       1 <0>         0.0000
     19 C19        -3.5199   -6.3441   -2.4328 C.3       1 <0>         0.0000
     20 C20        -0.4842   -4.3953   -4.7569 C.3       1 <0>         0.0000
     21 C21        -4.1583   -2.6244    2.3602 C.3       1 <0>         0.0000
     22 C22        -4.3263   -2.5788    3.8904 C.3       1 <0>         0.0000
     23 C23        -1.9202    1.6149    2.0703 C.3       1 <0>         0.0000
     24 C24        -3.1244    1.6631    1.1263 C.3       1 <0>         0.0000
     25 C25        -1.1488    0.3061    1.9745 C.3       1 <0>         0.0000
     26 C26        -2.9158   -4.9908   -2.0120 C.3       1 <0>         0.0000
     27 C27        -0.2052   -7.0694    0.5096 C.3       1 <0>         0.0000
     28 N1         -2.4611   -6.4909    1.1780 N.2       1 <0>         0.0000
     29 O1         -0.4930   -4.9434   -2.1626 O.2       1 <0>         0.0000
     30 O2         -3.2058   -5.3692    1.5869 O.3       1 <0>         0.0000
     31 O3         -2.7263    1.3800   -0.2261 O.3       1 <0>         0.0000
     32 O4         -2.0665   -0.7675    2.2230 O.3       1 <0>         0.0000
     33 O5         -1.7153   -4.5371   -4.0210 O.3       1 <0>         0.0000
     34 F1          0.9733   -6.4583    0.2603 F         1 <0>         0.0000
     35 F2          0.0206   -8.0036    1.4646 F         1 <0>         0.0000
     36 F3         -0.5807   -7.7253   -0.6078 F         1 <0>         0.0000
     37 H1          0.9205   -3.9531    0.7896 H         1 <0>         0.0000
     38 H2         -1.3231   -2.3460   -2.3644 H         1 <0>         0.0000
     39 H3          0.3646   -1.6324    1.4188 H         1 <0>         0.0000
     40 H4         -0.9841   -0.0762   -1.4422 H         1 <0>         0.0000
     41 H5         -5.0848    0.0612   -0.1534 H         1 <0>         0.0000
     42 H6         -6.2837   -2.5101   -0.2140 H         1 <0>         0.0000
     43 H7         -6.3820   -2.2138   -1.9500 H         1 <0>         0.0000
     44 H8         -4.9924   -4.5102   -0.5064 H         1 <0>         0.0000
     45 H9         -5.9443   -4.6040   -1.9914 H         1 <0>         0.0000
     46 H10        -4.1029   -3.7543   -3.3145 H         1 <0>         0.0000
     47 H11        -6.0090   -1.1916    3.9165 H         1 <0>         0.0000
     48 H12        -6.4850   -2.8962    3.9127 H         1 <0>         0.0000
     49 H13        -5.8541   -2.1575    5.3916 H         1 <0>         0.0000
     50 H14        -3.8106   -6.3311   -3.4878 H         1 <0>         0.0000
     51 H15        -4.4018   -6.5687   -1.8284 H         1 <0>         0.0000
     52 H16        -2.7998   -7.1523   -2.2771 H         1 <0>         0.0000
     53 H17        -0.7807   -4.1863   -5.7847 H         1 <0>         0.0000
     54 H18         0.1015   -5.3157   -4.7015 H         1 <0>         0.0000
     55 H19         0.1082   -3.5700   -4.3536 H         1 <0>         0.0000
     56 H20        -4.4161   -1.6494    1.9384 H         1 <0>         0.0000
     57 H21        -4.8587   -3.3540    1.9405 H         1 <0>         0.0000
     58 H22        -4.0749   -3.5605    4.3086 H         1 <0>         0.0000
     59 H23        -3.6052   -1.8656    4.3047 H         1 <0>         0.0000
     60 H24        -1.2266    2.4287    1.8308 H         1 <0>         0.0000
     61 H25        -2.2744    1.7744    3.0960 H         1 <0>         0.0000
     62 H26        -3.8840    0.9523    1.4578 H         1 <0>         0.0000
     63 H27        -3.5646    2.6647    1.1268 H         1 <0>         0.0000
     64 H28        -0.3349    0.2752    2.7098 H         1 <0>         0.0000
     65 H29        -0.7225    0.2032    0.9736 H         1 <0>         0.0000
     66 H30        -2.6805   -5.0314   -0.9511 H         1 <0>         0.0000
@<TRIPOS>BOND
     1    1    3 ar
     2    1    6 ar
     3    1   37 1
     4    2    4 ar
     5    2    7 ar
     6    2   38 1
     7    3   12 ar
     8    3   39 1
     9    4   11 ar
    10    4   40 1
    11    5    8 ar
    12    5   11 ar
    13    5   41 1
    14    6   10 ar
    15    6   13 1
    16    7    8 ar
    17    7   17 1
    18    8   15 1
    19    9   10 ar
    20    9   12 ar
    21    9   21 1
    22   10   30 1
    23   11   31 1
    24   12   32 1
    25   13   27 1
    26   13   28 2
    27   14   26 1
    28   14   29 2
    29   14   33 1
    30   15   16 1
    31   15   42 1
    32   15   43 1
    33   16   17 1
    34   16   44 1
    35   16   45 1
    36   17   26 1
    37   17   46 1
    38   18   22 1
    39   18   47 1
    40   18   48 1
    41   18   49 1
    42   19   26 1
    43   19   50 1
    44   19   51 1
    45   19   52 1
    46   20   33 1
    47   20   53 1
    48   20   54 1
    49   20   55 1
    50   21   22 1
    51   21   56 1
    52   21   57 1
    53   22   58 1
    54   22   59 1
    55   23   24 1
    56   23   25 1
    57   23   60 1
    58   23   61 1
    59   24   31 1
    60   24   62 1
    61   24   63 1
    62   25   32 1
    63   25   64 1
    64   25   65 1
    65   26   66 1
    66   27   34 1
    67   27   35 1
    68   27   36 1
    69   28   30 1
