@<TRIPOS>MOLECULE
*****
   58    60     0     0     0
SMALL
NO_CHARGES

@<TRIPOS>ATOM
      1 C1          1.8854   -7.9373    7.1424 C.ar      1 <0>         0.0000
      2 C2          1.6399   -8.3584    8.4507 C.ar      1 <0>         0.0000
      3 C3         -2.7797   -4.2649   10.2552 C.ar      1 <0>         0.0000
      4 C4         -2.2761   -5.7535   12.1333 C.ar      1 <0>         0.0000
      5 C5         -1.4173   -4.1812    9.9691 C.ar      1 <0>         0.0000
      6 C6         -0.9141   -5.6639   11.8428 C.ar      1 <0>         0.0000
      7 C7          1.3968   -2.3689    5.1546 C.ar      1 <0>         0.0000
      8 C8         -0.6934   -3.5807    5.0936 C.ar      1 <0>         0.0000
      9 C9          1.7558   -5.6514    7.8437 C.ar      1 <0>         0.0000
     10 C10         1.9389   -6.5778    6.8126 C.ar      1 <0>         0.0000
     11 C11         2.1120   -3.5733    5.1469 C.ar      1 <0>         0.0000
     12 C12         0.0009   -4.7948    5.0761 C.ar      1 <0>         0.0000
     13 C13         1.4101   -4.7956    5.1369 C.ar      1 <0>         0.0000
     14 C14         1.4338   -7.4235    9.4730 C.ar      1 <0>         0.0000
     15 C15         0.0052   -2.3760    5.1718 C.ar      1 <0>         0.0000
     16 C16        -3.1775   -5.0561   11.3303 C.ar      1 <0>         0.0000
     17 C17        -0.5026   -4.8842   10.7590 C.ar      1 <0>         0.0000
     18 C18         1.5045   -6.0578    9.1527 C.ar      1 <0>         0.0000
     19 C19        -2.4817   -1.5505    6.8589 C.2       1 <0>         0.0000
     20 C20         3.6232   -3.5263    5.2203 C.3       1 <0>         0.0000
     21 C21        -0.7845   -6.0863    5.0488 C.3       1 <0>         0.0000
     22 C22        -1.4364    0.6905    6.5610 C.3       1 <0>         0.0000
     23 C23        -0.1352   -1.1378    7.7190 C.3       1 <0>         0.0000
     24 C24         2.1319   -6.1073    5.3735 C.3       1 <0>         0.0000
     25 C25        -1.1435   -0.8130    6.6237 C.3       1 <0>         0.0000
     26 O1         -2.8693   -1.9379    7.9393 O.2       1 <0>         0.0000
     27 O2          1.4486   -3.4845    9.6662 O.2       1 <0>         0.0000
     28 O3          2.0145   -5.0703   11.5907 O.2       1 <0>         0.0000
     29 O4          1.1405   -7.7922   10.7545 O.3       1 <0>         0.0000
     30 O5         -3.2409   -1.6889    5.7459 O.3       1 <0>         0.0000
     31 O6         -0.6715   -1.1576    5.2801 O.3       1 <0>         0.0000
     32 F1         -4.4986   -5.1465   11.6185 F         1 <0>         0.0000
     33 S1          1.2457   -4.7578   10.3809 S.o2      1 <0>         0.0000
     34 H1          2.0134   -8.6862    6.3638 H         1 <0>         0.0000
     35 H2          1.5877   -9.4219    8.6788 H         1 <0>         0.0000
     36 H3         -3.5046   -3.7140    9.6652 H         1 <0>         0.0000
     37 H4         -2.6424   -6.3420   12.9687 H         1 <0>         0.0000
     38 H5         -1.0786   -3.5548    9.1531 H         1 <0>         0.0000
     39 H6         -0.1754   -6.1781   12.4471 H         1 <0>         0.0000
     40 H7          1.9172   -1.4168    5.1997 H         1 <0>         0.0000
     41 H8         -1.7782   -3.5862    5.0805 H         1 <0>         0.0000
     42 H9          1.7761   -4.5864    7.6426 H         1 <0>         0.0000
     43 H10         3.9975   -4.0025    6.1334 H         1 <0>         0.0000
     44 H11         4.0878   -4.0376    4.3702 H         1 <0>         0.0000
     45 H12         3.9790   -2.4933    5.2199 H         1 <0>         0.0000
     46 H13        -0.4922   -6.7179    4.2022 H         1 <0>         0.0000
     47 H14        -0.6224   -6.6718    5.9599 H         1 <0>         0.0000
     48 H15        -1.8558   -5.8901    4.9637 H         1 <0>         0.0000
     49 H16        -0.5000    1.2315    6.4019 H         1 <0>         0.0000
     50 H17        -2.1179    0.9277    5.7392 H         1 <0>         0.0000
     51 H18        -1.8873    1.0269    7.4982 H         1 <0>         0.0000
     52 H19         0.7939   -0.5892    7.5446 H         1 <0>         0.0000
     53 H20         0.1028   -2.1994    7.7750 H         1 <0>         0.0000
     54 H21        -0.5428   -0.8389    8.6862 H         1 <0>         0.0000
     55 H22         3.1995   -6.0079    5.1606 H         1 <0>         0.0000
     56 H23         1.7603   -6.8845    4.6982 H         1 <0>         0.0000
     57 H24         1.1108   -8.7608   10.8083 H         1 <0>         0.0000
     58 H25        -2.6948   -1.3922    4.9889 H         1 <0>         0.0000
@<TRIPOS>BOND
     1    1    2 ar
     2    1   10 ar
     3    1   34 1
     4    2   14 ar
     5    2   35 1
     6    3    5 ar
     7    3   16 ar
     8    3   36 1
     9    4    6 ar
    10    4   16 ar
    11    4   37 1
    12    5   17 ar
    13    5   38 1
    14    6   17 ar
    15    6   39 1
    16    7   11 ar
    17    7   15 ar
    18    7   40 1
    19    8   12 ar
    20    8   15 ar
    21    8   41 1
    22    9   10 ar
    23    9   18 ar
    24    9   42 1
    25   10   24 1
    26   11   13 ar
    27   11   20 1
    28   12   13 ar
    29   12   21 1
    30   13   24 1
    31   14   18 ar
    32   14   29 1
    33   15   31 1
    34   16   32 1
    35   17   33 1
    36   18   33 1
    37   19   25 1
    38   19   26 2
    39   19   30 1
    40   20   43 1
    41   20   44 1
    42   20   45 1
    43   21   46 1
    44   21   47 1
    45   21   48 1
    46   22   25 1
    47   22   49 1
    48   22   50 1
    49   22   51 1
    50   23   25 1
    51   23   52 1
    52   23   53 1
    53   23   54 1
    54   24   55 1
    55   24   56 1
    56   25   31 1
    57   27   33 2
    58   28   33 2
    59   29   57 1
    60   30   58 1
