@<TRIPOS>MOLECULE
*****
   66    69     0     0     0
SMALL
NO_CHARGES

@<TRIPOS>ATOM
      1 C1         -5.9449    3.6443    6.4668 C.ar      1 <0>         0.0000
      2 C2         -2.9738    1.1019   -3.8640 C.ar      1 <0>         0.0000
      3 C3         -5.0625    3.4591    5.4092 C.ar      1 <0>         0.0000
      4 C4         -2.4837    1.6338   -2.6712 C.ar      1 <0>         0.0000
      5 C5         -4.6029    1.1776   -1.5666 C.ar      1 <0>         0.0000
      6 C6         -7.1543    4.3008    6.1984 C.ar      1 <0>         0.0000
      7 C7         -4.2783    0.5989   -3.9174 C.ar      1 <0>         0.0000
      8 C8         -5.0750    0.6441   -2.7684 C.ar      1 <0>         0.0000
      9 C9         -6.5841    4.5709    3.8024 C.ar      1 <0>         0.0000
     10 C10        -7.4310    4.7388    4.8951 C.ar      1 <0>         0.0000
     11 C11        -3.2922    1.6749   -1.5235 C.ar      1 <0>         0.0000
     12 C12        -5.3743    3.9176    4.1034 C.ar      1 <0>         0.0000
     13 C13        -8.3247    4.7041    6.9219 C.2       1 <0>         0.0000
     14 C14        -3.1315   -0.2245   -6.7452 C.2       1 <0>         0.0000
     15 C15        -6.4490    0.0790   -3.0545 C.3       1 <0>         0.0000
     16 C16        -6.2267   -0.7176   -4.3592 C.3       1 <0>         0.0000
     17 C17        -5.0559   -0.0006   -5.0825 C.3       1 <0>         0.0000
     18 C18        -6.5506    6.9136    0.6905 C.3       1 <0>         0.0000
     19 C19        -5.1626   -1.6075   -7.0688 C.3       1 <0>         0.0000
     20 C20        -2.5398    1.6536   -8.0579 C.3       1 <0>         0.0000
     21 C21        -6.9116    5.0769    2.4216 C.3       1 <0>         0.0000
     22 C22        -6.2423    6.4302    2.1106 C.3       1 <0>         0.0000
     23 C23        -2.6276    2.9651    1.8479 C.3       1 <0>         0.0000
     24 C24        -3.4856    2.2861    0.7881 C.3       1 <0>         0.0000
     25 C25        -3.3156    3.0182    3.2027 C.3       1 <0>         0.0000
     26 C26        -4.2598   -0.9331   -6.0156 C.3       1 <0>         0.0000
     27 C27        -8.5962    4.4949    8.3851 C.3       1 <0>         0.0000
     28 N1         -9.2024    5.3100    6.1638 N.2       1 <0>         0.0000
     29 O1         -1.9931   -0.6430   -6.8467 O.2       1 <0>         0.0000
     30 O2         -8.6565    5.3453    4.8701 O.3       1 <0>         0.0000
     31 O3         -2.7070    2.2151   -0.4042 O.3       1 <0>         0.0000
     32 O4         -4.5290    3.7655    3.0423 O.3       1 <0>         0.0000
     33 O5         -3.5458    0.9325   -7.3191 O.3       1 <0>         0.0000
     34 F1         -7.6273    5.0809    9.1352 F         1 <0>         0.0000
     35 F2         -9.7786    4.9896    8.7742 F         1 <0>         0.0000
     36 F3         -8.5741    3.1707    8.6869 F         1 <0>         0.0000
     37 H1         -5.6990    3.2918    7.4633 H         1 <0>         0.0000
     38 H2         -2.3192    1.0765   -4.7294 H         1 <0>         0.0000
     39 H3         -4.1207    2.9576    5.5944 H         1 <0>         0.0000
     40 H4         -1.4704    2.0187   -2.6033 H         1 <0>         0.0000
     41 H5         -5.2445    1.1927   -0.6919 H         1 <0>         0.0000
     42 H6         -6.8413   -0.5386   -2.2399 H         1 <0>         0.0000
     43 H7         -7.1658    0.8960   -3.2142 H         1 <0>         0.0000
     44 H8         -5.9171   -1.7394   -4.1070 H         1 <0>         0.0000
     45 H9         -7.1278   -0.7849   -4.9743 H         1 <0>         0.0000
     46 H10        -5.4607    0.8164   -5.6948 H         1 <0>         0.0000
     47 H11        -6.1880    6.1988   -0.0573 H         1 <0>         0.0000
     48 H12        -7.6290    7.0365    0.5386 H         1 <0>         0.0000
     49 H13        -6.0733    7.8782    0.4887 H         1 <0>         0.0000
     50 H14        -5.6934   -0.8577   -7.6635 H         1 <0>         0.0000
     51 H15        -5.9024   -2.2501   -6.5844 H         1 <0>         0.0000
     52 H16        -4.5710   -2.2303   -7.7469 H         1 <0>         0.0000
     53 H17        -3.0421    2.5397   -8.4460 H         1 <0>         0.0000
     54 H18        -2.1516    1.0397   -8.8740 H         1 <0>         0.0000
     55 H19        -1.7148    1.9373   -7.4000 H         1 <0>         0.0000
     56 H20        -6.5837    4.3388    1.6823 H         1 <0>         0.0000
     57 H21        -7.9970    5.1777    2.3223 H         1 <0>         0.0000
     58 H22        -6.5837    7.1726    2.8415 H         1 <0>         0.0000
     59 H23        -5.1597    6.3298    2.2440 H         1 <0>         0.0000
     60 H24        -1.6868    2.4149    1.9582 H         1 <0>         0.0000
     61 H25        -2.3778    3.9789    1.5196 H         1 <0>         0.0000
     62 H26        -3.7713    1.2748    1.1126 H         1 <0>         0.0000
     63 H27        -4.4018    2.8610    0.6114 H         1 <0>         0.0000
     64 H28        -2.6687    3.5093    3.9398 H         1 <0>         0.0000
     65 H29        -3.5518    2.0085    3.5643 H         1 <0>         0.0000
     66 H30        -3.7727   -1.7076   -5.4152 H         1 <0>         0.0000
@<TRIPOS>BOND
     1    1    3 ar
     2    1    6 ar
     3    1   37 1
     4    2    4 ar
     5    2    7 ar
     6    2   38 1
     7    3   12 ar
     8    3   39 1
     9    4   11 ar
    10    4   40 1
    11    5    8 ar
    12    5   11 ar
    13    5   41 1
    14    6   10 ar
    15    6   13 1
    16    7    8 ar
    17    7   17 1
    18    8   15 1
    19    9   10 ar
    20    9   12 ar
    21    9   21 1
    22   10   30 1
    23   11   31 1
    24   12   32 1
    25   13   27 1
    26   13   28 2
    27   14   26 1
    28   14   29 2
    29   14   33 1
    30   15   16 1
    31   15   42 1
    32   15   43 1
    33   16   17 1
    34   16   44 1
    35   16   45 1
    36   17   26 1
    37   17   46 1
    38   18   22 1
    39   18   47 1
    40   18   48 1
    41   18   49 1
    42   19   26 1
    43   19   50 1
    44   19   51 1
    45   19   52 1
    46   20   33 1
    47   20   53 1
    48   20   54 1
    49   20   55 1
    50   21   22 1
    51   21   56 1
    52   21   57 1
    53   22   58 1
    54   22   59 1
    55   23   24 1
    56   23   25 1
    57   23   60 1
    58   23   61 1
    59   24   31 1
    60   24   62 1
    61   24   63 1
    62   25   32 1
    63   25   64 1
    64   25   65 1
    65   26   66 1
    66   27   34 1
    67   27   35 1
    68   27   36 1
    69   28   30 1
