@<TRIPOS>MOLECULE
*****
   24    25     0     0     0
SMALL
NO_CHARGES

@<TRIPOS>ATOM
      1 C1         -1.9090   -3.0690   -1.7510 C.ar      1 <0>         0.0000
      2 C2         -1.7710   -2.7720   -0.3960 C.ar      1 <0>         0.0000
      3 C3         -0.9260   -2.6730   -2.6560 C.ar      1 <0>         0.0000
      4 C4         -0.6520   -2.0820    0.0580 C.ar      1 <0>         0.0000
      5 C5          0.1960   -1.9800   -2.2120 C.ar      1 <0>         0.0000
      6 C6          5.3980    1.5280    1.3080 C.ar      1 <0>         0.0000
      7 C7          5.8290    0.8360    0.1910 C.ar      1 <0>         0.0000
      8 C8          4.0830    1.3890    1.7140 C.ar      1 <0>         0.0000
      9 C9          0.3320   -1.6910   -0.8510 C.ar      1 <0>         0.0000
     10 C10         3.7060   -0.0660   -0.0580 C.ar      1 <0>         0.0000
     11 C11         2.7510   -0.9410   -0.7960 C.2       1 <0>         0.0000
     12 N1          4.9890    0.0600   -0.4670 N.ar      1 <0>         0.0000
     13 N2          3.2610    0.6050    1.0380 N.ar      1 <0>         0.0000
     14 N3          1.4370   -0.9720   -0.3360 N.am      1 <0>         0.0000
     15 O1          3.0490   -1.6440   -1.7640 O.2       1 <0>         0.0000
     16 H1         -2.7620   -3.5960   -2.0940 H         1 <0>         0.0000
     17 H2         -2.5210   -3.0760    0.2900 H         1 <0>         0.0000
     18 H3         -1.0320   -2.8990   -3.6860 H         1 <0>         0.0000
     19 H4         -0.5450   -1.8590    1.0870 H         1 <0>         0.0000
     20 H5          0.9350   -1.6720   -2.9050 H         1 <0>         0.0000
     21 H6          6.0640    2.1540    1.8430 H         1 <0>         0.0000
     22 H7          6.8310    0.9150   -0.1530 H         1 <0>         0.0000
     23 H8          3.7160    1.9050    2.5660 H         1 <0>         0.0000
     24 H9          1.2860   -0.4290    0.5280 H         1 <0>         0.0000
@<TRIPOS>BOND
     1    1    2 ar
     2    1    3 ar
     3    1   16 1
     4    2    4 ar
     5    2   17 1
     6    3    5 ar
     7    3   18 1
     8    4    9 ar
     9    4   19 1
    10    5    9 ar
    11    5   20 1
    12    6    7 ar
    13    6    8 ar
    14    6   21 1
    15    7   12 ar
    16    7   22 1
    17    8   13 ar
    18    8   23 1
    19    9   14 1
    20   10   11 1
    21   10   12 ar
    22   10   13 ar
    23   11   14 am
    24   11   15 2
    25   14   24 1
