@<TRIPOS>MOLECULE
*****
   49    51     0     0     0
SMALL
NO_CHARGES

@<TRIPOS>ATOM
      1 C1         -0.3858    0.2717    0.2858 C.1       1 <0>         0.0000
      2 C2          2.0920   -6.4267   -4.0154 C.ar      1 <0>         0.0000
      3 C3          1.8728   -6.0130   -2.6978 C.ar      1 <0>         0.0000
      4 C4         -1.2855   -1.9693   -0.1717 C.ar      1 <0>         0.0000
      5 C5          1.1112   -1.5761   -0.3182 C.ar      1 <0>         0.0000
      6 C6         -0.1882   -1.1064   -0.0675 C.ar      1 <0>         0.0000
      7 C7         -0.4212   -5.4222   -3.2897 C.ar      1 <0>         0.0000
      8 C8         -1.0974   -3.3122   -0.5094 C.ar      1 <0>         0.0000
      9 C9          1.0873   -6.3543   -4.9773 C.ar      1 <0>         0.0000
     10 C10         0.6286   -5.5175   -2.3447 C.ar      1 <0>         0.0000
     11 C11         0.2007   -3.7863   -0.7536 C.ar      1 <0>         0.0000
     12 C12         1.3041   -2.9116   -0.6661 C.ar      1 <0>         0.0000
     13 C13        -0.1763   -5.8498   -4.6110 C.ar      1 <0>         0.0000
     14 C14        -1.6686   -4.7454   -2.8530 C.2       1 <0>         0.0000
     15 C15        -2.3051   -4.2192   -0.6411 C.3       1 <0>         0.0000
     16 C16         0.2664  -10.2809   -8.0017 C.3       1 <0>         0.0000
     17 C17         0.0098   -7.9840   -9.0200 C.3       1 <0>         0.0000
     18 C18        -2.4881   -6.0794   -5.3589 C.3       1 <0>         0.0000
     19 C19         0.6930   -8.2529   -6.5728 C.3       1 <0>         0.0000
     20 C20         1.3107   -6.8542   -6.3894 C.3       1 <0>         0.0000
     21 C21         0.7785   -8.8329   -7.9962 C.3       1 <0>         0.0000
     22 N1         -0.5406    1.3897    0.5765 N.1       1 <0>         0.0000
     23 O1         -2.2315   -3.8357   -3.4265 O.2       1 <0>         0.0000
     24 O2          0.4490   -5.1213   -1.0131 O.3       1 <0>         0.0000
     25 O3         -2.0767   -5.2297   -1.6362 O.3       1 <0>         0.0000
     26 O4          2.5370   -3.4413   -0.9167 O.3       1 <0>         0.0000
     27 O5          2.7274   -6.8748   -6.6230 O.3       1 <0>         0.0000
     28 O6         -1.1006   -5.8280   -5.6159 O.3       1 <0>         0.0000
     29 H1          3.0632   -6.8061   -4.3134 H         1 <0>         0.0000
     30 H2          2.6571   -6.0396   -1.9500 H         1 <0>         0.0000
     31 H3         -2.2878   -1.5855   -0.0089 H         1 <0>         0.0000
     32 H4          1.9574   -0.8981   -0.2395 H         1 <0>         0.0000
     33 H5         -2.4863   -4.7766    0.2809 H         1 <0>         0.0000
     34 H6         -3.1925   -3.6277   -0.8834 H         1 <0>         0.0000
     35 H7         -0.7893  -10.3196   -7.7067 H         1 <0>         0.0000
     36 H8          0.3505  -10.7276   -8.9984 H         1 <0>         0.0000
     37 H9          0.8316  -10.9061   -7.3020 H         1 <0>         0.0000
     38 H10        -1.0489   -7.9117   -8.7433 H         1 <0>         0.0000
     39 H11         0.3989   -6.9636   -9.0956 H         1 <0>         0.0000
     40 H12         0.0645   -8.4318  -10.0182 H         1 <0>         0.0000
     41 H13        -2.8658   -6.5969   -6.2439 H         1 <0>         0.0000
     42 H14        -3.0300   -5.1440   -5.2112 H         1 <0>         0.0000
     43 H15        -2.6144   -6.7229   -4.4814 H         1 <0>         0.0000
     44 H16        -0.3606   -8.2059   -6.2756 H         1 <0>         0.0000
     45 H17         1.1964   -8.9282   -5.8704 H         1 <0>         0.0000
     46 H18         0.8354   -6.1498   -7.0810 H         1 <0>         0.0000
     47 H19         1.8358   -8.8673   -8.3006 H         1 <0>         0.0000
     48 H20         3.2032   -2.7367   -0.8721 H         1 <0>         0.0000
     49 H21         2.8703   -7.1718   -7.5343 H         1 <0>         0.0000
@<TRIPOS>BOND
     1    1    6 1
     2    1   22 3
     3    2    3 ar
     4    2    9 ar
     5    2   29 1
     6    3   10 ar
     7    3   30 1
     8    4    6 ar
     9    4    8 ar
    10    4   31 1
    11    5    6 ar
    12    5   12 ar
    13    5   32 1
    14    7   10 ar
    15    7   13 ar
    16    7   14 1
    17    8   11 ar
    18    8   15 1
    19    9   13 ar
    20    9   20 1
    21   10   24 1
    22   11   12 ar
    23   11   24 1
    24   12   26 1
    25   13   28 1
    26   14   23 2
    27   14   25 1
    28   15   25 1
    29   15   33 1
    30   15   34 1
    31   16   21 1
    32   16   35 1
    33   16   36 1
    34   16   37 1
    35   17   21 1
    36   17   38 1
    37   17   39 1
    38   17   40 1
    39   18   28 1
    40   18   41 1
    41   18   42 1
    42   18   43 1
    43   19   20 1
    44   19   21 1
    45   19   44 1
    46   19   45 1
    47   20   27 1
    48   20   46 1
    49   21   47 1
    50   26   48 1
    51   27   49 1
