@<TRIPOS>MOLECULE
*****
   46    50     0     0     0
SMALL
NO_CHARGES

@<TRIPOS>ATOM
      1 C1          0.6832    1.9557    4.4453 C.ar      1 <0>         0.0000
      2 C2         -0.0462   -4.5023    0.3154 C.ar      1 <0>         0.0000
      3 C3         -0.4482    1.3200    3.9295 C.ar      1 <0>         0.0000
      4 C4         -0.7629   -3.6690    1.1727 C.ar      1 <0>         0.0000
      5 C5          1.2013    1.5844    5.6898 C.ar      1 <0>         0.0000
      6 C6          1.3259   -2.5528    1.6841 C.ar      1 <0>         0.0000
      7 C7          3.0690   -6.1686   -0.4100 C.ar      1 <0>         0.0000
      8 C8         -0.5574   -0.0873    5.8920 C.ar      1 <0>         0.0000
      9 C9          1.4216   -5.6331   -2.0650 C.ar      1 <0>         0.0000
     10 C10         2.9149   -7.3038   -2.5436 C.ar      1 <0>         0.0000
     11 C11         1.3412   -4.3970    0.1162 C.ar      1 <0>         0.0000
     12 C12         2.0524   -3.3802    0.8087 C.ar      1 <0>         0.0000
     13 C13         1.9686   -5.3894   -0.7940 C.ar      1 <0>         0.0000
     14 C14        -1.0780    0.2900    4.6458 C.ar      1 <0>         0.0000
     15 C15        -0.0511   -2.6830    1.8713 C.ar      1 <0>         0.0000
     16 C16         3.5204   -7.1245   -1.3019 C.ar      1 <0>         0.0000
     17 C17         0.5649    0.5661    6.4007 C.ar      1 <0>         0.0000
     18 C18         3.4824   -3.0849    0.6597 C.2       1 <0>         0.0000
     19 C19        -1.9653   -1.5786    3.0746 C.2       1 <0>         0.0000
     20 C20        -3.4941   -0.6429    4.8983 C.3       1 <0>         0.0000
     21 C21        -3.5194    0.3295    3.7533 C.3       1 <0>         0.0000
     22 C22        -2.2432   -0.4471    4.0568 C.3       1 <0>         0.0000
     23 N1          4.3162   -3.5861   -0.2756 N.2       1 <0>         0.0000
     24 N2          1.8705   -6.5592   -2.9254 N.ar      1 <0>         0.0000
     25 N3          4.1184   -2.2001    1.4634 N.2       1 <0>         0.0000
     26 N4          5.4963   -2.9937   -0.0354 N.2       1 <0>         0.0000
     27 N5          5.3765   -2.1662    1.0063 N.2       1 <0>         0.0000
     28 N6         -0.6486   -1.7749    2.7838 N.am      1 <0>         0.0000
     29 O1         -2.8974   -2.2334    2.5988 O.2       1 <0>         0.0000
     30 F1          4.5744   -7.9212   -0.9647 F         1 <0>         0.0000
     31 Cl1         1.1980    0.0869    7.9712 Cl        1 <0>         0.0000
     32 H1          1.1761    2.7381    3.8749 H         1 <0>         0.0000
     33 H2         -0.5824   -5.2922   -0.2048 H         1 <0>         0.0000
     34 H3         -0.8413    1.6076    2.9580 H         1 <0>         0.0000
     35 H4         -1.8301   -3.7783    1.3065 H         1 <0>         0.0000
     36 H5          2.0846    2.0669    6.0956 H         1 <0>         0.0000
     37 H6          1.8855   -1.7801    2.2056 H         1 <0>         0.0000
     38 H7          3.5608   -6.0280    0.5452 H         1 <0>         0.0000
     39 H8         -1.0224   -0.8917    6.4535 H         1 <0>         0.0000
     40 H9          0.5832   -5.0301   -2.4089 H         1 <0>         0.0000
     41 H10         3.2882   -8.0587   -3.2339 H         1 <0>         0.0000
     42 H11        -3.4731   -0.2434    5.9077 H         1 <0>         0.0000
     43 H12        -4.0153   -1.5845    4.7630 H         1 <0>         0.0000
     44 H13        -4.0566    0.0338    2.8585 H         1 <0>         0.0000
     45 H14        -3.5071    1.3912    3.9809 H         1 <0>         0.0000
     46 H15         0.0104   -1.1556    3.2392 H         1 <0>         0.0000
@<TRIPOS>BOND
     1    1    3 ar
     2    1    5 ar
     3    1   32 1
     4    2    4 ar
     5    2   11 ar
     6    2   33 1
     7    3   14 ar
     8    3   34 1
     9    4   15 ar
    10    4   35 1
    11    5   17 ar
    12    5   36 1
    13    6   12 ar
    14    6   15 ar
    15    6   37 1
    16    7   13 ar
    17    7   16 ar
    18    7   38 1
    19    8   14 ar
    20    8   17 ar
    21    8   39 1
    22    9   13 ar
    23    9   24 ar
    24    9   40 1
    25   10   16 ar
    26   10   24 ar
    27   10   41 1
    28   11   12 ar
    29   11   13 1
    30   12   18 1
    31   14   22 1
    32   15   28 1
    33   16   30 1
    34   17   31 1
    35   18   23 1
    36   18   25 2
    37   19   22 1
    38   19   28 am
    39   19   29 2
    40   20   21 1
    41   20   22 1
    42   20   42 1
    43   20   43 1
    44   21   22 1
    45   21   44 1
    46   21   45 1
    47   23   26 1
    48   25   27 1
    49   26   27 2
    50   28   46 1
