@<TRIPOS>MOLECULE
*****
   22    23     0     0     0
SMALL
NO_CHARGES

@<TRIPOS>ATOM
      1 C1         -0.0692   -3.3831    0.5571 C.ar      1 <0>         0.0000
      2 C2          3.4317   -2.9822   -0.7317 C.ar      1 <0>         0.0000
      3 C3         -0.5237   -2.0858    0.5119 C.ar      1 <0>         0.0000
      4 C4          3.8895   -4.2795   -0.6876 C.ar      1 <0>         0.0000
      5 C5          1.6186   -1.3318   -0.3569 C.ar      1 <0>         0.0000
      6 C6          1.7448   -5.0408    0.1831 C.ar      1 <0>         0.0000
      7 C7          2.1098   -2.6581   -0.3200 C.ar      1 <0>         0.0000
      8 C8          1.2548   -3.7127    0.1455 C.ar      1 <0>         0.0000
      9 C9          0.3274   -1.0412    0.0493 C.ar      1 <0>         0.0000
     10 C10         3.0355   -5.3182   -0.2250 C.ar      1 <0>         0.0000
     11 C11        -0.1248    0.3691   -0.0145 C.2       1 <0>         0.0000
     12 O1          0.5487    1.3112   -0.3986 O.2       1 <0>         0.0000
     13 O2          3.4648   -6.6195   -0.1704 O.3       1 <0>         0.0000
     14 O3         -1.4109    0.5373    0.4092 O.3       1 <0>         0.0000
     15 H1         -0.7216   -4.1776    0.9106 H         1 <0>         0.0000
     16 H2          4.0844   -2.1881   -1.0853 H         1 <0>         0.0000
     17 H3         -1.5329   -1.8445    0.8272 H         1 <0>         0.0000
     18 H4          4.9037   -4.5164   -1.0054 H         1 <0>         0.0000
     19 H5          2.2547   -0.5235   -0.7070 H         1 <0>         0.0000
     20 H6          1.1126   -5.8522    0.5323 H         1 <0>         0.0000
     21 H7          4.3817   -6.6689   -0.4836 H         1 <0>         0.0000
     22 H8         -1.5932    1.4922    0.3227 H         1 <0>         0.0000
@<TRIPOS>BOND
     1    1    3 ar
     2    1    8 ar
     3    1   15 1
     4    2    4 ar
     5    2    7 ar
     6    2   16 1
     7    3    9 ar
     8    3   17 1
     9    4   10 ar
    10    4   18 1
    11    5    7 ar
    12    5    9 ar
    13    5   19 1
    14    6    8 ar
    15    6   10 ar
    16    6   20 1
    17    7    8 ar
    18    9   11 1
    19   10   13 1
    20   11   12 2
    21   11   14 1
    22   13   21 1
    23   14   22 1
