@<TRIPOS>MOLECULE
*****
   21    22     0     0     0
SMALL
NO_CHARGES

@<TRIPOS>ATOM
      1 C1         -0.0625   -3.3661    0.5510 C.ar      1 <0>         0.0000
      2 C2          3.4345   -3.0006   -0.7298 C.ar      1 <0>         0.0000
      3 C3         -0.4979   -2.0575    0.4967 C.ar      1 <0>         0.0000
      4 C4          3.8891   -4.3042   -0.6830 C.ar      1 <0>         0.0000
      5 C5          1.6302   -1.3235   -0.3635 C.ar      1 <0>         0.0000
      6 C6          1.7441   -5.0461    0.1843 C.ar      1 <0>         0.0000
      7 C7          2.1169   -2.6592   -0.3229 C.ar      1 <0>         0.0000
      8 C8          1.2568   -3.7107    0.1439 C.ar      1 <0>         0.0000
      9 C9          0.3464   -1.0092    0.0359 C.ar      1 <0>         0.0000
     10 C10         3.0301   -5.3343   -0.2199 C.ar      1 <0>         0.0000
     11 C11        -0.1750    0.4494   -0.0120 C.2       1 <0>         0.0000
     12 O1          0.6491    1.3050   -0.4351 O.co2     1 <0>         0.0000
     13 O2         -1.3656    0.6018    0.3802 O.co2     1 <0>         0.0000
     14 O3          3.4669   -6.6531   -0.1646 O.3       1 <0>         0.0000
     15 H1         -0.7229   -4.1564    0.9068 H         1 <0>         0.0000
     16 H2          4.0927   -2.2103   -1.0848 H         1 <0>         0.0000
     17 H3         -1.5010   -1.7723    0.8025 H         1 <0>         0.0000
     18 H4          4.9040   -4.5477   -0.9996 H         1 <0>         0.0000
     19 H5          2.2633   -0.5111   -0.7131 H         1 <0>         0.0000
     20 H6          1.1031   -5.8514    0.5356 H         1 <0>         0.0000
     21 H7          4.3826   -6.6747   -0.4814 H         1 <0>         0.0000
@<TRIPOS>BOND
     1    1    3 ar
     2    1    8 ar
     3    1   15 1
     4    2    4 ar
     5    2    7 ar
     6    2   16 1
     7    3    9 ar
     8    3   17 1
     9    4   10 ar
    10    4   18 1
    11    5    7 ar
    12    5    9 ar
    13    5   19 1
    14    6    8 ar
    15    6   10 ar
    16    6   20 1
    17    7    8 ar
    18    9   11 1
    19   10   14 1
    20   11   12 1
    21   11   13 2
    22   14   21 1
