@<TRIPOS>MOLECULE
*****
   33    33     0     0     0
SMALL
NO_CHARGES

@<TRIPOS>ATOM
      1 C1         -0.9520   -0.6162   -0.6474 C.2       1 <0>         0.0000
      2 C2          1.9932    0.8034   -0.2330 C.3       1 <0>         0.0000
      3 C3          2.2061   -0.6582   -0.6540 C.3       1 <0>         0.0000
      4 C4          0.6017    1.3857   -0.5298 C.3       1 <0>         0.0000
      5 C5          1.2561   -1.6677    0.0125 C.3       1 <0>         0.0000
      6 C6         -0.5334    0.6103    0.1632 C.3       1 <0>         0.0000
      7 C7         -5.4927    4.6980   -1.8893 C.3       1 <0>         0.0000
      8 C8         -4.3483    3.6983   -2.0900 C.3       1 <0>         0.0000
      9 C9         -3.7077    3.2638   -0.7648 C.3       1 <0>         0.0000
     10 C10        -2.5788    2.2569   -0.9810 C.3       1 <0>         0.0000
     11 N1         -0.0989   -1.6837   -0.5422 N.am      1 <0>         0.0000
     12 O1         -1.9417   -0.6591   -1.3730 O.2       1 <0>         0.0000
     13 O2         -2.9920    0.9145    1.3428 O.2       1 <0>         0.0000
     14 S1         -1.9221    1.7503    0.6660 S.o       1 <0>         0.0000
     15 H1          2.1837    0.8916    0.8450 H         1 <0>         0.0000
     16 H2          2.7456    1.4266   -0.7300 H         1 <0>         0.0000
     17 H3          2.1136   -0.7577   -1.7426 H         1 <0>         0.0000
     18 H4          3.2342   -0.9408   -0.3968 H         1 <0>         0.0000
     19 H5          0.5874    2.4268   -0.1828 H         1 <0>         0.0000
     20 H6          0.4184    1.4105   -1.6097 H         1 <0>         0.0000
     21 H7          1.6502   -2.6786   -0.1179 H         1 <0>         0.0000
     22 H8          1.2157   -1.4922    1.0946 H         1 <0>         0.0000
     23 H9         -0.1931    0.2791    1.1509 H         1 <0>         0.0000
     24 H10        -5.1399    5.6096   -1.3932 H         1 <0>         0.0000
     25 H11        -5.9389    4.9894   -2.8462 H         1 <0>         0.0000
     26 H12        -6.2856    4.2679   -1.2672 H         1 <0>         0.0000
     27 H13        -4.7224    2.8107   -2.6151 H         1 <0>         0.0000
     28 H14        -3.5822    4.1412   -2.7402 H         1 <0>         0.0000
     29 H15        -3.3292    4.1472   -0.2332 H         1 <0>         0.0000
     30 H16        -4.4690    2.8086   -0.1216 H         1 <0>         0.0000
     31 H17        -2.9170    1.3479   -1.4781 H         1 <0>         0.0000
     32 H18        -1.7458    2.6962   -1.5418 H         1 <0>         0.0000
     33 H19        -0.3429   -2.4442   -1.1673 H         1 <0>         0.0000
@<TRIPOS>BOND
     1    1    6 1
     2    1   11 am
     3    1   12 2
     4    2    3 1
     5    2    4 1
     6    2   15 1
     7    2   16 1
     8    3    5 1
     9    3   17 1
    10    3   18 1
    11    4    6 1
    12    4   19 1
    13    4   20 1
    14    5   11 1
    15    5   21 1
    16    5   22 1
    17    6   14 1
    18    6   23 1
    19    7    8 1
    20    7   24 1
    21    7   25 1
    22    7   26 1
    23    8    9 1
    24    8   27 1
    25    8   28 1
    26    9   10 1
    27    9   29 1
    28    9   30 1
    29   10   14 1
    30   10   31 1
    31   10   32 1
    32   11   33 1
    33   13   14 2
