@<TRIPOS>MOLECULE
*****
   28    29     0     0     0
SMALL
NO_CHARGES

@<TRIPOS>ATOM
      1 C1         -0.0170   -0.3125    1.7492 C.ar      1 <0>         0.0000
      2 C2         -0.5799   -0.8444    0.5806 C.ar      1 <0>         0.0000
      3 C3         -0.2804   -0.9171    2.9743 C.ar      1 <0>         0.0000
      4 C4         -1.4081   -1.9641    0.6400 C.ar      1 <0>         0.0000
      5 C5         -1.1031   -2.0511    3.0541 C.ar      1 <0>         0.0000
      6 C6         -1.6708   -2.5683    1.8750 C.ar      1 <0>         0.0000
      7 C7         -1.2989   -2.6805    4.3891 C.2       1 <0>         0.0000
      8 C8         -3.1191   -3.4733    6.8135 C.3       1 <0>         0.0000
      9 C9         -1.2483   -5.1477    6.2758 C.3       1 <0>         0.0000
     10 C10        -2.5043   -4.4244    5.7822 C.3       1 <0>         0.0000
     11 N1         -2.4619   -3.7361    1.9480 N.pl3     1 <0>         0.0000
     12 N2         -2.2303   -3.7316    4.4778 N.am      1 <0>         0.0000
     13 O1         -0.6442   -2.3454    5.3687 O.2       1 <0>         0.0000
     14 O2         -4.3721   -2.7251    3.4129 O.2       1 <0>         0.0000
     15 O3         -3.9958   -5.2172    3.3214 O.2       1 <0>         0.0000
     16 S1         -3.4632   -3.8624    3.3089 S.o2      1 <0>         0.0000
     17 H1          0.6210    0.5646    1.6985 H         1 <0>         0.0000
     18 H2         -0.3813   -0.3793   -0.3811 H         1 <0>         0.0000
     19 H3          0.1485   -0.5377    3.8961 H         1 <0>         0.0000
     20 H4         -1.8518   -2.3697   -0.2661 H         1 <0>         0.0000
     21 H5         -2.4063   -2.7026    7.1110 H         1 <0>         0.0000
     22 H6         -4.0158   -2.9917    6.4126 H         1 <0>         0.0000
     23 H7         -3.4071   -4.0455    7.7014 H         1 <0>         0.0000
     24 H8         -0.4758   -4.4443    6.5872 H         1 <0>         0.0000
     25 H9         -0.8470   -5.7972    5.4925 H         1 <0>         0.0000
     26 H10        -1.5198   -5.7734    7.1322 H         1 <0>         0.0000
     27 H11        -3.2399   -5.1900    5.5291 H         1 <0>         0.0000
     28 H12        -2.9827   -3.9728    1.1047 H         1 <0>         0.0000
@<TRIPOS>BOND
     1    1    2 ar
     2    1    3 ar
     3    1   17 1
     4    2    4 ar
     5    2   18 1
     6    3    5 ar
     7    3   19 1
     8    4    6 ar
     9    4   20 1
    10    5    6 ar
    11    5    7 1
    12    6   11 1
    13    7   12 am
    14    7   13 2
    15    8   10 1
    16    8   21 1
    17    8   22 1
    18    8   23 1
    19    9   10 1
    20    9   24 1
    21    9   25 1
    22    9   26 1
    23   10   12 1
    24   10   27 1
    25   11   16 1
    26   11   28 1
    27   12   16 1
    28   14   16 2
    29   15   16 2
