@<TRIPOS>MOLECULE
*****
   34    34     0     0     0
SMALL
NO_CHARGES

@<TRIPOS>ATOM
      1 C1         -0.3688    2.0687    1.7127 C.2       1 <0>         0.0000
      2 C2          1.1935    0.6964    0.3218 C.3       1 <0>         0.0000
      3 C3         -1.3048    0.5359    0.0083 C.3       1 <0>         0.0000
      4 C4          1.3296   -0.5619   -0.5415 C.3       1 <0>         0.0000
      5 C5         -1.0635   -0.7131   -0.8462 C.3       1 <0>         0.0000
      6 C6         -0.1718    0.7547    1.0153 C.3       1 <0>         0.0000
      7 C7         -0.5102    5.3933    0.1907 C.3       1 <0>         0.0000
      8 C8          1.5739   -3.0593   -3.9164 C.3       1 <0>         0.0000
      9 C9         -0.5418    4.3937    1.3271 C.3       1 <0>         0.0000
     10 C10         1.3764   -1.7400   -3.2007 C.3       1 <0>         0.0000
     11 N1          0.2369   -0.6285   -1.5150 N.3       1 <0>         0.0000
     12 O1         -0.5118    2.1879    2.9220 O.2       1 <0>         0.0000
     13 O2         -0.2534   -0.2438    2.0250 O.3       1 <0>         0.0000
     14 O3         -0.3620    3.0773    0.7952 O.3       1 <0>         0.0000
     15 O4          0.4023   -1.9085   -2.1802 O.3       1 <0>         0.0000
     16 H1          1.9873    0.7191    1.0749 H         1 <0>         0.0000
     17 H2          1.3474    1.5844   -0.2987 H         1 <0>         0.0000
     18 H3         -1.4139    1.4087   -0.6432 H         1 <0>         0.0000
     19 H4         -2.2567    0.4438    0.5421 H         1 <0>         0.0000
     20 H5          2.2704   -0.5400   -1.0704 H         1 <0>         0.0000
     21 H6          1.3164   -1.4386    0.0869 H         1 <0>         0.0000
     22 H7         -1.1004   -1.5937   -0.2240 H         1 <0>         0.0000
     23 H8         -1.8379   -0.7970   -1.5939 H         1 <0>         0.0000
     24 H9          0.4484    5.3570   -0.3344 H         1 <0>         0.0000
     25 H10        -1.3133    5.1895   -0.5251 H         1 <0>         0.0000
     26 H11        -0.6690    6.4096    0.5663 H         1 <0>         0.0000
     27 H12         1.9235   -3.8302   -3.2242 H         1 <0>         0.0000
     28 H13         0.6374   -3.3939   -4.3746 H         1 <0>         0.0000
     29 H14         2.3041   -2.9537   -4.7256 H         1 <0>         0.0000
     30 H15        -1.5030    4.4351    1.8480 H         1 <0>         0.0000
     31 H16         0.2618    4.5982    2.0409 H         1 <0>         0.0000
     32 H17         1.0267   -0.9734   -3.8986 H         1 <0>         0.0000
     33 H18         2.3128   -1.4076   -2.7429 H         1 <0>         0.0000
     34 H19         0.4536   -0.0537    2.6616 H         1 <0>         0.0000
@<TRIPOS>BOND
     1    1    6 1
     2    1   12 2
     3    1   14 1
     4    2    4 1
     5    2    6 1
     6    2   16 1
     7    2   17 1
     8    3    5 1
     9    3    6 1
    10    3   18 1
    11    3   19 1
    12    4   11 1
    13    4   20 1
    14    4   21 1
    15    5   11 1
    16    5   22 1
    17    5   23 1
    18    6   13 1
    19    7    9 1
    20    7   24 1
    21    7   25 1
    22    7   26 1
    23    8   10 1
    24    8   27 1
    25    8   28 1
    26    8   29 1
    27    9   14 1
    28    9   30 1
    29    9   31 1
    30   10   15 1
    31   10   32 1
    32   10   33 1
    33   11   15 1
    34   13   34 1
