@<TRIPOS>MOLECULE
*****
   50    53     0     0     0
SMALL
NO_CHARGES

@<TRIPOS>ATOM
      1 C1         -5.2354   -3.8555   11.3855 C.ar      1 <0>         0.0000
      2 C2         -4.6846   -4.8482   10.5846 C.ar      1 <0>         0.0000
      3 C3         -4.8363   -2.5333   11.2130 C.ar      1 <0>         0.0000
      4 C4         -3.4629   -0.8773   10.0413 C.ar      1 <0>         0.0000
      5 C5          1.2920   -0.4452    3.9766 C.ar      1 <0>         0.0000
      6 C6         -0.6421    0.4222    2.8173 C.ar      1 <0>         0.0000
      7 C7         -3.7364   -4.5167    9.6136 C.ar      1 <0>         0.0000
      8 C8          0.4947   -0.7472    5.0807 C.ar      1 <0>         0.0000
      9 C9         -1.4393    0.1202    3.9213 C.ar      1 <0>         0.0000
     10 C10        -2.5195   -0.5807    9.0682 C.ar      1 <0>         0.0000
     11 C11        -3.8827   -2.2001   10.2362 C.ar      1 <0>         0.0000
     12 C12         0.7236    0.1394    2.8449 C.ar      1 <0>         0.0000
     13 C13        -3.3193   -3.2027    9.4193 C.ar      1 <0>         0.0000
     14 C14        -0.8709   -0.4644    5.0530 C.ar      1 <0>         0.0000
     15 C15        -2.0254   -1.6285    8.3181 C.ar      1 <0>         0.0000
     16 C16         1.4537    1.9893    1.4635 C.2       1 <0>         0.0000
     17 C17         3.4368   -0.3042   -0.6096 C.3       1 <0>         0.0000
     18 C18         3.9522    0.4938    0.5794 C.3       1 <0>         0.0000
     19 C19         1.9682   -0.0072   -0.8744 C.3       1 <0>         0.0000
     20 C20         3.1129    0.2340    1.8322 C.3       1 <0>         0.0000
     21 C21         1.0987   -0.2459    0.3625 C.3       1 <0>         0.0000
     22 C22         1.5997    0.4716    1.6323 C.3       1 <0>         0.0000
     23 C23        -1.0032   -1.3545    7.2543 C.3       1 <0>         0.0000
     24 N1         -2.4035   -2.9179    8.4743 N.ar      1 <0>         0.0000
     25 O1          1.0156    2.5458    0.4677 O.2       1 <0>         0.0000
     26 O2          1.8814    2.6379    2.5743 O.3       1 <0>         0.0000
     27 O3         -1.6488   -0.7578    6.1306 O.3       1 <0>         0.0000
     28 H1         -5.9726   -4.1092   12.1411 H         1 <0>         0.0000
     29 H2         -4.9901   -5.8825   10.7129 H         1 <0>         0.0000
     30 H3         -5.2740   -1.7636   11.8449 H         1 <0>         0.0000
     31 H4         -3.8691   -0.0706   10.6473 H         1 <0>         0.0000
     32 H5          2.3552   -0.6692    4.0070 H         1 <0>         0.0000
     33 H6         -1.0933    0.8775    1.9398 H         1 <0>         0.0000
     34 H7         -3.3197   -5.3129    8.9994 H         1 <0>         0.0000
     35 H8          0.9435   -1.2021    5.9592 H         1 <0>         0.0000
     36 H9         -2.5026    0.3432    3.8938 H         1 <0>         0.0000
     37 H10        -2.1896    0.4404    8.9119 H         1 <0>         0.0000
     38 H11         3.5668   -1.3762   -0.4179 H         1 <0>         0.0000
     39 H12         4.0290   -0.0644   -1.4999 H         1 <0>         0.0000
     40 H13         4.9963    0.2255    0.7772 H         1 <0>         0.0000
     41 H14         3.9396    1.5639    0.3399 H         1 <0>         0.0000
     42 H15         1.8597    1.0342   -1.2012 H         1 <0>         0.0000
     43 H16         1.6093   -0.6342   -1.6987 H         1 <0>         0.0000
     44 H17         3.2809   -0.8062    2.1453 H         1 <0>         0.0000
     45 H18         3.4962    0.8599    2.6491 H         1 <0>         0.0000
     46 H19         0.0665    0.0505    0.1322 H         1 <0>         0.0000
     47 H20         1.0669   -1.3294    0.5463 H         1 <0>         0.0000
     48 H21        -0.2269   -0.6751    7.6226 H         1 <0>         0.0000
     49 H22        -0.5152   -2.2825    6.9373 H         1 <0>         0.0000
     50 H23         1.7978    3.6112    2.4853 H         1 <0>         0.0000
@<TRIPOS>BOND
     1    1    2 ar
     2    1    3 ar
     3    1   28 1
     4    2    7 ar
     5    2   29 1
     6    3   11 ar
     7    3   30 1
     8    4   10 ar
     9    4   11 ar
    10    4   31 1
    11    5    8 ar
    12    5   12 ar
    13    5   32 1
    14    6    9 ar
    15    6   12 ar
    16    6   33 1
    17    7   13 ar
    18    7   34 1
    19    8   14 ar
    20    8   35 1
    21    9   14 ar
    22    9   36 1
    23   10   15 ar
    24   10   37 1
    25   11   13 ar
    26   12   22 1
    27   13   24 ar
    28   14   27 1
    29   15   23 1
    30   15   24 ar
    31   16   22 1
    32   16   25 2
    33   16   26 1
    34   17   19 1
    35   17   18 1
    36   17   38 1
    37   17   39 1
    38   18   20 1
    39   18   40 1
    40   18   41 1
    41   19   21 1
    42   19   42 1
    43   19   43 1
    44   20   22 1
    45   20   44 1
    46   20   45 1
    47   21   22 1
    48   21   46 1
    49   21   47 1
    50   23   27 1
    51   23   48 1
    52   23   49 1
    53   26   50 1
