@<TRIPOS>MOLECULE
*****
   28    29     0     0     0
SMALL
NO_CHARGES

@<TRIPOS>ATOM
      1 C1         -0.4690    0.7880    0.8200 C.1       1 <0>         0.0000
      2 C2         -2.3030   -2.4120    0.2280 C.ar      1 <0>         0.0000
      3 C3         -1.2930   -3.2190   -0.2900 C.ar      1 <0>         0.0000
      4 C4          7.1210   -2.4660    0.1720 C.ar      1 <0>         0.0000
      5 C5          7.8970   -1.4180   -0.3100 C.ar      1 <0>         0.0000
      6 C6         -2.0260   -1.0980    0.5940 C.ar      1 <0>         0.0000
      7 C7         -0.0050   -2.7200   -0.4400 C.ar      1 <0>         0.0000
      8 C8          5.7460   -2.3060    0.1850 C.ar      1 <0>         0.0000
      9 C9          7.2790   -0.2540   -0.7590 C.ar      1 <0>         0.0000
     10 C10        -0.7370   -0.5760    0.4510 C.ar      1 <0>         0.0000
     11 C11         0.2800   -1.4040   -0.0610 C.ar      1 <0>         0.0000
     12 C12         5.2040   -1.1050   -0.2890 C.ar      1 <0>         0.0000
     13 C13         2.7740   -1.5650   -0.0950 C.2       1 <0>         0.0000
     14 N1         -0.2350    1.8710    1.0950 N.1       1 <0>         0.0000
     15 N2          5.9540   -0.1050   -0.7450 N.ar      1 <0>         0.0000
     16 N3          1.5960   -0.8750   -0.2140 N.am      1 <0>         0.0000
     17 N4          3.8600   -0.7800   -0.3440 N.am      1 <0>         0.0000
     18 O1          2.8380   -2.7440    0.2110 O.2       1 <0>         0.0000
     19 H1         -3.2840   -2.8000    0.3410 H         1 <0>         0.0000
     20 H2         -1.5080   -4.2190   -0.5710 H         1 <0>         0.0000
     21 H3          7.5700   -3.3620    0.5210 H         1 <0>         0.0000
     22 H4          8.9520   -1.5030   -0.3360 H         1 <0>         0.0000
     23 H5         -2.8040   -0.4900    0.9840 H         1 <0>         0.0000
     24 H6          0.7520   -3.3410   -0.8460 H         1 <0>         0.0000
     25 H7          5.1270   -3.0810    0.5510 H         1 <0>         0.0000
     26 H8          7.8660    0.5500   -1.1260 H         1 <0>         0.0000
     27 H9          1.6940    0.1430   -0.3020 H         1 <0>         0.0000
     28 H10         3.6980    0.1730   -0.6700 H         1 <0>         0.0000
@<TRIPOS>BOND
     1    1   10 1
     2    1   14 3
     3    2    3 ar
     4    2    6 ar
     5    2   19 1
     6    3    7 ar
     7    3   20 1
     8    4    5 ar
     9    4    8 ar
    10    4   21 1
    11    5    9 ar
    12    5   22 1
    13    6   10 ar
    14    6   23 1
    15    7   11 ar
    16    7   24 1
    17    8   12 ar
    18    8   25 1
    19    9   15 ar
    20    9   26 1
    21   10   11 ar
    22   11   16 1
    23   12   15 ar
    24   12   17 1
    25   13   16 am
    26   13   17 am
    27   13   18 2
    28   16   27 1
    29   17   28 1
