@<TRIPOS>MOLECULE
*****
   28    29     0     0     0
SMALL
NO_CHARGES

@<TRIPOS>ATOM
      1 C1         -3.7832    4.1644    1.1351 C.ar      1 <0>         0.0000
      2 C2         -4.1992    2.8578    1.3906 C.ar      1 <0>         0.0000
      3 C3         -2.4229    4.4721    1.1156 C.ar      1 <0>         0.0000
      4 C4         -3.2548    1.8587    1.6265 C.ar      1 <0>         0.0000
      5 C5         -1.4785    3.4731    1.3515 C.ar      1 <0>         0.0000
      6 C6         -1.8944    2.1663    1.6069 C.ar      1 <0>         0.0000
      7 C7         -0.3536    0.3974    0.8914 C.2       1 <0>         0.0000
      8 C8          0.6406   -0.6348    1.3028 C.2       1 <0>         0.0000
      9 C9         -0.7773    0.6093   -0.5287 C.2       1 <0>         0.0000
     10 C10        -0.9262    1.1412    1.8488 C.2       1 <0>         0.0000
     11 C11         1.2972   -0.6293   -1.0824 C.3       1 <0>         0.0000
     12 C12        -0.2697    0.0435   -2.8822 C.3       1 <0>         0.0000
     13 N1          1.3274   -1.1889    0.2470 N.am      1 <0>         0.0000
     14 N2          0.0151   -0.0586   -1.4593 N.am      1 <0>         0.0000
     15 O1          0.8048   -0.9754    2.4706 O.2       1 <0>         0.0000
     16 O2         -1.7584    1.2953   -0.8080 O.2       1 <0>         0.0000
     17 H1         -4.5186    4.9425    0.9528 H         1 <0>         0.0000
     18 H2         -5.2584    2.6183    1.4070 H         1 <0>         0.0000
     19 H3         -2.0988    5.4897    0.9178 H         1 <0>         0.0000
     20 H4         -3.5948    0.8449    1.8241 H         1 <0>         0.0000
     21 H5         -0.4216    3.7283    1.3329 H         1 <0>         0.0000
     22 H6         -0.6082    0.9657    2.8734 H         1 <0>         0.0000
     23 H7          2.0693    0.1453   -1.1263 H         1 <0>         0.0000
     24 H8          1.5415   -1.4258   -1.7931 H         1 <0>         0.0000
     25 H9          0.2718    0.8892   -3.3140 H         1 <0>         0.0000
     26 H10        -1.3408    0.1920   -3.0436 H         1 <0>         0.0000
     27 H11         0.0386   -0.8710   -3.3960 H         1 <0>         0.0000
     28 H12         1.8782   -2.0262    0.4102 H         1 <0>         0.0000
@<TRIPOS>BOND
     1    1    3 ar
     2    1    2 ar
     3    1   17 1
     4    2    4 ar
     5    2   18 1
     6    3    5 ar
     7    3   19 1
     8    4    6 ar
     9    4   20 1
    10    5    6 ar
    11    5   21 1
    12    6   10 1
    13    7    8 1
    14    7    9 1
    15    7   10 2
    16    8   13 am
    17    8   15 2
    18    9   14 am
    19    9   16 2
    20   10   22 1
    21   11   13 1
    22   11   14 1
    23   11   23 1
    24   11   24 1
    25   12   14 1
    26   12   25 1
    27   12   26 1
    28   12   27 1
    29   13   28 1
