@<TRIPOS>MOLECULE
*****
   18    18     0     0     0
SMALL
NO_CHARGES

@<TRIPOS>ATOM
      1 C1          5.8430    1.2470    0.9090 C.ar      1 <0>         0.0000
      2 C2          4.6140    1.4530    1.5350 C.ar      1 <0>         0.0000
      3 C3          5.9440    0.3640   -0.1650 C.ar      1 <0>         0.0000
      4 C4          3.4810    0.7800    1.0880 C.ar      1 <0>         0.0000
      5 C5          4.8150   -0.3120   -0.6200 C.ar      1 <0>         0.0000
      6 C6          3.5910   -0.0950    0.0050 C.ar      1 <0>         0.0000
      7 C7          1.2040   -0.4480   -0.5220 C.2       1 <0>         0.0000
      8 C8          0.2610   -1.4900   -1.0580 C.3       1 <0>         0.0000
      9 O1          0.8360    0.6460   -0.1670 O.2       1 <0>         0.0000
     10 O2          2.5050   -0.8090   -0.4810 O.3       1 <0>         0.0000
     11 H1          6.7030    1.7620    1.2530 H         1 <0>         0.0000
     12 H2          4.5420    2.1240    2.3520 H         1 <0>         0.0000
     13 H3          6.8810    0.2090   -0.6360 H         1 <0>         0.0000
     14 H4          2.5500    0.9330    1.5690 H         1 <0>         0.0000
     15 H5          4.8840   -0.9850   -1.4350 H         1 <0>         0.0000
     16 H6         -0.7340   -1.0700   -1.0260 H         1 <0>         0.0000
     17 H7          0.3620   -2.3560   -0.4220 H         1 <0>         0.0000
     18 H8          0.5820   -1.7070   -2.0660 H         1 <0>         0.0000
@<TRIPOS>BOND
     1    1    2 ar
     2    1    3 ar
     3    1   11 1
     4    2    4 ar
     5    2   12 1
     6    3    5 ar
     7    3   13 1
     8    4    6 ar
     9    4   14 1
    10    5    6 ar
    11    5   15 1
    12    6   10 1
    13    7    8 1
    14    7    9 2
    15    7   10 1
    16    8   16 1
    17    8   17 1
    18    8   18 1
