@<TRIPOS>MOLECULE
*****
   27    27     0     0     0
SMALL
NO_CHARGES

@<TRIPOS>ATOM
      1 C1          0.1441   -0.4035   -0.9282 C.2       1 <0>         0.0000
      2 C2          0.9511    1.9003   -0.4132 C.2       1 <0>         0.0000
      3 C3         -0.2578   -0.4223    1.5198 C.3       1 <0>         0.0000
      4 C4          1.3242    0.4286   -0.3886 C.3       1 <0>         0.0000
      5 C5         -0.7337   -0.9900    0.1791 C.3       1 <0>         0.0000
      6 C6         -2.2225   -0.7620   -0.1068 C.3       1 <0>         0.0000
      7 C7          3.4346    4.4550   -2.5977 C.3       1 <0>         0.0000
      8 C8          3.0452    4.7955   -1.1548 C.3       1 <0>         0.0000
      9 C9          1.7675    4.1121   -0.6972 C.3       1 <0>         0.0000
     10 O1         -0.0309   -0.5806   -2.1155 O.2       1 <0>         0.0000
     11 O2         -0.1705    2.3137   -0.1720 O.2       1 <0>         0.0000
     12 O3          2.0067    2.6752   -0.7055 O.3       1 <0>         0.0000
     13 S1          1.5548   -0.1212    1.3482 S.3       1 <0>         0.0000
     14 H1         -0.7590    0.5201    1.7507 H         1 <0>         0.0000
     15 H2         -0.4032   -1.1198    2.3471 H         1 <0>         0.0000
     16 H3          2.2277    0.2427   -0.9692 H         1 <0>         0.0000
     17 H4         -0.5204   -2.0673    0.1621 H         1 <0>         0.0000
     18 H5         -2.4495    0.3081   -0.1057 H         1 <0>         0.0000
     19 H6         -2.8404   -1.2517    0.6523 H         1 <0>         0.0000
     20 H7         -2.4848   -1.1700   -1.0863 H         1 <0>         0.0000
     21 H8          3.6104    3.3818   -2.7145 H         1 <0>         0.0000
     22 H9          2.6425    4.7438   -3.2980 H         1 <0>         0.0000
     23 H10         4.3488    4.9811   -2.8901 H         1 <0>         0.0000
     24 H11         2.8887    5.8764   -1.0522 H         1 <0>         0.0000
     25 H12         3.8574    4.5290   -0.4687 H         1 <0>         0.0000
     26 H13         1.4844    4.4037    0.3182 H         1 <0>         0.0000
     27 H14         0.9262    4.3256   -1.3628 H         1 <0>         0.0000
@<TRIPOS>BOND
     1    1    4 1
     2    1    5 1
     3    1   10 2
     4    2    4 1
     5    2   11 2
     6    2   12 1
     7    3    5 1
     8    3   13 1
     9    3   14 1
    10    3   15 1
    11    4   13 1
    12    4   16 1
    13    5    6 1
    14    5   17 1
    15    6   18 1
    16    6   19 1
    17    6   20 1
    18    7    8 1
    19    7   21 1
    20    7   22 1
    21    7   23 1
    22    8    9 1
    23    8   24 1
    24    8   25 1
    25    9   12 1
    26    9   26 1
    27    9   27 1
