@<TRIPOS>MOLECULE
*****
   27    27     0     0     0
SMALL
NO_CHARGES

@<TRIPOS>ATOM
      1 C1          0.4931   -0.2351   -0.1765 C.2       1 <0>         0.0000
      2 C2          1.2890    1.8613    0.9163 C.2       1 <0>         0.0000
      3 C3         -0.7123   -0.4811    1.9776 C.3       1 <0>         0.0000
      4 C4          1.4930    0.3586    0.8358 C.3       1 <0>         0.0000
      5 C5         -0.7552   -0.8222    0.4851 C.3       1 <0>         0.0000
      6 C6         -2.0331   -0.3667   -0.2285 C.3       1 <0>         0.0000
      7 C7          3.7627    6.0214    1.5682 C.3       1 <0>         0.0000
      8 C8          3.7645    4.4968    1.4054 C.3       1 <0>         0.0000
      9 C9          2.3549    3.9561    1.2349 C.3       1 <0>         0.0000
     10 O1          0.7120   -0.2450   -1.3695 O.2       1 <0>         0.0000
     11 O2          0.1954    2.3967    0.8528 O.2       1 <0>         0.0000
     12 O3          2.4508    2.5116    1.0879 O.3       1 <0>         0.0000
     13 S1          1.0709   -0.4118    2.4482 S.3       1 <0>         0.0000
     14 H1         -1.1745    0.4883    2.1755 H         1 <0>         0.0000
     15 H2         -1.1915   -1.2420    2.5969 H         1 <0>         0.0000
     16 H3          2.5182    0.1169    0.5555 H         1 <0>         0.0000
     17 H4         -0.6437   -1.9092    0.3739 H         1 <0>         0.0000
     18 H5         -2.1549    0.7164   -0.1347 H         1 <0>         0.0000
     19 H6         -2.9117   -0.8563    0.2031 H         1 <0>         0.0000
     20 H7         -1.9808   -0.6176   -1.2911 H         1 <0>         0.0000
     21 H8          3.3264    6.5160    0.6932 H         1 <0>         0.0000
     22 H9          3.1858    6.3287    2.4476 H         1 <0>         0.0000
     23 H10         4.7820    6.3998    1.6902 H         1 <0>         0.0000
     24 H11         4.2253    4.0231    2.2793 H         1 <0>         0.0000
     25 H12         4.3639    4.2101    0.5342 H         1 <0>         0.0000
     26 H13         1.7236    4.1746    2.1014 H         1 <0>         0.0000
     27 H14         1.8634    4.3637    0.3467 H         1 <0>         0.0000
@<TRIPOS>BOND
     1    1    4 1
     2    1    5 1
     3    1   10 2
     4    2    4 1
     5    2   11 2
     6    2   12 1
     7    3    5 1
     8    3   13 1
     9    3   14 1
    10    3   15 1
    11    4   13 1
    12    4   16 1
    13    5    6 1
    14    5   17 1
    15    6   18 1
    16    6   19 1
    17    6   20 1
    18    7    8 1
    19    7   21 1
    20    7   22 1
    21    7   23 1
    22    8    9 1
    23    8   24 1
    24    8   25 1
    25    9   12 1
    26    9   26 1
    27    9   27 1
