@<TRIPOS>MOLECULE
*****
   27    27     0     0     0
SMALL
NO_CHARGES

@<TRIPOS>ATOM
      1 C1          0.1610   -0.3512   -0.4759 C.2       1 <0>         0.0000
      2 C2          0.6760    1.8199    0.6496 C.2       1 <0>         0.0000
      3 C3         -1.1503   -0.6743    1.6057 C.3       1 <0>         0.0000
      4 C4          1.0349    0.3466    0.5831 C.3       1 <0>         0.0000
      5 C5         -1.0722   -1.0344    0.1187 C.3       1 <0>         0.0000
      6 C6         -2.3373   -0.6948   -0.6777 C.3       1 <0>         0.0000
      7 C7          1.7073    3.6413    3.7834 C.3       1 <0>         0.0000
      8 C8          0.8596    4.2038    2.6372 C.3       1 <0>         0.0000
      9 C9          1.4752    3.9793    1.2604 C.3       1 <0>         0.0000
     10 O1          0.4583   -0.3662   -1.6518 O.2       1 <0>         0.0000
     11 O2         -0.4462    2.2469    0.4349 O.2       1 <0>         0.0000
     12 O3          1.7320    2.5660    1.0103 O.3       1 <0>         0.0000
     13 S1          0.5879   -0.4421    2.1816 S.3       1 <0>         0.0000
     14 H1         -1.7080    0.2522    1.7594 H         1 <0>         0.0000
     15 H2         -1.5982   -1.4671    2.2080 H         1 <0>         0.0000
     16 H3          2.0952    0.2062    0.3730 H         1 <0>         0.0000
     17 H4         -0.8647   -2.1094    0.0321 H         1 <0>         0.0000
     18 H5         -2.5501    0.3761   -0.6128 H         1 <0>         0.0000
     19 H6         -3.1983   -1.2480   -0.2894 H         1 <0>         0.0000
     20 H7         -2.2005   -0.9566   -1.7301 H         1 <0>         0.0000
     21 H8          1.8140    2.5561    3.6976 H         1 <0>         0.0000
     22 H9          2.7119    4.0801    3.7880 H         1 <0>         0.0000
     23 H10         1.2426    3.8571    4.7507 H         1 <0>         0.0000
     24 H11         0.7321    5.2875    2.7560 H         1 <0>         0.0000
     25 H12        -0.1438    3.7674    2.6541 H         1 <0>         0.0000
     26 H13         0.8310    4.3631    0.4665 H         1 <0>         0.0000
     27 H14         2.4635    4.4384    1.1854 H         1 <0>         0.0000
@<TRIPOS>BOND
     1    1    4 1
     2    1    5 1
     3    1   10 2
     4    2    4 1
     5    2   11 2
     6    2   12 1
     7    3    5 1
     8    3   13 1
     9    3   14 1
    10    3   15 1
    11    4   13 1
    12    4   16 1
    13    5    6 1
    14    5   17 1
    15    6   18 1
    16    6   19 1
    17    6   20 1
    18    7    8 1
    19    7   21 1
    20    7   22 1
    21    7   23 1
    22    8    9 1
    23    8   24 1
    24    8   25 1
    25    9   12 1
    26    9   26 1
    27    9   27 1
