@<TRIPOS>MOLECULE
*****
   37    37     0     0     0
SMALL
NO_CHARGES

@<TRIPOS>ATOM
      1 C1          0.3423    4.1308    3.3729 C.2       1 <0>         0.0000
      2 C2          1.1487    3.6496    1.4910 C.2       1 <0>         0.0000
      3 C3         -0.4281    1.6924   -0.2546 C.2       1 <0>         0.0000
      4 C4         -1.4497    2.4760   -0.6346 C.2       1 <0>         0.0000
      5 C5         -1.7334    2.7227   -2.0960 C.3       1 <0>         0.0000
      6 C6         -2.3681    3.1891    0.3276 C.3       1 <0>         0.0000
      7 C7          2.5443    1.0263    3.2229 C.3       1 <0>         0.0000
      8 C8          2.5775   -1.3120    2.3730 C.3       1 <0>         0.0000
      9 C9          0.5427   -0.4606    3.5853 C.3       1 <0>         0.0000
     10 C10        -0.0277    1.4087    1.1827 C.3       1 <0>         0.0000
     11 C11         1.1021    0.3426    1.2185 C.3       1 <0>         0.0000
     12 C12         1.6701   -0.0849    2.6051 C.3       1 <0>         0.0000
     13 N1          1.1920    4.6039    2.4149 N.2       1 <0>         0.0000
     14 N2         -0.2119    2.9533    3.0966 N.2       1 <0>         0.0000
     15 N3          0.3225    2.6532    1.8795 N.pl3     1 <0>         0.0000
     16 O1          0.6170   -0.7818    0.4729 O.3       1 <0>         0.0000
     17 H1          0.1202    4.6624    4.2892 H         1 <0>         0.0000
     18 H2          1.6757    3.6455    0.5465 H         1 <0>         0.0000
     19 H3          0.1784    1.2071   -1.0144 H         1 <0>         0.0000
     20 H4         -2.7444    2.3860   -2.3577 H         1 <0>         0.0000
     21 H5         -1.6914    3.7958   -2.3235 H         1 <0>         0.0000
     22 H6         -1.0209    2.2062   -2.7445 H         1 <0>         0.0000
     23 H7         -2.1510    4.2652    0.3317 H         1 <0>         0.0000
     24 H8         -2.2808    2.8367    1.3563 H         1 <0>         0.0000
     25 H9         -3.4119    3.0791    0.0105 H         1 <0>         0.0000
     26 H10         1.9666    1.8808    3.5733 H         1 <0>         0.0000
     27 H11         3.2946    1.3842    2.5087 H         1 <0>         0.0000
     28 H12         3.0836    0.6247    4.0878 H         1 <0>         0.0000
     29 H13         2.0215   -2.1667    1.9820 H         1 <0>         0.0000
     30 H14         3.0484   -1.6077    3.3166 H         1 <0>         0.0000
     31 H15         3.3752   -1.0822    1.6573 H         1 <0>         0.0000
     32 H16        -0.1134   -1.2410    3.1772 H         1 <0>         0.0000
     33 H17         0.9703   -0.8640    4.5093 H         1 <0>         0.0000
     34 H18        -0.0701    0.4042    3.8531 H         1 <0>         0.0000
     35 H19        -0.8806    1.0201    1.7463 H         1 <0>         0.0000
     36 H20         1.9407    0.7169    0.6194 H         1 <0>         0.0000
     37 H21        -0.1474   -1.1510    0.9443 H         1 <0>         0.0000
@<TRIPOS>BOND
     1    1   13 1
     2    1   14 2
     3    1   17 1
     4    2   13 2
     5    2   15 1
     6    2   18 1
     7    3    4 2
     8    3   10 1
     9    3   19 1
    10    4    5 1
    11    4    6 1
    12    5   20 1
    13    5   21 1
    14    5   22 1
    15    6   23 1
    16    6   24 1
    17    6   25 1
    18    7   12 1
    19    7   26 1
    20    7   27 1
    21    7   28 1
    22    8   12 1
    23    8   29 1
    24    8   30 1
    25    8   31 1
    26    9   12 1
    27    9   32 1
    28    9   33 1
    29    9   34 1
    30   10   11 1
    31   10   15 1
    32   10   35 1
    33   11   12 1
    34   11   16 1
    35   11   36 1
    36   14   15 1
    37   16   37 1
