@<TRIPOS>MOLECULE
*****
   37    37     0     0     0
SMALL
NO_CHARGES

@<TRIPOS>ATOM
      1 C1          0.2424    3.7658    3.0453 C.2       1 <0>         0.0000
      2 C2          1.5102    3.2350    1.4552 C.2       1 <0>         0.0000
      3 C3         -0.0519    1.6576   -0.7545 C.2       1 <0>         0.0000
      4 C4         -1.0806    1.3156   -1.5510 C.2       1 <0>         0.0000
      5 C5         -1.1901    1.8783   -2.9481 C.3       1 <0>         0.0000
      6 C6         -2.2013    0.3846   -1.1578 C.3       1 <0>         0.0000
      7 C7          2.1907    0.4019    3.1126 C.3       1 <0>         0.0000
      8 C8          2.5794   -1.7130    1.8503 C.3       1 <0>         0.0000
      9 C9          0.2630   -1.1529    2.6564 C.3       1 <0>         0.0000
     10 C10         0.1939    1.1945    0.6642 C.3       1 <0>         0.0000
     11 C11         1.3227    0.1209    0.7188 C.3       1 <0>         0.0000
     12 C12         1.5700   -0.5694    2.0890 C.3       1 <0>         0.0000
     13 N1          1.3933    4.1444    2.4160 N.2       1 <0>         0.0000
     14 N2         -0.3478    2.6889    2.5345 N.2       1 <0>         0.0000
     15 N3          0.4848    2.3542    1.5093 N.pl3     1 <0>         0.0000
     16 O1          0.9832   -0.9064   -0.2149 O.3       1 <0>         0.0000
     17 H1         -0.1734    4.2913    3.8953 H         1 <0>         0.0000
     18 H2          2.3090    3.1777    0.7280 H         1 <0>         0.0000
     19 H3          0.6985    2.3412   -1.1523 H         1 <0>         0.0000
     20 H4         -1.2168    1.0738   -3.6935 H         1 <0>         0.0000
     21 H5         -2.1247    2.4416   -3.0606 H         1 <0>         0.0000
     22 H6         -0.3580    2.5448   -3.1896 H         1 <0>         0.0000
     23 H7         -3.1617    0.9116   -1.2106 H         1 <0>         0.0000
     24 H8         -2.0935   -0.0336   -0.1571 H         1 <0>         0.0000
     25 H9         -2.2628   -0.4529   -1.8631 H         1 <0>         0.0000
     26 H10         1.4896    1.1640    3.4553 H         1 <0>         0.0000
     27 H11         3.0769    0.9036    2.7079 H         1 <0>         0.0000
     28 H12         2.5110   -0.1630    3.9946 H         1 <0>         0.0000
     29 H13         2.1784   -2.4688    1.1728 H         1 <0>         0.0000
     30 H14         2.8267   -2.1931    2.8033 H         1 <0>         0.0000
     31 H15         3.5116   -1.3309    1.4172 H         1 <0>         0.0000
     32 H16        -0.2327   -1.7934    1.9207 H         1 <0>         0.0000
     33 H17         0.4799   -1.7606    3.5414 H         1 <0>         0.0000
     34 H18        -0.4323   -0.3664    2.9668 H         1 <0>         0.0000
     35 H19        -0.7101    0.7626    1.0847 H         1 <0>         0.0000
     36 H20         2.2667    0.6015    0.4108 H         1 <0>         0.0000
     37 H21         0.7423   -0.4723   -1.0513 H         1 <0>         0.0000
@<TRIPOS>BOND
     1    1   13 1
     2    1   14 2
     3    1   17 1
     4    2   13 2
     5    2   15 1
     6    2   18 1
     7    3    4 2
     8    3   10 1
     9    3   19 1
    10    4    5 1
    11    4    6 1
    12    5   20 1
    13    5   21 1
    14    5   22 1
    15    6   23 1
    16    6   24 1
    17    6   25 1
    18    7   12 1
    19    7   26 1
    20    7   27 1
    21    7   28 1
    22    8   12 1
    23    8   29 1
    24    8   30 1
    25    8   31 1
    26    9   12 1
    27    9   32 1
    28    9   33 1
    29    9   34 1
    30   10   11 1
    31   10   15 1
    32   10   35 1
    33   11   12 1
    34   11   16 1
    35   11   36 1
    36   14   15 1
    37   16   37 1
