@<TRIPOS>MOLECULE
*****
   40    42     0     0     0
SMALL
NO_CHARGES

@<TRIPOS>ATOM
      1 C1          9.9455    1.7667   -0.0827 C.1       1 <0>         0.0000
      2 C2          7.2199   -3.7795    2.8301 C.ar      1 <0>         0.0000
      3 C3          6.3475   -3.7070    1.7382 C.ar      1 <0>         0.0000
      4 C4          7.3968   -2.6639    3.6627 C.ar      1 <0>         0.0000
      5 C5          5.6481   -2.5287    1.4435 C.ar      1 <0>         0.0000
      6 C6          7.1262   -0.3182   -0.9017 C.2       1 <0>         0.0000
      7 C7          8.6811    1.1250   -0.2263 C.2       1 <0>         0.0000
      8 C8          6.7105   -1.4864    3.3796 C.ar      1 <0>         0.0000
      9 C9          5.8565   -1.4206    2.2692 C.ar      1 <0>         0.0000
     10 C10         6.6087    0.6194   -0.0325 C.2       1 <0>         0.0000
     11 C11         6.6417   -0.1941    4.1603 C.3       1 <0>         0.0000
     12 C12         5.8878    0.7673    3.2130 C.3       1 <0>         0.0000
     13 C13        11.2919   -1.3097    0.2450 C.3       1 <0>         0.0000
     14 C14         9.3362   -2.8388    0.0798 C.3       1 <0>         0.0000
     15 N1         10.9800    2.2774    0.0739 N.1       1 <0>         0.0000
     16 N2          7.5702    1.5006    0.3878 N.2       1 <0>         0.0000
     17 N3          8.4560    0.0142   -1.0373 N.pl3     1 <0>         0.0000
     18 N4          5.2479   -0.1322    2.1914 N.pl3     1 <0>         0.0000
     19 N5         10.2839   -1.9508   -0.6203 N.pl3     1 <0>         0.0000
     20 O1          4.4996    1.9197    0.9325 O.2       1 <0>         0.0000
     21 O2          4.2272   -0.3934   -0.1321 O.2       1 <0>         0.0000
     22 O3          8.8070   -1.8947   -2.6658 O.2       1 <0>         0.0000
     23 O4         10.6655   -0.1558   -2.3595 O.2       1 <0>         0.0000
     24 S1          4.9727    0.5696    0.6737 S.o2      1 <0>         0.0000
     25 S2          9.6541   -1.0521   -1.8457 S.o2      1 <0>         0.0000
     26 H1          7.7469   -4.7053    3.0435 H         1 <0>         0.0000
     27 H2          6.1970   -4.5803    1.1087 H         1 <0>         0.0000
     28 H3          8.0556   -2.7206    4.5261 H         1 <0>         0.0000
     29 H4          4.9534   -2.4797    0.6136 H         1 <0>         0.0000
     30 H5          6.6786   -1.1450   -1.4309 H         1 <0>         0.0000
     31 H6          6.0805   -0.3484    5.0883 H         1 <0>         0.0000
     32 H7          7.6259    0.1973    4.4324 H         1 <0>         0.0000
     33 H8          5.1100    1.3468    3.7084 H         1 <0>         0.0000
     34 H9          6.5787    1.4579    2.7241 H         1 <0>         0.0000
     35 H10        11.9237   -0.6469   -0.3429 H         1 <0>         0.0000
     36 H11        11.9077   -2.1071    0.6670 H         1 <0>         0.0000
     37 H12        10.8233   -0.7474    1.0612 H         1 <0>         0.0000
     38 H13         8.6946   -3.3417   -0.6419 H         1 <0>         0.0000
     39 H14         8.7247   -2.2907    0.8054 H         1 <0>         0.0000
     40 H15         9.9229   -3.5917    0.6094 H         1 <0>         0.0000
@<TRIPOS>BOND
     1    1    7 1
     2    1   15 3
     3    2    3 ar
     4    2    4 ar
     5    2   26 1
     6    3    5 ar
     7    3   27 1
     8    4    8 ar
     9    4   28 1
    10    5    9 ar
    11    5   29 1
    12    6   10 2
    13    6   17 1
    14    6   30 1
    15    7   16 2
    16    7   17 1
    17    8    9 ar
    18    8   11 1
    19    9   18 1
    20   10   16 1
    21   10   24 1
    22   11   12 1
    23   11   31 1
    24   11   32 1
    25   12   18 1
    26   12   33 1
    27   12   34 1
    28   13   19 1
    29   13   35 1
    30   13   36 1
    31   13   37 1
    32   14   19 1
    33   14   38 1
    34   14   39 1
    35   14   40 1
    36   17   25 1
    37   18   24 1
    38   19   25 1
    39   20   24 2
    40   21   24 2
    41   22   25 2
    42   23   25 2
