@<TRIPOS>MOLECULE
*****
   42    45     0     0     0
SMALL
NO_CHARGES

@<TRIPOS>ATOM
      1 C1         -7.1157    3.6897    0.5897 C.ar      1 <0>         0.0000
      2 C2         -6.4431    4.1072    1.7681 C.ar      1 <0>         0.0000
      3 C3         -6.6735    2.5846   -0.1073 C.ar      1 <0>         0.0000
      4 C4         -5.3428    3.4127    2.2256 C.ar      1 <0>         0.0000
      5 C5         -5.0612    0.6991   -0.3446 C.ar      1 <0>         0.0000
      6 C6         -3.9585    0.0140    0.1148 C.ar      1 <0>         0.0000
      7 C7         -3.7295    1.5360    1.9721 C.ar      1 <0>         0.0000
      8 C8         -5.5407    1.8502    0.3385 C.ar      1 <0>         0.0000
      9 C9         -4.8613    2.2713    1.5266 C.ar      1 <0>         0.0000
     10 C10        -3.2605    0.4327    1.2845 C.ar      1 <0>         0.0000
     11 C11         0.1901    2.2051    0.1120 C.2       1 <0>         0.0000
     12 C12         0.3702   -0.8382    1.5385 C.2       1 <0>         0.0000
     13 C13         0.3327    3.5057   -0.1555 C.2       1 <0>         0.0000
     14 C14         0.4348    1.0682   -0.8553 C.3       1 <0>         0.0000
     15 C15        -0.3221    1.6174    1.4166 C.3       1 <0>         0.0000
     16 C16        -0.6145    0.0107   -0.4527 C.3       1 <0>         0.0000
     17 C17        -0.1963   -1.4527   -0.6275 C.3       1 <0>         0.0000
     18 C18        -0.7052    0.1583    1.0833 C.3       1 <0>         0.0000
     19 C19         0.5819   -1.8143   -1.8791 C.3       1 <0>         0.0000
     20 C20        -2.0334   -0.3172    1.7427 C.3       1 <0>         0.0000
     21 O1          0.9229   -0.8831    2.6128 O.2       1 <0>         0.0000
     22 O2          0.6247   -1.7388    0.5460 O.3       1 <0>         0.0000
     23 H1         -7.9820    4.2453    0.2404 H         1 <0>         0.0000
     24 H2         -6.8011    4.9789    2.3095 H         1 <0>         0.0000
     25 H3         -7.1886    2.2617   -1.0093 H         1 <0>         0.0000
     26 H4         -4.8281    3.7326    3.1289 H         1 <0>         0.0000
     27 H5         -5.5844    0.3589   -1.2356 H         1 <0>         0.0000
     28 H6         -3.6221   -0.8775   -0.4101 H         1 <0>         0.0000
     29 H7         -3.2333    1.8532    2.8873 H         1 <0>         0.0000
     30 H8          0.1139    4.2673    0.5899 H         1 <0>         0.0000
     31 H9          0.6759    3.8524   -1.1276 H         1 <0>         0.0000
     32 H10         0.3659    1.3711   -1.9030 H         1 <0>         0.0000
     33 H11         1.4458    0.6711   -0.6925 H         1 <0>         0.0000
     34 H12         0.4354    1.6374    2.2072 H         1 <0>         0.0000
     35 H13        -1.1842    2.1834    1.7752 H         1 <0>         0.0000
     36 H14        -1.5626    0.2177   -0.9530 H         1 <0>         0.0000
     37 H15        -1.0814   -2.0974   -0.5531 H         1 <0>         0.0000
     38 H16         1.5044   -1.2340   -1.9567 H         1 <0>         0.0000
     39 H17        -0.0315   -1.6142   -2.7641 H         1 <0>         0.0000
     40 H18         0.8432   -2.8761   -1.8740 H         1 <0>         0.0000
     41 H19        -1.9075   -0.2161    2.8250 H         1 <0>         0.0000
     42 H20        -2.1679   -1.3872    1.5461 H         1 <0>         0.0000
@<TRIPOS>BOND
     1    1    2 ar
     2    1    3 ar
     3    1   23 1
     4    2    4 ar
     5    2   24 1
     6    3    8 ar
     7    3   25 1
     8    4    9 ar
     9    4   26 1
    10    5    6 ar
    11    5    8 ar
    12    5   27 1
    13    6   10 ar
    14    6   28 1
    15    7    9 ar
    16    7   10 ar
    17    7   29 1
    18    8    9 ar
    19   10   20 1
    20   11   13 2
    21   11   14 1
    22   11   15 1
    23   12   18 1
    24   12   21 2
    25   12   22 1
    26   13   30 1
    27   13   31 1
    28   14   16 1
    29   14   32 1
    30   14   33 1
    31   15   18 1
    32   15   34 1
    33   15   35 1
    34   16   17 1
    35   16   18 1
    36   16   36 1
    37   17   19 1
    38   17   22 1
    39   17   37 1
    40   18   20 1
    41   19   38 1
    42   19   39 1
    43   19   40 1
    44   20   41 1
    45   20   42 1
