@<TRIPOS>MOLECULE
*****
   31    31     0     0     0
SMALL
NO_CHARGES

@<TRIPOS>ATOM
      1 C1         -2.2886    0.1603   -0.4938 C.2       1 <0>         0.0000
      2 C2         -0.4327    0.9451    1.0524 C.3       1 <0>         0.0000
      3 C3         -0.1690   -1.1638   -0.2897 C.3       1 <0>         0.0000
      4 C4          0.4813    1.6494    0.0359 C.3       1 <0>         0.0000
      5 C5          0.6880   -0.3691   -1.2874 C.3       1 <0>         0.0000
      6 C6         -1.1686   -0.2656    0.4699 C.3       1 <0>         0.0000
      7 C7         -5.1565   -1.8280   -1.5928 C.3       1 <0>         0.0000
      8 C8          3.6300    0.5837   -0.0073 C.3       1 <0>         0.0000
      9 C9         -4.2849   -0.5866   -1.5673 C.3       1 <0>         0.0000
     10 N1          1.4052    0.7589   -0.6802 N.3       1 <0>         0.0000
     11 O1         -2.3786    1.2282   -1.0677 O.2       1 <0>         0.0000
     12 O2         -1.7430   -0.9675    1.5787 O.3       1 <0>         0.0000
     13 O3         -3.1771   -0.8496   -0.6641 O.3       1 <0>         0.0000
     14 O4          2.3009    0.1865    0.3135 O.3       1 <0>         0.0000
     15 H1          0.1674    0.5698    1.8856 H         1 <0>         0.0000
     16 H2         -1.1563    1.6592    1.4566 H         1 <0>         0.0000
     17 H3         -0.7002   -1.9729   -0.8045 H         1 <0>         0.0000
     18 H4          0.4817   -1.6155    0.4640 H         1 <0>         0.0000
     19 H5         -0.1174    2.1508   -0.7284 H         1 <0>         0.0000
     20 H6          1.0828    2.4096    0.5416 H         1 <0>         0.0000
     21 H7          1.4272   -1.0234   -1.7575 H         1 <0>         0.0000
     22 H8          0.0705    0.0559   -2.0871 H         1 <0>         0.0000
     23 H9         -4.5938   -2.6956   -1.9501 H         1 <0>         0.0000
     24 H10        -5.5476   -2.0526   -0.5960 H         1 <0>         0.0000
     25 H11        -6.0045   -1.6675   -2.2662 H         1 <0>         0.0000
     26 H12         4.2685    0.1339    0.7590 H         1 <0>         0.0000
     27 H13         3.7368    1.6754    0.0180 H         1 <0>         0.0000
     28 H14         3.9270    0.2180   -0.9982 H         1 <0>         0.0000
     29 H15        -4.8260    0.2909   -1.2037 H         1 <0>         0.0000
     30 H16        -3.8778   -0.3471   -2.5535 H         1 <0>         0.0000
     31 H17        -2.3095   -1.6700    1.2178 H         1 <0>         0.0000
@<TRIPOS>BOND
     1    1    6 1
     2    1   11 2
     3    1   13 1
     4    2    4 1
     5    2    6 1
     6    2   15 1
     7    2   16 1
     8    3    5 1
     9    3    6 1
    10    3   17 1
    11    3   18 1
    12    4   10 1
    13    4   19 1
    14    4   20 1
    15    5   10 1
    16    5   21 1
    17    5   22 1
    18    6   12 1
    19    7    9 1
    20    7   23 1
    21    7   24 1
    22    7   25 1
    23    8   14 1
    24    8   26 1
    25    8   27 1
    26    8   28 1
    27    9   13 1
    28    9   29 1
    29    9   30 1
    30   10   14 1
    31   12   31 1
