@<TRIPOS>MOLECULE
*****
   48    50     0     0     0
SMALL
NO_CHARGES

@<TRIPOS>ATOM
      1 C1          0.2381   -0.6125   -5.4518 C.2       1 <0>         0.0000
      2 C2          0.0156   -1.3813   -4.2704 C.2       1 <0>         0.0000
      3 C3          1.1173   -2.1370   -3.9315 C.2       1 <0>         0.0000
      4 C4         -0.6722    0.2918   -6.1114 C.2       1 <0>         0.0000
      5 C5          1.4948   -0.8169   -5.9583 C.2       1 <0>         0.0000
      6 C6          1.1851    0.6866   -7.8077 C.2       1 <0>         0.0000
      7 C7          2.3881   -5.1643   -3.5010 C.2       1 <0>         0.0000
      8 C8          2.1765   -6.6157   -3.9123 C.3       1 <0>         0.0000
      9 C9         -0.0482   -5.1368   -2.9907 C.3       1 <0>         0.0000
     10 C10        -0.1428   -6.4008   -3.8174 C.3       1 <0>         0.0000
     11 C11        -1.2445   -1.3818   -3.4851 C.3       1 <0>         0.0000
     12 C12        -1.1185    3.1199   -7.2304 C.3       1 <0>         0.0000
     13 C13         1.2982   -3.0610   -2.7894 C.3       1 <0>         0.0000
     14 C14         4.4039    0.2440   -6.7160 C.3       1 <0>         0.0000
     15 C15        -1.0049    1.8278   -7.9655 C.3       1 <0>         0.0000
     16 C16         3.3762   -0.5099   -7.5541 C.3       1 <0>         0.0000
     17 C17         5.8324    0.0201   -7.1711 C.3       1 <0>         0.0000
     18 N1         -0.1220    0.8992   -7.2653 N.am      1 <0>         0.0000
     19 N2          2.0170   -0.2176   -7.0999 N.am      1 <0>         0.0000
     20 N3          1.2298   -4.4603   -3.1812 N.am      1 <0>         0.0000
     21 O1         -1.8091    0.4955   -5.6928 O.2       1 <0>         0.0000
     22 O2          1.5668    1.2583   -8.8357 O.2       1 <0>         0.0000
     23 O3          3.5207   -4.6798   -3.5250 O.2       1 <0>         0.0000
     24 O4          0.9728   -7.2192   -3.4894 O.3       1 <0>         0.0000
     25 F1          6.7067    0.6939   -6.3938 F         1 <0>         0.0000
     26 F2          6.1484   -1.2925   -7.0980 F         1 <0>         0.0000
     27 F3          6.0202    0.4122   -8.4482 F         1 <0>         0.0000
     28 S1          2.4056   -1.9150   -5.0367 S.3       1 <0>         0.0000
     29 H1          2.2420   -6.6709   -5.0053 H         1 <0>         0.0000
     30 H2          3.0011   -7.2057   -3.4991 H         1 <0>         0.0000
     31 H3         -0.8593   -4.4526   -3.2573 H         1 <0>         0.0000
     32 H4         -0.1193   -5.3745   -1.9240 H         1 <0>         0.0000
     33 H5         -1.0540   -6.9507   -3.5627 H         1 <0>         0.0000
     34 H6         -0.1642   -6.1933   -4.8939 H         1 <0>         0.0000
     35 H7         -1.9307   -2.1582   -3.8519 H         1 <0>         0.0000
     36 H8         -1.0563   -1.5678   -2.4173 H         1 <0>         0.0000
     37 H9         -1.7605   -0.4119   -3.5466 H         1 <0>         0.0000
     38 H10        -0.1229    3.5784   -7.1378 H         1 <0>         0.0000
     39 H11        -1.7847    3.7987   -7.7831 H         1 <0>         0.0000
     40 H12        -1.5320    2.9360   -6.2278 H         1 <0>         0.0000
     41 H13         2.2737   -2.9126   -2.2961 H         1 <0>         0.0000
     42 H14         0.5331   -2.9103   -2.0095 H         1 <0>         0.0000
     43 H15         4.1863    1.3167   -6.7773 H         1 <0>         0.0000
     44 H16         4.3127   -0.0421   -5.6616 H         1 <0>         0.0000
     45 H17        -2.0039    1.3760   -8.0539 H         1 <0>         0.0000
     46 H18        -0.5995    2.0206   -8.9698 H         1 <0>         0.0000
     47 H19         3.5549   -1.5893   -7.5113 H         1 <0>         0.0000
     48 H20         3.4671   -0.2042   -8.6017 H         1 <0>         0.0000
@<TRIPOS>BOND
     1    1    2 1
     2    1    5 2
     3    1    4 1
     4    2    3 2
     5    2   11 1
     6    3   13 1
     7    3   28 1
     8    4   18 am
     9    4   21 2
    10    5   19 1
    11    5   28 1
    12    6   19 am
    13    6   18 am
    14    6   22 2
    15    7    8 1
    16    7   20 am
    17    7   23 2
    18    8   24 1
    19    8   29 1
    20    8   30 1
    21    9   10 1
    22    9   20 1
    23    9   31 1
    24    9   32 1
    25   10   24 1
    26   10   33 1
    27   10   34 1
    28   11   35 1
    29   11   36 1
    30   11   37 1
    31   12   15 1
    32   12   38 1
    33   12   39 1
    34   12   40 1
    35   13   20 1
    36   13   41 1
    37   13   42 1
    38   14   16 1
    39   14   17 1
    40   14   43 1
    41   14   44 1
    42   15   18 1
    43   15   45 1
    44   15   46 1
    45   16   19 1
    46   16   47 1
    47   16   48 1
    48   17   25 1
    49   17   26 1
    50   17   27 1
