@<TRIPOS>MOLECULE
*****
   24    23     0     0     0
SMALL
NO_CHARGES

@<TRIPOS>ATOM
      1 C1          0.5539   -2.7284    1.8183 C.2       1 <0>         0.0000
      2 C2          0.6734   -0.6791    0.4201 C.3       1 <0>         0.0000
      3 C3         -0.8703    0.3949    5.2228 C.3       1 <0>         0.0000
      4 C4         -0.9587   -2.6863    3.8699 C.3       1 <0>         0.0000
      5 C5          0.1268   -2.1219    4.7896 C.3       1 <0>         0.0000
      6 C6         -0.4068   -3.5168    2.7032 C.3       1 <0>         0.0000
      7 N1          0.2552   -4.7137    3.1540 N.3       1 <0>         0.0000
      8 N2         -0.0426   -1.6029    1.2683 N.am      1 <0>         0.0000
      9 O1          1.7271   -3.0542    1.6484 O.2       1 <0>         0.0000
     10 S1         -0.6180   -1.1469    6.1308 S.3       1 <0>         0.0000
     11 H1          1.0917    0.1340    1.0192 H         1 <0>         0.0000
     12 H2         -0.0002   -0.2538   -0.3288 H         1 <0>         0.0000
     13 H3          1.4897   -1.1931   -0.0944 H         1 <0>         0.0000
     14 H4         -1.3267    1.1414    5.8774 H         1 <0>         0.0000
     15 H5         -1.5292    0.2191    4.3689 H         1 <0>         0.0000
     16 H6          0.0888    0.7744    4.8621 H         1 <0>         0.0000
     17 H7         -1.6375   -3.3209    4.4553 H         1 <0>         0.0000
     18 H8         -1.5605   -1.8609    3.4683 H         1 <0>         0.0000
     19 H9          0.8074   -1.4672    4.2372 H         1 <0>         0.0000
     20 H10         0.7168   -2.9246    5.2416 H         1 <0>         0.0000
     21 H11        -1.2428   -3.8546    2.0787 H         1 <0>         0.0000
     22 H12         0.9292   -5.1565    2.5517 H         1 <0>         0.0000
     23 H13        -0.1054   -5.1983    3.9594 H         1 <0>         0.0000
     24 H14        -1.0308   -1.4317    1.4284 H         1 <0>         0.0000
@<TRIPOS>BOND
     1    1    6 1
     2    1    8 am
     3    1    9 2
     4    2    8 1
     5    2   11 1
     6    2   12 1
     7    2   13 1
     8    3   10 1
     9    3   14 1
    10    3   15 1
    11    3   16 1
    12    4    5 1
    13    4    6 1
    14    4   17 1
    15    4   18 1
    16    5   10 1
    17    5   19 1
    18    5   20 1
    19    6    7 1
    20    6   21 1
    21    7   22 1
    22    7   23 1
    23    8   24 1
