@<TRIPOS>MOLECULE
*****
   33    33     0     0     0
SMALL
NO_CHARGES

@<TRIPOS>ATOM
      1 C1         -1.0673   -0.4725    0.6911 C.2       1 <0>         0.0000
      2 C2          1.5999    1.3093   -0.1567 C.3       1 <0>         0.0000
      3 C3          1.8487   -0.1340   -0.6127 C.3       1 <0>         0.0000
      4 C4          0.1288    1.6894    0.0594 C.3       1 <0>         0.0000
      5 C5          1.3453   -1.2021    0.3680 C.3       1 <0>         0.0000
      6 C6         -0.5543    0.8823    1.1750 C.3       1 <0>         0.0000
      7 C7         -1.6389    0.8125    6.4746 C.3       1 <0>         0.0000
      8 C8         -1.9882    1.5812    5.1966 C.3       1 <0>         0.0000
      9 C9         -0.7437    1.9692    4.3860 C.3       1 <0>         0.0000
     10 C10        -1.0482    2.7793    3.1238 C.3       1 <0>         0.0000
     11 N1         -0.1062   -1.3904    0.3698 N.am      1 <0>         0.0000
     12 O1         -2.2650   -0.7259    0.5796 O.2       1 <0>         0.0000
     13 O2         -2.3943    2.8844    0.8071 O.2       1 <0>         0.0000
     14 S1         -2.0270    1.8466    1.8545 S.o       1 <0>         0.0000
     15 H1          2.1557    1.4883    0.7747 H         1 <0>         0.0000
     16 H2          2.0253    1.9912   -0.9021 H         1 <0>         0.0000
     17 H3          1.3820   -0.3080   -1.5898 H         1 <0>         0.0000
     18 H4          2.9281   -0.2780   -0.7443 H         1 <0>         0.0000
     19 H5          0.0634    2.7538    0.3047 H         1 <0>         0.0000
     20 H6         -0.4453    1.5714   -0.8644 H         1 <0>         0.0000
     21 H7          1.7774   -2.1714    0.1067 H         1 <0>         0.0000
     22 H8          1.6947   -0.9723    1.3834 H         1 <0>         0.0000
     23 H9          0.1345    0.7349    2.0138 H         1 <0>         0.0000
     24 H10        -0.9923    1.4062    7.1314 H         1 <0>         0.0000
     25 H11        -2.5401    0.5522    7.0391 H         1 <0>         0.0000
     26 H12        -1.1111   -0.1200    6.2432 H         1 <0>         0.0000
     27 H13        -2.6599    0.9774    4.5762 H         1 <0>         0.0000
     28 H14        -2.5442    2.4921    5.4526 H         1 <0>         0.0000
     29 H15        -0.0733    2.5670    5.0170 H         1 <0>         0.0000
     30 H16        -0.1780    1.0625    4.1319 H         1 <0>         0.0000
     31 H17        -1.6930    3.6354    3.3458 H         1 <0>         0.0000
     32 H18        -0.1445    3.1625    2.6382 H         1 <0>         0.0000
     33 H19        -0.4814   -2.2535   -0.0067 H         1 <0>         0.0000
@<TRIPOS>BOND
     1    1    6 1
     2    1   11 am
     3    1   12 2
     4    2    3 1
     5    2    4 1
     6    2   15 1
     7    2   16 1
     8    3    5 1
     9    3   17 1
    10    3   18 1
    11    4    6 1
    12    4   19 1
    13    4   20 1
    14    5   11 1
    15    5   21 1
    16    5   22 1
    17    6   14 1
    18    6   23 1
    19    7    8 1
    20    7   24 1
    21    7   25 1
    22    7   26 1
    23    8    9 1
    24    8   27 1
    25    8   28 1
    26    9   10 1
    27    9   29 1
    28    9   30 1
    29   10   14 1
    30   10   31 1
    31   10   32 1
    32   11   33 1
    33   13   14 2
