@<TRIPOS>MOLECULE
*****
   40    42     0     0     0
SMALL
NO_CHARGES

@<TRIPOS>ATOM
      1 C1         -1.1870   -0.2924    1.7021 C.ar      1 <0>         0.0000
      2 C2         -2.1635    0.6899    1.5015 C.ar      1 <0>         0.0000
      3 C3         -0.9903    1.5145   -0.4420 C.ar      1 <0>         0.0000
      4 C4          1.5034   -0.9456   -5.7042 C.ar      1 <0>         0.0000
      5 C5          3.1402    0.5007   -4.7747 C.ar      1 <0>         0.0000
      6 C6          2.6659   -0.1813   -5.9113 C.ar      1 <0>         0.0000
      7 C7         -0.1031   -0.3652    0.8257 C.ar      1 <0>         0.0000
      8 C8         -0.0121    0.5425   -0.2359 C.ar      1 <0>         0.0000
      9 C9         -2.0813    1.6043    0.4362 C.ar      1 <0>         0.0000
     10 C10         1.4368   -0.3274   -3.5115 C.ar      1 <0>         0.0000
     11 C11         3.3784   -0.0656   -7.2060 C.2       1 <0>         0.0000
     12 C12         1.0626   -1.3296    0.8039 C.3       1 <0>         0.0000
     13 C13         1.2101    0.2517   -1.0842 C.3       1 <0>         0.0000
     14 C14         2.0799   -0.6403   -0.1404 C.3       1 <0>         0.0000
     15 C15        -3.1298    2.6800    0.2629 C.3       1 <0>         0.0000
     16 C16         2.8300   -0.8265   -8.4023 C.3       1 <0>         0.0000
     17 C17         3.0450   -1.5905   -0.8432 C.3       1 <0>         0.0000
     18 N1          0.8813   -1.0294   -4.5339 N.ar      1 <0>         0.0000
     19 N2          2.5549    0.4382   -3.5849 N.ar      1 <0>         0.0000
     20 N3          0.7951   -0.4096   -2.3229 N.pl3     1 <0>         0.0000
     21 O1          4.3869    0.6288   -7.3127 O.2       1 <0>         0.0000
     22 H1         -1.2784   -0.9885    2.5331 H         1 <0>         0.0000
     23 H2         -3.0080    0.7503    2.1851 H         1 <0>         0.0000
     24 H3         -0.9089    2.2043   -1.2804 H         1 <0>         0.0000
     25 H4          1.0527   -1.5141   -6.5166 H         1 <0>         0.0000
     26 H5          4.0353    1.1140   -4.8569 H         1 <0>         0.0000
     27 H6          1.4837   -1.5181    1.7968 H         1 <0>         0.0000
     28 H7          0.7516   -2.3035    0.4006 H         1 <0>         0.0000
     29 H8          1.7564    1.1484   -1.3794 H         1 <0>         0.0000
     30 H9          2.6594    0.0650    0.4681 H         1 <0>         0.0000
     31 H10        -2.8769    3.5728    0.8478 H         1 <0>         0.0000
     32 H11        -3.2172    2.9882   -0.7832 H         1 <0>         0.0000
     33 H12        -4.1135    2.3376    0.5983 H         1 <0>         0.0000
     34 H13         1.8081   -0.5069   -8.6347 H         1 <0>         0.0000
     35 H14         2.7996   -1.9033   -8.2024 H         1 <0>         0.0000
     36 H15         3.4710   -0.6378   -9.2642 H         1 <0>         0.0000
     37 H16         2.5060   -2.3090   -1.4697 H         1 <0>         0.0000
     38 H17         3.6264   -2.1585   -0.1088 H         1 <0>         0.0000
     39 H18         3.7430   -1.0437   -1.4835 H         1 <0>         0.0000
     40 H19        -0.0375   -0.9861   -2.3186 H         1 <0>         0.0000
@<TRIPOS>BOND
     1    1    2 ar
     2    1    7 ar
     3    1   22 1
     4    2    9 ar
     5    2   23 1
     6    3    8 ar
     7    3    9 ar
     8    3   24 1
     9    4    6 ar
    10    4   18 ar
    11    4   25 1
    12    5    6 ar
    13    5   19 ar
    14    5   26 1
    15    6   11 1
    16    7    8 ar
    17    7   12 1
    18    8   13 1
    19    9   15 1
    20   10   19 ar
    21   10   18 ar
    22   10   20 1
    23   11   16 1
    24   11   21 2
    25   12   14 1
    26   12   27 1
    27   12   28 1
    28   13   14 1
    29   13   20 1
    30   13   29 1
    31   14   17 1
    32   14   30 1
    33   15   31 1
    34   15   32 1
    35   15   33 1
    36   16   34 1
    37   16   35 1
    38   16   36 1
    39   17   37 1
    40   17   38 1
    41   17   39 1
    42   20   40 1
