@<TRIPOS>MOLECULE
*****
   40    42     0     0     0
SMALL
NO_CHARGES

@<TRIPOS>ATOM
      1 C1          0.0462   -1.3578   -1.9729 C.ar      1 <0>         0.0000
      2 C2         -0.9606   -0.8838   -2.8253 C.ar      1 <0>         0.0000
      3 C3         -1.7750    0.5957   -1.0973 C.ar      1 <0>         0.0000
      4 C4         -1.0355    4.3678    3.9164 C.ar      1 <0>         0.0000
      5 C5         -0.9361    2.2178    4.9191 C.ar      1 <0>         0.0000
      6 C6         -1.0492    3.6091    5.1003 C.ar      1 <0>         0.0000
      7 C7          0.1411   -0.8448   -0.6813 C.ar      1 <0>         0.0000
      8 C8         -0.7694    0.1287   -0.2553 C.ar      1 <0>         0.0000
      9 C9         -1.8806    0.0901   -2.4050 C.ar      1 <0>         0.0000
     10 C10        -0.8268    2.4786    2.6610 C.ar      1 <0>         0.0000
     11 C11        -1.1631    4.1791    6.4650 C.2       1 <0>         0.0000
     12 C12         1.1147   -1.1753    0.4300 C.3       1 <0>         0.0000
     13 C13        -0.4738    0.5199    1.1774 C.3       1 <0>         0.0000
     14 C14         1.0015    0.0418    1.3881 C.3       1 <0>         0.0000
     15 C15        -2.9805    0.5653   -3.3274 C.3       1 <0>         0.0000
     16 C16        -1.2987    5.6859    6.6099 C.3       1 <0>         0.0000
     17 C17         2.0230    1.1265    1.0322 C.3       1 <0>         0.0000
     18 N1         -0.9269    3.8317    2.7057 N.ar      1 <0>         0.0000
     19 N2         -0.8207    1.6414    3.7283 N.ar      1 <0>         0.0000
     20 N3         -0.7315    1.9291    1.4265 N.pl3     1 <0>         0.0000
     21 O1         -1.1485    3.4517    7.4552 O.2       1 <0>         0.0000
     22 H1          0.7507   -2.1074   -2.3271 H         1 <0>         0.0000
     23 H2         -1.0284   -1.2731   -3.8391 H         1 <0>         0.0000
     24 H3         -2.4784    1.3503   -0.7489 H         1 <0>         0.0000
     25 H4         -1.1128    5.4538    3.9436 H         1 <0>         0.0000
     26 H5         -0.9365    1.5653    5.7899 H         1 <0>         0.0000
     27 H6          0.8061   -2.0980    0.9390 H         1 <0>         0.0000
     28 H7          2.1381   -1.3323    0.0732 H         1 <0>         0.0000
     29 H8         -1.1188   -0.0448    1.8588 H         1 <0>         0.0000
     30 H9          1.1447   -0.2539    2.4306 H         1 <0>         0.0000
     31 H10        -3.9058    0.0011   -3.1582 H         1 <0>         0.0000
     32 H11        -3.2101    1.6231   -3.1652 H         1 <0>         0.0000
     33 H12        -2.7053    0.4364   -4.3783 H         1 <0>         0.0000
     34 H13        -2.1883    6.0519    6.0855 H         1 <0>         0.0000
     35 H14        -0.4309    6.2001    6.1821 H         1 <0>         0.0000
     36 H15        -1.3771    5.9329    7.6693 H         1 <0>         0.0000
     37 H16         1.9157    1.4504   -0.0098 H         1 <0>         0.0000
     38 H17         3.0405    0.7426    1.1585 H         1 <0>         0.0000
     39 H18         1.9176    2.0062    1.6738 H         1 <0>         0.0000
     40 H19        -0.6133    2.5890    0.6675 H         1 <0>         0.0000
@<TRIPOS>BOND
     1    1    2 ar
     2    1    7 ar
     3    1   22 1
     4    2    9 ar
     5    2   23 1
     6    3    8 ar
     7    3    9 ar
     8    3   24 1
     9    4    6 ar
    10    4   18 ar
    11    4   25 1
    12    5    6 ar
    13    5   19 ar
    14    5   26 1
    15    6   11 1
    16    7    8 ar
    17    7   12 1
    18    8   13 1
    19    9   15 1
    20   10   19 ar
    21   10   18 ar
    22   10   20 1
    23   11   16 1
    24   11   21 2
    25   12   14 1
    26   12   27 1
    27   12   28 1
    28   13   14 1
    29   13   20 1
    30   13   29 1
    31   14   17 1
    32   14   30 1
    33   15   31 1
    34   15   32 1
    35   15   33 1
    36   16   34 1
    37   16   35 1
    38   16   36 1
    39   17   37 1
    40   17   38 1
    41   17   39 1
    42   20   40 1
