@<TRIPOS>MOLECULE
*****
   49    51     0     0     0
SMALL
NO_CHARGES

@<TRIPOS>ATOM
      1 C1          0.9635    8.4628   -4.7884 C.ar      1 <0>         0.0000
      2 C2          1.8069    8.0714   -5.8309 C.ar      1 <0>         0.0000
      3 C3          0.0498    7.5305   -4.2835 C.ar      1 <0>         0.0000
      4 C4         -0.0046    2.8192   -1.8719 C.ar      1 <0>         0.0000
      5 C5          2.2265    3.4681   -2.4825 C.ar      1 <0>         0.0000
      6 C6         -0.3838    2.8921   -3.2146 C.ar      1 <0>         0.0000
      7 C7          1.8471    3.5431   -3.8223 C.ar      1 <0>         0.0000
      8 C8          1.7547    6.7774   -6.3555 C.ar      1 <0>         0.0000
      9 C9         -0.0200    6.2386   -4.8027 C.ar      1 <0>         0.0000
     10 C10         1.3012    3.1377   -1.4780 C.ar      1 <0>         0.0000
     11 C11         0.5251    3.2818   -4.2024 C.ar      1 <0>         0.0000
     12 C12         0.8374    5.8281   -5.8518 C.ar      1 <0>         0.0000
     13 C13         0.4942    5.5205    0.1744 C.2       1 <0>         0.0000
     14 C14         1.4386    2.5842    2.3913 C.3       1 <0>         0.0000
     15 C15         1.5414    4.0444    2.8484 C.3       1 <0>         0.0000
     16 C16         0.8544    2.4848    0.9760 C.3       1 <0>         0.0000
     17 C17         2.3212    4.9015    1.8406 C.3       1 <0>         0.0000
     18 C18         1.7139    3.2698   -0.0251 C.3       1 <0>         0.0000
     19 C19         1.8163    4.7767    0.3892 C.3       1 <0>         0.0000
     20 C20         1.7645    4.1236   -7.3608 C.3       1 <0>         0.0000
     21 C21         0.0611    3.4973   -5.6369 C.3       1 <0>         0.0000
     22 N1          0.7883    4.5296   -6.3635 N.pl3     1 <0>         0.0000
     23 O1         -0.3197    5.7397    1.0463 O.2       1 <0>         0.0000
     24 O2          0.2487    5.9717   -1.0878 O.3       1 <0>         0.0000
     25 H1          1.0162    9.4667   -4.3771 H         1 <0>         0.0000
     26 H2          2.5253    8.7760   -6.2435 H         1 <0>         0.0000
     27 H3         -0.6137    7.8013   -3.4663 H         1 <0>         0.0000
     28 H4         -0.7510    2.5636   -1.1269 H         1 <0>         0.0000
     29 H5          3.2532    3.7028   -2.2063 H         1 <0>         0.0000
     30 H6         -1.4192    2.6932   -3.4856 H         1 <0>         0.0000
     31 H7          2.5717    3.8570   -4.5677 H         1 <0>         0.0000
     32 H8          2.4359    6.5140   -7.1562 H         1 <0>         0.0000
     33 H9         -0.7401    5.5519   -4.3758 H         1 <0>         0.0000
     34 H10         2.4343    2.1183    2.4033 H         1 <0>         0.0000
     35 H11         0.8175    2.0143    3.0915 H         1 <0>         0.0000
     36 H12         0.5383    4.4609    2.9696 H         1 <0>         0.0000
     37 H13         2.0371    4.0993    3.8247 H         1 <0>         0.0000
     38 H14         0.7957    1.4378    0.6573 H         1 <0>         0.0000
     39 H15        -0.1690    2.8765    0.9865 H         1 <0>         0.0000
     40 H16         2.2997    5.9527    2.1453 H         1 <0>         0.0000
     41 H17         3.3746    4.5909    1.8426 H         1 <0>         0.0000
     42 H18         2.7403    2.8871    0.0602 H         1 <0>         0.0000
     43 H19         2.5569    5.2442   -0.2715 H         1 <0>         0.0000
     44 H20         1.5730    3.0895   -7.6511 H         1 <0>         0.0000
     45 H21         2.8027    4.1882   -6.9979 H         1 <0>         0.0000
     46 H22         1.6850    4.7405   -8.2636 H         1 <0>         0.0000
     47 H23         0.1580    2.5664   -6.2029 H         1 <0>         0.0000
     48 H24        -1.0114    3.7310   -5.6262 H         1 <0>         0.0000
     49 H25         0.9197    5.6459   -1.7154 H         1 <0>         0.0000
@<TRIPOS>BOND
     1    1    3 ar
     2    1    2 ar
     3    1   25 1
     4    2    8 ar
     5    2   26 1
     6    3    9 ar
     7    3   27 1
     8    4    6 ar
     9    4   10 ar
    10    4   28 1
    11    5    7 ar
    12    5   10 ar
    13    5   29 1
    14    6   11 ar
    15    6   30 1
    16    7   11 ar
    17    7   31 1
    18    8   12 ar
    19    8   32 1
    20    9   12 ar
    21    9   33 1
    22   10   18 1
    23   11   21 1
    24   12   22 1
    25   13   19 1
    26   13   23 2
    27   13   24 1
    28   14   15 1
    29   14   16 1
    30   14   34 1
    31   14   35 1
    32   15   17 1
    33   15   36 1
    34   15   37 1
    35   16   18 1
    36   16   38 1
    37   16   39 1
    38   17   19 1
    39   17   40 1
    40   17   41 1
    41   18   19 1
    42   18   42 1
    43   19   43 1
    44   20   22 1
    45   20   44 1
    46   20   45 1
    47   20   46 1
    48   21   22 1
    49   21   47 1
    50   21   48 1
    51   24   49 1
