@<TRIPOS>MOLECULE
*****
   49    51     0     0     0
SMALL
NO_CHARGES

@<TRIPOS>ATOM
      1 C1          4.0165    7.0470   -4.8953 C.ar      1 <0>         0.0000
      2 C2          2.7097    6.8711   -4.4259 C.ar      1 <0>         0.0000
      3 C3          4.5029    6.1607   -5.8592 C.ar      1 <0>         0.0000
      4 C4         -0.1919    3.2840   -1.8520 C.ar      1 <0>         0.0000
      5 C5          2.0090    2.4486   -2.3322 C.ar      1 <0>         0.0000
      6 C6         -0.4107    3.4678   -3.2197 C.ar      1 <0>         0.0000
      7 C7          1.7910    2.6344   -3.6968 C.ar      1 <0>         0.0000
      8 C8          1.9080    5.8355   -4.9035 C.ar      1 <0>         0.0000
      9 C9          3.7143    5.1126   -6.3407 C.ar      1 <0>         0.0000
     10 C10         1.0357    2.8008   -1.3817 C.ar      1 <0>         0.0000
     11 C11         0.5840    3.1746   -4.1569 C.ar      1 <0>         0.0000
     12 C12         2.3945    4.9251   -5.8723 C.ar      1 <0>         0.0000
     13 C13         1.7362    5.3166    0.1136 C.2       1 <0>         0.0000
     14 C14         0.6959    2.5566    2.5070 C.3       1 <0>         0.0000
     15 C15         1.6251    3.7078    2.9108 C.3       1 <0>         0.0000
     16 C16         0.2112    2.7153    1.0598 C.3       1 <0>         0.0000
     17 C17         2.7922    3.8680    1.9256 C.3       1 <0>         0.0000
     18 C18         1.3998    2.7713    0.0897 C.3       1 <0>         0.0000
     19 C19         2.3578    3.9572    0.4491 C.3       1 <0>         0.0000
     20 C20         2.1863    2.9012   -7.2518 C.3       1 <0>         0.0000
     21 C21         0.3847    3.5173   -5.6273 C.3       1 <0>         0.0000
     22 N1          1.6047    3.8725   -6.3403 N.pl3     1 <0>         0.0000
     23 O1          1.1786    6.0337    0.9171 O.2       1 <0>         0.0000
     24 O2          1.8466    5.7333   -1.1791 O.3       1 <0>         0.0000
     25 H1          4.6381    7.8532   -4.5165 H         1 <0>         0.0000
     26 H2          2.3052    7.5382   -3.6691 H         1 <0>         0.0000
     27 H3          5.5142    6.2751   -6.2426 H         1 <0>         0.0000
     28 H4         -0.9684    3.5720   -1.1509 H         1 <0>         0.0000
     29 H5          2.9660    2.0536   -1.9950 H         1 <0>         0.0000
     30 H6         -1.3536    3.8975   -3.5536 H         1 <0>         0.0000
     31 H7          2.5845    2.4061   -4.4022 H         1 <0>         0.0000
     32 H8          0.9053    5.7376   -4.5067 H         1 <0>         0.0000
     33 H9          4.1370    4.4419   -7.0795 H         1 <0>         0.0000
     34 H10         1.2243    1.5978    2.6067 H         1 <0>         0.0000
     35 H11        -0.1639    2.5126    3.1849 H         1 <0>         0.0000
     36 H12         1.0572    4.6409    2.9453 H         1 <0>         0.0000
     37 H13         2.0261    3.5331    3.9161 H         1 <0>         0.0000
     38 H14        -0.4431    1.8817    0.7803 H         1 <0>         0.0000
     39 H15        -0.3843    3.6321    0.9838 H         1 <0>         0.0000
     40 H16         3.3852    4.7506    2.1856 H         1 <0>         0.0000
     41 H17         3.4588    2.9995    2.0129 H         1 <0>         0.0000
     42 H18         1.9998    1.8670    0.2608 H         1 <0>         0.0000
     43 H19         3.2523    3.8514   -0.1772 H         1 <0>         0.0000
     44 H20         1.4289    2.1642   -7.5226 H         1 <0>         0.0000
     45 H21         3.0445    2.3634   -6.8180 H         1 <0>         0.0000
     46 H22         2.5242    3.3829   -8.1766 H         1 <0>         0.0000
     47 H23        -0.0659    2.6685   -6.1494 H         1 <0>         0.0000
     48 H24        -0.3441    4.3349   -5.7003 H         1 <0>         0.0000
     49 H25         2.2177    5.0319   -1.7454 H         1 <0>         0.0000
@<TRIPOS>BOND
     1    1    3 ar
     2    1    2 ar
     3    1   25 1
     4    2    8 ar
     5    2   26 1
     6    3    9 ar
     7    3   27 1
     8    4    6 ar
     9    4   10 ar
    10    4   28 1
    11    5    7 ar
    12    5   10 ar
    13    5   29 1
    14    6   11 ar
    15    6   30 1
    16    7   11 ar
    17    7   31 1
    18    8   12 ar
    19    8   32 1
    20    9   12 ar
    21    9   33 1
    22   10   18 1
    23   11   21 1
    24   12   22 1
    25   13   19 1
    26   13   23 2
    27   13   24 1
    28   14   15 1
    29   14   16 1
    30   14   34 1
    31   14   35 1
    32   15   17 1
    33   15   36 1
    34   15   37 1
    35   16   18 1
    36   16   38 1
    37   16   39 1
    38   17   19 1
    39   17   40 1
    40   17   41 1
    41   18   19 1
    42   18   42 1
    43   19   43 1
    44   20   22 1
    45   20   44 1
    46   20   45 1
    47   20   46 1
    48   21   22 1
    49   21   47 1
    50   21   48 1
    51   24   49 1
