@<TRIPOS>MOLECULE
*****
   16    16     0     0     0
SMALL
NO_CHARGES

@<TRIPOS>ATOM
      1 C1          4.7640    1.2270    0.7280 C.2       1 <0>         0.0000
      2 C2          3.4350    0.8070    0.8540 C.2       1 <0>         0.0000
      3 C3          5.3520    0.4270   -0.1930 C.2       1 <0>         0.0000
      4 C4          3.2910   -0.2310   -0.0050 C.2       1 <0>         0.0000
      5 C5          0.9460   -0.9900    0.1940 C.2       1 <0>         0.0000
      6 C6         -0.0480   -1.9920   -0.3260 C.3       1 <0>         0.0000
      7 N1          2.2030   -1.0580   -0.3290 N.am      1 <0>         0.0000
      8 O1          0.6560   -0.1630    1.0310 O.2       1 <0>         0.0000
      9 O2          4.4460   -0.4880   -0.6600 O.3       1 <0>         0.0000
     10 H1          5.2330    2.0200    1.2510 H         1 <0>         0.0000
     11 H2          2.6860    1.2090    1.4860 H         1 <0>         0.0000
     12 H3          6.3470    0.4310   -0.5600 H         1 <0>         0.0000
     13 H4         -0.9780   -1.8140    0.1950 H         1 <0>         0.0000
     14 H5          0.3490   -2.9740   -0.1140 H         1 <0>         0.0000
     15 H6         -0.1440   -1.8210   -1.3880 H         1 <0>         0.0000
     16 H7          2.3790   -1.7830   -1.0310 H         1 <0>         0.0000
@<TRIPOS>BOND
     1    1    2 1
     2    1    3 2
     3    1   10 1
     4    2    4 2
     5    2   11 1
     6    3    9 1
     7    3   12 1
     8    4    7 1
     9    4    9 1
    10    5    6 1
    11    5    7 am
    12    5    8 2
    13    6   13 1
    14    6   14 1
    15    6   15 1
    16    7   16 1
