@<TRIPOS>MOLECULE
*****
   22    23     0     0     0
SMALL
NO_CHARGES

@<TRIPOS>ATOM
      1 C1          5.5570   -1.4140    0.1520 C.ar      1 <0>         0.0000
      2 C2          5.7990   -0.2500    0.8740 C.ar      1 <0>         0.0000
      3 C3          4.2480   -1.7130   -0.1800 C.ar      1 <0>         0.0000
      4 C4          4.7320    0.5650    1.2410 C.ar      1 <0>         0.0000
      5 C5          1.6000   -1.8050   -3.5610 C.2       1 <0>         0.0000
      6 C6          0.2530   -1.8840   -3.4140 C.2       1 <0>         0.0000
      7 C7          3.2260   -0.8400    0.2150 C.ar      1 <0>         0.0000
      8 C8          1.4790   -1.4040   -1.4140 C.2       1 <0>         0.0000
      9 C9          0.8710   -0.7370    0.9210 C.3       1 <0>         0.0000
     10 N1          3.4720    0.2730    0.9230 N.ar      1 <0>         0.0000
     11 N2          2.3030   -1.5320   -2.4230 N.2       1 <0>         0.0000
     12 N3          1.8810   -1.1080   -0.0850 N.pl3     1 <0>         0.0000
     13 S1         -0.2000   -1.6090   -1.7850 S.3       1 <0>         0.0000
     14 H1          6.3530   -2.0520   -0.1380 H         1 <0>         0.0000
     15 H2          6.7870    0.0160    1.1440 H         1 <0>         0.0000
     16 H3          4.0120   -2.5880   -0.7250 H         1 <0>         0.0000
     17 H4          4.9090    1.4530    1.7930 H         1 <0>         0.0000
     18 H5          2.0900   -1.9430   -4.4920 H         1 <0>         0.0000
     19 H6         -0.4660   -2.0840   -4.1640 H         1 <0>         0.0000
     20 H7          1.3430   -0.7340    1.8940 H         1 <0>         0.0000
     21 H8          0.0810   -1.4750    0.9050 H         1 <0>         0.0000
     22 H9          0.5090    0.2500    0.6650 H         1 <0>         0.0000
@<TRIPOS>BOND
     1    1    2 ar
     2    1    3 ar
     3    1   14 1
     4    2    4 ar
     5    2   15 1
     6    3    7 ar
     7    3   16 1
     8    4   10 ar
     9    4   17 1
    10    5    6 2
    11    5   11 1
    12    5   18 1
    13    6   13 1
    14    6   19 1
    15    7   10 ar
    16    7   12 1
    17    8   11 2
    18    8   12 1
    19    8   13 1
    20    9   12 1
    21    9   20 1
    22    9   21 1
    23    9   22 1
