@<TRIPOS>MOLECULE
*****
   28    29     0     0     0
SMALL
NO_CHARGES

@<TRIPOS>ATOM
      1 C1          2.1469   -0.2268   -0.0391 C.ar      1 <0>         0.0000
      2 C2          0.9536    0.5139   -0.0864 C.ar      1 <0>         0.0000
      3 C3          3.3857    0.4082   -0.1538 C.ar      1 <0>         0.0000
      4 C4          0.9811    1.9009   -0.2492 C.ar      1 <0>         0.0000
      5 C5          3.3992    1.7826   -0.3050 C.ar      1 <0>         0.0000
      6 C6          2.2140    2.5183   -0.3522 C.ar      1 <0>         0.0000
      7 C7          6.1109    5.1405   -0.7244 C.2       1 <0>         0.0000
      8 C8          4.5618    2.7069   -0.4781 C.3       1 <0>         0.0000
      9 C9          2.5371    3.9636   -0.5591 C.3       1 <0>         0.0000
     10 C10         8.3669    4.8605   -1.7471 C.3       1 <0>         0.0000
     11 C11         4.6514    5.0735   -1.0951 C.3       1 <0>         0.0000
     12 N1          3.9896    4.0592   -0.2900 N.3       1 <0>         0.0000
     13 N2          6.9233    4.8637   -1.8147 N.am      1 <0>         0.0000
     14 O1          6.5095    5.4105    0.4054 O.2       1 <0>         0.0000
     15 H1          2.1032   -1.3058    0.0828 H         1 <0>         0.0000
     16 H2          0.0001   -0.0003   -0.0003 H         1 <0>         0.0000
     17 H3          4.3059   -0.1647   -0.1264 H         1 <0>         0.0000
     18 H4          0.0599    2.4712   -0.2946 H         1 <0>         0.0000
     19 H5          5.3361    2.5198    0.2719 H         1 <0>         0.0000
     20 H6          4.9756    2.5696   -1.4842 H         1 <0>         0.0000
     21 H7          2.2892    4.2371   -1.5918 H         1 <0>         0.0000
     22 H8          1.9840    4.6003    0.1380 H         1 <0>         0.0000
     23 H9          8.7558    5.8569   -1.9727 H         1 <0>         0.0000
     24 H10         8.7775    4.1505   -2.4702 H         1 <0>         0.0000
     25 H11         8.6978    4.5719   -0.7459 H         1 <0>         0.0000
     26 H12         4.1797    6.0434   -0.9115 H         1 <0>         0.0000
     27 H13         4.5489    4.8154   -2.1532 H         1 <0>         0.0000
     28 H14         6.4813    4.6527   -2.7047 H         1 <0>         0.0000
@<TRIPOS>BOND
     1    1    2 ar
     2    1    3 ar
     3    1   15 1
     4    2    4 ar
     5    2   16 1
     6    3    5 ar
     7    3   17 1
     8    4    6 ar
     9    4   18 1
    10    5    6 ar
    11    5    8 1
    12    6    9 1
    13    7   11 1
    14    7   13 am
    15    7   14 2
    16    8   12 1
    17    8   19 1
    18    8   20 1
    19    9   12 1
    20    9   21 1
    21    9   22 1
    22   10   13 1
    23   10   23 1
    24   10   24 1
    25   10   25 1
    26   11   12 1
    27   11   26 1
    28   11   27 1
    29   13   28 1
