@<TRIPOS>MOLECULE
*****
   22    22     0     0     0
SMALL
NO_CHARGES

@<TRIPOS>ATOM
      1 C1          1.9012   -1.0417   -0.1445 C.ar      1 <0>         0.0000
      2 C2          0.8107   -0.4706    0.5154 C.ar      1 <0>         0.0000
      3 C3          2.9467   -1.6091    0.5819 C.ar      1 <0>         0.0000
      4 C4          1.8112   -1.0122    2.6529 C.ar      1 <0>         0.0000
      5 C5          0.7448   -0.4578    1.9144 C.ar      1 <0>         0.0000
      6 C6          2.9025   -1.5926    1.9812 C.ar      1 <0>         0.0000
      7 C7          1.7530   -1.0203    4.1484 C.2       1 <0>         0.0000
      8 C8         -0.4539    0.1549    2.6020 C.3       1 <0>         0.0000
      9 C9          2.9080   -0.5315    6.1455 C.3       1 <0>         0.0000
     10 O1          0.8039   -1.4214    4.7997 O.2       1 <0>         0.0000
     11 O2          3.8930   -2.1718    2.7324 O.3       1 <0>         0.0000
     12 O3          2.8663   -0.4981    4.7051 O.3       1 <0>         0.0000
     13 H1          1.9370   -1.0492   -1.2307 H         1 <0>         0.0000
     14 H2          0.0005   -0.0311   -0.0597 H         1 <0>         0.0000
     15 H3          3.7922   -2.0655    0.0698 H         1 <0>         0.0000
     16 H4         -1.0361   -0.6088    3.1243 H         1 <0>         0.0000
     17 H5         -0.1556    0.8921    3.3541 H         1 <0>         0.0000
     18 H6         -1.0986    0.6528    1.8735 H         1 <0>         0.0000
     19 H7          3.8704   -0.0980    6.4170 H         1 <0>         0.0000
     20 H8          2.8340   -1.5612    6.5033 H         1 <0>         0.0000
     21 H9          2.0875    0.0547    6.5667 H         1 <0>         0.0000
     22 H10         4.5473   -2.5641    2.1330 H         1 <0>         0.0000
@<TRIPOS>BOND
     1    1    2 ar
     2    1    3 ar
     3    1   13 1
     4    2    5 ar
     5    2   14 1
     6    3    6 ar
     7    3   15 1
     8    4    5 ar
     9    4    6 ar
    10    4    7 1
    11    5    8 1
    12    6   11 1
    13    7   10 2
    14    7   12 1
    15    8   16 1
    16    8   17 1
    17    8   18 1
    18    9   12 1
    19    9   19 1
    20    9   20 1
    21    9   21 1
    22   11   22 1
