@<TRIPOS>MOLECULE
*****
   66    68     0     0     0
SMALL
NO_CHARGES

@<TRIPOS>ATOM
      1 C1         -9.5259   -0.9625    7.3868 C.1       1 <0>         0.0000
      2 C2         -7.2425   -0.4992    6.6685 C.ar      1 <0>         0.0000
      3 C3         -5.8694   -0.7196    6.7250 C.ar      1 <0>         0.0000
      4 C4         -6.2234   -2.4306    8.4086 C.ar      1 <0>         0.0000
      5 C5         -8.1184   -1.2351    7.4819 C.ar      1 <0>         0.0000
      6 C6         -7.5950   -2.2047    8.3614 C.ar      1 <0>         0.0000
      7 C7         -5.3640   -1.6930    7.5891 C.ar      1 <0>         0.0000
      8 C8         -3.2630   -1.9310    8.8777 C.2       1 <0>         0.0000
      9 C9         -3.1081   -2.1982    6.5730 C.2       1 <0>         0.0000
     10 C10         4.9361   -0.2419   -0.5027 C.2       1 <0>         0.0000
     11 C11         4.6850    0.2156    1.8924 C.3       1 <0>         0.0000
     12 C12         3.5853   -1.7711    0.9856 C.3       1 <0>         0.0000
     13 C13         3.4245    0.5150    2.6973 C.3       1 <0>         0.0000
     14 C14         2.3467   -1.4338    1.8171 C.3       1 <0>         0.0000
     15 C15        -1.8012   -2.2203    8.5383 C.3       1 <0>         0.0000
     16 C16        -1.3867   -3.5435    9.2038 C.3       1 <0>         0.0000
     17 C17        -0.9191   -1.0534    9.0037 C.3       1 <0>         0.0000
     18 C18         4.9784   -1.5336   -3.9558 C.3       1 <0>         0.0000
     19 C19         4.6051   -1.1760   -1.6755 C.3       1 <0>         0.0000
     20 C20        -0.1360   -1.3548    5.5525 C.3       1 <0>         0.0000
     21 C21         1.0000   -1.7004    4.5848 C.3       1 <0>         0.0000
     22 C22        -0.6938   -2.6080    6.2369 C.3       1 <0>         0.0000
     23 C23         1.5601   -0.4511    3.8988 C.3       1 <0>         0.0000
     24 C24        -8.5178   -3.0064    9.2527 C.3       1 <0>         0.0000
     25 N1        -10.6564   -0.7067    7.2756 N.1       1 <0>         0.0000
     26 N2         -3.9634   -1.9277    7.6725 N.am      1 <0>         0.0000
     27 N3         -1.8590   -2.3350    7.0740 N.pl3     1 <0>         0.0000
     28 N4          4.3529   -0.5638    0.7016 N.am      1 <0>         0.0000
     29 N5          2.7166   -0.7233    3.0421 N.3       1 <0>         0.0000
     30 O1         -3.7260   -1.7458    9.9860 O.2       1 <0>         0.0000
     31 O2          5.6647    0.7332   -0.6435 O.2       1 <0>         0.0000
     32 O3          5.2396   -0.7053   -2.8353 O.3       1 <0>         0.0000
     33 F1         -7.8352   -3.8971   10.0085 F         1 <0>         0.0000
     34 F2         -9.2086   -2.2082   10.0990 F         1 <0>         0.0000
     35 F3         -9.4234   -3.7056    8.5297 F         1 <0>         0.0000
     36 S1         -3.5832   -2.3490    4.9899 S.2       1 <0>         0.0000
     37 H1         -7.6478    0.2506    5.9973 H         1 <0>         0.0000
     38 H2         -5.1969   -0.1470    6.0981 H         1 <0>         0.0000
     39 H3         -5.8213   -3.1739    9.0850 H         1 <0>         0.0000
     40 H4          5.1708    1.1356    1.5688 H         1 <0>         0.0000
     41 H5          5.3901   -0.3518    2.5159 H         1 <0>         0.0000
     42 H6          4.2085   -2.4849    1.5436 H         1 <0>         0.0000
     43 H7          3.2675   -2.2525    0.0615 H         1 <0>         0.0000
     44 H8          3.7086    1.0250    3.6237 H         1 <0>         0.0000
     45 H9          2.7793    1.2023    2.1179 H         1 <0>         0.0000
     46 H10         1.6501   -0.8330    1.1999 H         1 <0>         0.0000
     47 H11         1.8417   -2.3683    2.0748 H         1 <0>         0.0000
     48 H12        -0.3334   -3.7628    9.0080 H         1 <0>         0.0000
     49 H13        -1.9922   -4.3743    8.8307 H         1 <0>         0.0000
     50 H14        -1.5280   -3.4624   10.2842 H         1 <0>         0.0000
     51 H15         0.1319   -1.2564    8.7789 H         1 <0>         0.0000
     52 H16        -1.0270   -0.9281   10.0838 H         1 <0>         0.0000
     53 H17        -1.2095   -0.1212    8.5118 H         1 <0>         0.0000
     54 H18         5.5066   -1.0942   -4.8045 H         1 <0>         0.0000
     55 H19         3.9023   -1.5782   -4.1858 H         1 <0>         0.0000
     56 H20         5.3449   -2.5598   -3.7961 H         1 <0>         0.0000
     57 H21         3.5117   -1.2175   -1.8184 H         1 <0>         0.0000
     58 H22         4.9399   -2.1998   -1.4346 H         1 <0>         0.0000
     59 H23        -0.9511   -0.8662    5.0095 H         1 <0>         0.0000
     60 H24         0.2171   -0.6482    6.3125 H         1 <0>         0.0000
     61 H25         1.8190   -2.2030    5.1141 H         1 <0>         0.0000
     62 H26         0.6203   -2.4095    3.8406 H         1 <0>         0.0000
     63 H27         0.0679   -3.0706    6.8700 H         1 <0>         0.0000
     64 H28        -0.9899   -3.3431    5.4833 H         1 <0>         0.0000
     65 H29         0.7520    0.0567    3.3373 H         1 <0>         0.0000
     66 H30         1.8886    0.2508    4.6740 H         1 <0>         0.0000
@<TRIPOS>BOND
     1    1    5 1
     2    1   25 3
     3    2    3 ar
     4    2    5 ar
     5    2   37 1
     6    3    7 ar
     7    3   38 1
     8    4    6 ar
     9    4    7 ar
    10    4   39 1
    11    5    6 ar
    12    6   24 1
    13    7   26 1
    14    8   15 1
    15    8   26 am
    16    8   30 2
    17    9   26 1
    18    9   27 1
    19    9   36 2
    20   10   19 1
    21   10   28 am
    22   10   31 2
    23   11   13 1
    24   11   28 1
    25   11   40 1
    26   11   41 1
    27   12   14 1
    28   12   28 1
    29   12   42 1
    30   12   43 1
    31   13   29 1
    32   13   44 1
    33   13   45 1
    34   14   29 1
    35   14   46 1
    36   14   47 1
    37   15   16 1
    38   15   17 1
    39   15   27 1
    40   16   48 1
    41   16   49 1
    42   16   50 1
    43   17   51 1
    44   17   52 1
    45   17   53 1
    46   18   32 1
    47   18   54 1
    48   18   55 1
    49   18   56 1
    50   19   32 1
    51   19   57 1
    52   19   58 1
    53   20   21 1
    54   20   22 1
    55   20   59 1
    56   20   60 1
    57   21   23 1
    58   21   61 1
    59   21   62 1
    60   22   27 1
    61   22   63 1
    62   22   64 1
    63   23   29 1
    64   23   65 1
    65   23   66 1
    66   24   33 1
    67   24   34 1
    68   24   35 1
