@<TRIPOS>MOLECULE
*****
   68    70     0     0     0
SMALL
NO_CHARGES

@<TRIPOS>ATOM
      1 C1         -9.4296   -0.6054    7.0482 C.1       1 <0>         0.0000
      2 C2         -7.1138   -0.1943    6.4063 C.ar      1 <0>         0.0000
      3 C3         -5.7476   -0.4352    6.5196 C.ar      1 <0>         0.0000
      4 C4         -6.1923   -2.1027    8.2246 C.ar      1 <0>         0.0000
      5 C5         -8.0314   -0.8984    7.2016 C.ar      1 <0>         0.0000
      6 C6         -7.5573   -1.8567    8.1205 C.ar      1 <0>         0.0000
      7 C7         -5.2907   -1.3969    7.4229 C.ar      1 <0>         0.0000
      8 C8         -3.2426   -1.6385    8.7940 C.2       1 <0>         0.0000
      9 C9         -3.0088   -1.9655    6.5040 C.2       1 <0>         0.0000
     10 C10         5.1325   -0.2119   -0.3986 C.2       1 <0>         0.0000
     11 C11         4.9777    0.1759    2.0229 C.3       1 <0>         0.0000
     12 C12         3.8344   -1.7743    1.1057 C.3       1 <0>         0.0000
     13 C13         3.7137    0.5210    2.8060 C.3       1 <0>         0.0000
     14 C14         2.5892   -1.3980    1.9110 C.3       1 <0>         0.0000
     15 C15        -1.7755   -1.9649    8.5163 C.3       1 <0>         0.0000
     16 C16        -1.4133   -3.2791    9.2287 C.3       1 <0>         0.0000
     17 C17        -0.8869   -0.8046    8.9859 C.3       1 <0>         0.0000
     18 C18         4.9821   -1.4444   -4.1037 C.3       1 <0>         0.0000
     19 C19         4.7603   -1.0794   -1.6019 C.3       1 <0>         0.0000
     20 C20         5.3630   -0.5623   -2.9100 C.3       1 <0>         0.0000
     21 C21         0.0170   -1.2047    5.5773 C.3       1 <0>         0.0000
     22 C22         1.1731   -1.5958    4.6519 C.3       1 <0>         0.0000
     23 C23        -0.5926   -2.4306    6.2671 C.3       1 <0>         0.0000
     24 C24         1.7894   -0.3726    3.9669 C.3       1 <0>         0.0000
     25 C25        -8.5255   -2.6244    8.9934 C.3       1 <0>         0.0000
     26 N1        -10.5508   -0.3339    6.8897 N.1       1 <0>         0.0000
     27 N2         -3.8983   -1.6520    7.5642 N.am      1 <0>         0.0000
     28 N3         -1.7819   -2.1149    7.0541 N.pl3     1 <0>         0.0000
     29 N4          4.6386   -0.5913    0.8272 N.am      1 <0>         0.0000
     30 N5          2.9556   -0.6906    3.1398 N.3       1 <0>         0.0000
     31 O1         -3.7422   -1.4163    9.8794 O.2       1 <0>         0.0000
     32 O2          5.8417    0.7888   -0.5263 O.2       1 <0>         0.0000
     33 F1         -7.8866   -3.5141    9.7876 F         1 <0>         0.0000
     34 F2         -9.2287   -1.7980    9.8015 F         1 <0>         0.0000
     35 F3         -9.4196   -3.3192    8.2522 F         1 <0>         0.0000
     36 S1         -3.4289   -2.1442    4.9083 S.2       1 <0>         0.0000
     37 H1         -7.4811    0.5469    5.7044 H         1 <0>         0.0000
     38 H2         -5.0426    0.1126    5.9063 H         1 <0>         0.0000
     39 H3         -5.8281   -2.8373    8.9313 H         1 <0>         0.0000
     40 H4          5.5017    1.0778    1.7088 H         1 <0>         0.0000
     41 H5          5.6483   -0.4192    2.6581 H         1 <0>         0.0000
     42 H6          4.4301   -2.4939    1.6853 H         1 <0>         0.0000
     43 H7          3.5306   -2.2578    0.1791 H         1 <0>         0.0000
     44 H8          3.9976    1.0229    3.7370 H         1 <0>         0.0000
     45 H9          3.1045    1.2296    2.2131 H         1 <0>         0.0000
     46 H10         1.9220   -0.7812    1.2773 H         1 <0>         0.0000
     47 H11         2.0521   -2.3158    2.1647 H         1 <0>         0.0000
     48 H12        -0.3584   -3.5241    9.0773 H         1 <0>         0.0000
     49 H13        -2.0219   -4.1068    8.8536 H         1 <0>         0.0000
     50 H14        -1.5923   -3.1683   10.3009 H         1 <0>         0.0000
     51 H15         0.1672   -1.0345    8.8060 H         1 <0>         0.0000
     52 H16        -1.0323   -0.6499   10.0578 H         1 <0>         0.0000
     53 H17        -1.1389    0.1205    8.4606 H         1 <0>         0.0000
     54 H18         3.8950   -1.4838   -4.2428 H         1 <0>         0.0000
     55 H19         5.3355   -2.4741   -3.9704 H         1 <0>         0.0000
     56 H20         5.4205   -1.0618   -5.0313 H         1 <0>         0.0000
     57 H21         3.6671   -1.1256   -1.6915 H         1 <0>         0.0000
     58 H22         5.0925   -2.1101   -1.4219 H         1 <0>         0.0000
     59 H23         6.4511   -0.5106   -2.8078 H         1 <0>         0.0000
     60 H24         5.0297    0.4665   -3.0764 H         1 <0>         0.0000
     61 H25        -0.7686   -0.7073    4.9999 H         1 <0>         0.0000
     62 H26         0.3635   -0.4919    6.3348 H         1 <0>         0.0000
     63 H27         1.9605   -2.1133    5.2139 H         1 <0>         0.0000
     64 H28         0.7975   -2.3050    3.9058 H         1 <0>         0.0000
     65 H29         0.1350   -2.8952    6.9378 H         1 <0>         0.0000
     66 H30        -0.8769   -3.1755    5.5189 H         1 <0>         0.0000
     67 H31         1.0112    0.1549    3.3817 H         1 <0>         0.0000
     68 H32         2.1220    0.3266    4.7428 H         1 <0>         0.0000
@<TRIPOS>BOND
     1    1    5 1
     2    1   26 3
     3    2    3 ar
     4    2    5 ar
     5    2   37 1
     6    3    7 ar
     7    3   38 1
     8    4    6 ar
     9    4    7 ar
    10    4   39 1
    11    5    6 ar
    12    6   25 1
    13    7   27 1
    14    8   15 1
    15    8   27 am
    16    8   31 2
    17    9   27 1
    18    9   28 1
    19    9   36 2
    20   10   19 1
    21   10   29 am
    22   10   32 2
    23   11   13 1
    24   11   29 1
    25   11   40 1
    26   11   41 1
    27   12   14 1
    28   12   29 1
    29   12   42 1
    30   12   43 1
    31   13   30 1
    32   13   44 1
    33   13   45 1
    34   14   30 1
    35   14   46 1
    36   14   47 1
    37   15   16 1
    38   15   17 1
    39   15   28 1
    40   16   48 1
    41   16   49 1
    42   16   50 1
    43   17   51 1
    44   17   52 1
    45   17   53 1
    46   18   20 1
    47   18   54 1
    48   18   55 1
    49   18   56 1
    50   19   20 1
    51   19   57 1
    52   19   58 1
    53   20   59 1
    54   20   60 1
    55   21   22 1
    56   21   23 1
    57   21   61 1
    58   21   62 1
    59   22   24 1
    60   22   63 1
    61   22   64 1
    62   23   28 1
    63   23   65 1
    64   23   66 1
    65   24   30 1
    66   24   67 1
    67   24   68 1
    68   25   33 1
    69   25   34 1
    70   25   35 1
