@<TRIPOS>MOLECULE
*****
   66    68     0     0     0
SMALL
NO_CHARGES

@<TRIPOS>ATOM
      1 C1          0.1050   -7.1573   -3.8419 C.ar      1 <0>         0.0000
      2 C2         -0.4192   -6.5409   -2.7071 C.ar      1 <0>         0.0000
      3 C3         -1.3820   -1.6689   -1.7935 C.ar      1 <0>         0.0000
      4 C4         -0.7455   -2.5991    0.3376 C.ar      1 <0>         0.0000
      5 C5         -2.3404   -5.8286   -4.0162 C.ar      1 <0>         0.0000
      6 C6         -1.8316   -2.9256   -2.2322 C.ar      1 <0>         0.0000
      7 C7         -0.5680   -7.1249   -5.0717 C.ar      1 <0>         0.0000
      8 C8         -0.8411   -1.4910   -0.5200 C.ar      1 <0>         0.0000
      9 C9         -1.6361   -5.8703   -2.8119 C.ar      1 <0>         0.0000
     10 C10        -1.7310   -4.0137   -1.3657 C.ar      1 <0>         0.0000
     11 C11        -1.1831   -3.8603   -0.0756 C.ar      1 <0>         0.0000
     12 C12        -1.8079   -6.4745   -5.1450 C.ar      1 <0>         0.0000
     13 C13        -3.6450   -5.0875   -4.0659 C.2       1 <0>         0.0000
     14 C14        -2.3575   -3.0579   -3.6442 C.3       1 <0>         0.0000
     15 C15        -0.3741   -0.1323   -0.0494 C.3       1 <0>         0.0000
     16 C16        -3.1198   -6.0047    3.3842 C.3       1 <0>         0.0000
     17 C17         2.3462   -4.7160   -7.4014 C.3       1 <0>         0.0000
     18 C18         0.0853   -5.3235   -8.3560 C.3       1 <0>         0.0000
     19 C19         0.2981   -7.2648    1.9083 C.3       1 <0>         0.0000
     20 C20        -3.4228   -7.4463   -6.5825 C.3       1 <0>         0.0000
     21 C21        -2.0943   -6.8756    2.6495 C.3       1 <0>         0.0000
     22 C22         1.2968   -6.9119   -6.7630 C.3       1 <0>         0.0000
     23 C23        -0.6032   -4.9080    2.0064 C.3       1 <0>         0.0000
     24 C24         0.0795   -7.7315   -6.2976 C.3       1 <0>         0.0000
     25 C25         1.0207   -5.4471   -7.1437 C.3       1 <0>         0.0000
     26 C26        -0.6640   -6.3047    2.6231 C.3       1 <0>         0.0000
     27 O1         -4.7043   -5.6058   -4.3439 O.2       1 <0>         0.0000
     28 O2         -2.2136   -5.2719   -1.7002 O.3       1 <0>         0.0000
     29 O3         -3.6128   -3.7640   -3.7527 O.3       1 <0>         0.0000
     30 O4          0.4852   -9.0675   -5.9408 O.3       1 <0>         0.0000
     31 O5         -2.4738   -6.3831   -6.3486 O.3       1 <0>         0.0000
     32 O6         -1.1127   -4.9943    0.6713 O.3       1 <0>         0.0000
     33 H1          1.0483   -7.6914   -3.7805 H         1 <0>         0.0000
     34 H2          0.0888   -6.5729   -1.7481 H         1 <0>         0.0000
     35 H3         -1.4683   -0.8159   -2.4629 H         1 <0>         0.0000
     36 H4         -0.3235   -2.4663    1.3281 H         1 <0>         0.0000
     37 H5         -2.5689   -2.0638   -4.0418 H         1 <0>         0.0000
     38 H6         -1.6142   -3.5264   -4.2956 H         1 <0>         0.0000
     39 H7         -0.9697    0.2175    0.8015 H         1 <0>         0.0000
     40 H8          0.6719   -0.1622    0.2753 H         1 <0>         0.0000
     41 H9         -0.4571    0.6142   -0.8437 H         1 <0>         0.0000
     42 H10        -2.7894   -5.7672    4.4029 H         1 <0>         0.0000
     43 H11        -3.3016   -5.0613    2.8594 H         1 <0>         0.0000
     44 H12        -4.0820   -6.5215    3.4600 H         1 <0>         0.0000
     45 H13         2.8817   -5.1618   -8.2489 H         1 <0>         0.0000
     46 H14         2.1731   -3.6604   -7.6379 H         1 <0>         0.0000
     47 H15         3.0057   -4.7617   -6.5274 H         1 <0>         0.0000
     48 H16         0.5081   -5.8427   -9.2259 H         1 <0>         0.0000
     49 H17        -0.9042   -5.7384   -8.1500 H         1 <0>         0.0000
     50 H18        -0.0493   -4.2721   -8.6334 H         1 <0>         0.0000
     51 H19        -0.0026   -7.4068    0.8657 H         1 <0>         0.0000
     52 H20         0.3001   -8.2460    2.3942 H         1 <0>         0.0000
     53 H21         1.3257   -6.8832    1.9174 H         1 <0>         0.0000
     54 H22        -3.8234   -7.2739   -7.5831 H         1 <0>         0.0000
     55 H23        -4.2265   -7.4030   -5.8438 H         1 <0>         0.0000
     56 H24        -2.9214   -8.4208   -6.5449 H         1 <0>         0.0000
     57 H25        -2.4269   -7.0404    1.6191 H         1 <0>         0.0000
     58 H26        -2.0519   -7.8630    3.1256 H         1 <0>         0.0000
     59 H27         1.7415   -7.4222   -7.6315 H         1 <0>         0.0000
     60 H28         2.0442   -6.9472   -5.9611 H         1 <0>         0.0000
     61 H29         0.4340   -4.5455    1.9844 H         1 <0>         0.0000
     62 H30        -1.2034   -4.1941    2.5832 H         1 <0>         0.0000
     63 H31        -0.6568   -7.7765   -7.1051 H         1 <0>         0.0000
     64 H32         0.5330   -4.9647   -6.2864 H         1 <0>         0.0000
     65 H33        -0.3238   -6.1809    3.6618 H         1 <0>         0.0000
     66 H34         0.9905   -9.4277   -6.6872 H         1 <0>         0.0000
@<TRIPOS>BOND
     1    1    2 ar
     2    1    7 ar
     3    1   33 1
     4    2    9 ar
     5    2   34 1
     6    3    6 ar
     7    3    8 ar
     8    3   35 1
     9    4    8 ar
    10    4   11 ar
    11    4   36 1
    12    5    9 ar
    13    5   12 ar
    14    5   13 1
    15    6   10 ar
    16    6   14 1
    17    7   12 ar
    18    7   24 1
    19    8   15 1
    20    9   28 1
    21   10   11 ar
    22   10   28 1
    23   11   32 1
    24   12   31 1
    25   13   27 2
    26   13   29 1
    27   14   29 1
    28   14   37 1
    29   14   38 1
    30   15   39 1
    31   15   40 1
    32   15   41 1
    33   16   21 1
    34   16   42 1
    35   16   43 1
    36   16   44 1
    37   17   25 1
    38   17   45 1
    39   17   46 1
    40   17   47 1
    41   18   25 1
    42   18   48 1
    43   18   49 1
    44   18   50 1
    45   19   26 1
    46   19   51 1
    47   19   52 1
    48   19   53 1
    49   20   31 1
    50   20   54 1
    51   20   55 1
    52   20   56 1
    53   21   26 1
    54   21   57 1
    55   21   58 1
    56   22   24 1
    57   22   25 1
    58   22   59 1
    59   22   60 1
    60   23   26 1
    61   23   32 1
    62   23   61 1
    63   23   62 1
    64   24   30 1
    65   24   63 1
    66   25   64 1
    67   26   65 1
    68   30   66 1
