@<TRIPOS>MOLECULE
*****
   29    30     0     0     0
SMALL
NO_CHARGES

@<TRIPOS>ATOM
      1 C1          4.5149    3.9520   -1.1532 C.ar      1 <0>         0.0000
      2 C2          3.7570    4.4189    1.3791 C.ar      1 <0>         0.0000
      3 C3          3.4481    3.2622   -0.5692 C.ar      1 <0>         0.0000
      4 C4          4.8262    5.1009    0.7718 C.ar      1 <0>         0.0000
      5 C5          2.6953    2.2291   -1.3687 C.2       1 <0>         0.0000
      6 C6          0.6371   -0.7074   -0.4830 C.3       1 <0>         0.0000
      7 C7         -0.7060    0.7913   -1.1275 C.3       1 <0>         0.0000
      8 C8          0.8300    0.6234   -1.2542 C.3       1 <0>         0.0000
      9 C9         -1.7794   -1.0990    0.1170 C.3       1 <0>         0.0000
     10 C10        -1.8508   -2.6154    0.1740 C.3       1 <0>         0.0000
     11 N1          3.0743    3.5013    0.6998 N.ar      1 <0>         0.0000
     12 N2          5.2068    4.8778   -0.4742 N.ar      1 <0>         0.0000
     13 N3         -0.7984   -0.6604   -0.8526 N.3       1 <0>         0.0000
     14 N4          1.6805    1.6328   -0.6845 N.am      1 <0>         0.0000
     15 O1          3.0051    1.9797   -2.5338 O.2       1 <0>         0.0000
     16 F1         -2.4136   -3.1214   -0.9690 F         1 <0>         0.0000
     17 F2         -2.6543   -2.9920    1.2299 F         1 <0>         0.0000
     18 Cl1         5.6991    6.2998    1.6956 Cl        1 <0>         0.0000
     19 H1          4.8058    3.7483   -2.1791 H         1 <0>         0.0000
     20 H2          3.4667    4.6235    2.4061 H         1 <0>         0.0000
     21 H3          1.1863   -1.5869   -0.8329 H         1 <0>         0.0000
     22 H4          0.8076   -0.5735    0.5999 H         1 <0>         0.0000
     23 H5         -0.9676    1.4147   -0.2551 H         1 <0>         0.0000
     24 H6         -1.2644    1.1358   -2.0033 H         1 <0>         0.0000
     25 H7          1.1458    0.4624   -2.2834 H         1 <0>         0.0000
     26 H8         -2.7683   -0.7309   -0.1753 H         1 <0>         0.0000
     27 H9         -1.5680   -0.7336    1.1393 H         1 <0>         0.0000
     28 H10        -0.8790   -3.1012    0.3074 H         1 <0>         0.0000
     29 H11         1.5399    1.9401    0.2726 H         1 <0>         0.0000
@<TRIPOS>BOND
     1    1    3 ar
     2    1   12 ar
     3    1   19 1
     4    2    4 ar
     5    2   11 ar
     6    2   20 1
     7    3    5 1
     8    3   11 ar
     9    4   12 ar
    10    4   18 1
    11    5   14 am
    12    5   15 2
    13    6    8 1
    14    6   13 1
    15    6   21 1
    16    6   22 1
    17    7    8 1
    18    7   13 1
    19    7   23 1
    20    7   24 1
    21    8   14 1
    22    8   25 1
    23    9   10 1
    24    9   13 1
    25    9   26 1
    26    9   27 1
    27   10   16 1
    28   10   17 1
    29   10   28 1
    30   14   29 1
