@<TRIPOS>MOLECULE
*****
   52    54     0     0     0
SMALL
NO_CHARGES

@<TRIPOS>ATOM
      1 C1          3.5136    1.9759    0.2110 C.ar      1 <0>         0.0000
      2 C2          2.3563    1.8219   -0.5585 C.ar      1 <0>         0.0000
      3 C3         -2.6855    0.5701    1.1837 C.ar      1 <0>         0.0000
      4 C4         -3.4031    1.7329   -0.7821 C.ar      1 <0>         0.0000
      5 C5          2.0857   -0.4296    0.3202 C.ar      1 <0>         0.0000
      6 C6         -1.4546    0.2580    0.5925 C.ar      1 <0>         0.0000
      7 C7          3.9682    0.9497    1.0348 C.ar      1 <0>         0.0000
      8 C8         -3.6716    1.3114    0.5230 C.ar      1 <0>         0.0000
      9 C9         -2.1819    1.4401   -1.3895 C.ar      1 <0>         0.0000
     10 C10         3.2438   -0.2618    1.0972 C.ar      1 <0>         0.0000
     11 C11         1.6446    0.6259   -0.5046 C.ar      1 <0>         0.0000
     12 C12        -1.1807    0.7184   -0.7116 C.ar      1 <0>         0.0000
     13 C13         1.3155   -1.7189    0.2635 C.2       1 <0>         0.0000
     14 C14         8.6456    1.2794    1.6788 C.2       1 <0>         0.0000
     15 C15         7.6698    0.4079    1.9835 C.2       1 <0>         0.0000
     16 C16        -0.4770   -0.5382    1.4251 C.3       1 <0>         0.0000
     17 C17        -4.9819    1.6447    1.1966 C.3       1 <0>         0.0000
     18 C18         7.7515   -0.5073    3.1803 C.3       1 <0>         0.0000
     19 C19        -1.4511    3.1434   -2.8527 C.3       1 <0>         0.0000
     20 C20         2.9515   -2.1605    2.6096 C.3       1 <0>         0.0000
     21 C21         6.4034    0.3258    1.1637 C.3       1 <0>         0.0000
     22 C22         5.2391    1.0960    1.8405 C.3       1 <0>         0.0000
     23 O1          1.7703   -2.7481   -0.1839 O.2       1 <0>         0.0000
     24 O2          0.0448   -1.7028    0.7497 O.3       1 <0>         0.0000
     25 O3          5.5494    2.4837    1.9565 O.3       1 <0>         0.0000
     26 O4         -1.9826    1.8207   -2.7021 O.3       1 <0>         0.0000
     27 O5          3.7787   -1.2007    1.9392 O.3       1 <0>         0.0000
     28 S1          0.2969    0.3623   -1.6652 S.3       1 <0>         0.0000
     29 H1          4.0727    2.9047    0.1902 H         1 <0>         0.0000
     30 H2          2.0159    2.6190   -1.2118 H         1 <0>         0.0000
     31 H3         -2.8875    0.2040    2.1885 H         1 <0>         0.0000
     32 H4         -4.1459    2.2795   -1.3584 H         1 <0>         0.0000
     33 H5          8.5858    1.9125    0.7960 H         1 <0>         0.0000
     34 H6          9.5470    1.3607    2.2822 H         1 <0>         0.0000
     35 H7          0.3431    0.0932    1.7742 H         1 <0>         0.0000
     36 H8         -0.9940   -0.9331    2.3017 H         1 <0>         0.0000
     37 H9         -4.9359    2.6304    1.6753 H         1 <0>         0.0000
     38 H10        -5.8054    1.6681    0.4769 H         1 <0>         0.0000
     39 H11        -5.2295    0.9140    1.9720 H         1 <0>         0.0000
     40 H12         6.8916   -0.3695    3.8467 H         1 <0>         0.0000
     41 H13         8.6641   -0.3418    3.7589 H         1 <0>         0.0000
     42 H14         7.7307   -1.5554    2.8578 H         1 <0>         0.0000
     43 H15        -1.3339    3.3080   -3.9254 H         1 <0>         0.0000
     44 H16        -0.4758    3.2294   -2.3598 H         1 <0>         0.0000
     45 H17        -2.1398    3.8895   -2.4367 H         1 <0>         0.0000
     46 H18         3.5008   -2.4413    3.5103 H         1 <0>         0.0000
     47 H19         2.7819   -3.0403    1.9872 H         1 <0>         0.0000
     48 H20         1.9924   -1.7184    2.9003 H         1 <0>         0.0000
     49 H21         6.0982   -0.7170    1.0370 H         1 <0>         0.0000
     50 H22         6.5556    0.7607    0.1711 H         1 <0>         0.0000
     51 H23         5.0669    0.6681    2.8365 H         1 <0>         0.0000
     52 H24         6.4761    2.5426    2.2488 H         1 <0>         0.0000
@<TRIPOS>BOND
     1    1    2 ar
     2    1    7 ar
     3    1   29 1
     4    2   11 ar
     5    2   30 1
     6    3    6 ar
     7    3    8 ar
     8    3   31 1
     9    4    8 ar
    10    4    9 ar
    11    4   32 1
    12    5   10 ar
    13    5   11 ar
    14    5   13 1
    15    6   12 ar
    16    6   16 1
    17    7   10 ar
    18    7   22 1
    19    8   17 1
    20    9   12 ar
    21    9   26 1
    22   10   27 1
    23   11   28 1
    24   12   28 1
    25   13   23 2
    26   13   24 1
    27   14   15 2
    28   14   33 1
    29   14   34 1
    30   15   18 1
    31   15   21 1
    32   16   24 1
    33   16   35 1
    34   16   36 1
    35   17   37 1
    36   17   38 1
    37   17   39 1
    38   18   40 1
    39   18   41 1
    40   18   42 1
    41   19   26 1
    42   19   43 1
    43   19   44 1
    44   19   45 1
    45   20   27 1
    46   20   46 1
    47   20   47 1
    48   20   48 1
    49   21   22 1
    50   21   49 1
    51   21   50 1
    52   22   25 1
    53   22   51 1
    54   25   52 1
