@<TRIPOS>MOLECULE
*****
   28    29     0     0     0
SMALL
NO_CHARGES

@<TRIPOS>ATOM
      1 C1         -1.7352   -0.8417    0.3496 C.ar      1 <0>         0.0000
      2 C2         -0.4497   -0.9765   -0.1952 C.ar      1 <0>         0.0000
      3 C3         -2.4149   -1.9541    0.8454 C.ar      1 <0>         0.0000
      4 C4          1.3501   -4.1073   -0.4288 C.2       1 <0>         0.0000
      5 C5          0.1857   -4.5429    0.1837 C.2       1 <0>         0.0000
      6 C6         -0.6054   -3.3661    0.3194 C.ar      1 <0>         0.0000
      7 C7          0.1092   -2.2494   -0.2078 C.ar      1 <0>         0.0000
      8 C8         -0.1161   -5.9469    0.6384 C.3       1 <0>         0.0000
      9 C9         -1.6013   -7.9794    0.4108 C.3       1 <0>         0.0000
     10 C10        -1.5366   -6.4505    0.3279 C.3       1 <0>         0.0000
     11 N1         -1.8498   -3.1765    0.8232 N.ar      1 <0>         0.0000
     12 N2          1.3109   -2.7464   -0.6584 N.pl3     1 <0>         0.0000
     13 N3         -2.5249   -5.8114    1.2385 N.3       1 <0>         0.0000
     14 O1         -0.6960   -8.4965   -0.5576 O.3       1 <0>         0.0000
     15 H1         -2.2197    0.1272    0.3851 H         1 <0>         0.0000
     16 H2          0.0767   -0.1122   -0.5908 H         1 <0>         0.0000
     17 H3         -3.4142   -1.8893    1.2609 H         1 <0>         0.0000
     18 H4          2.2178   -4.6872   -0.7167 H         1 <0>         0.0000
     19 H5          0.0547   -6.0302    1.7211 H         1 <0>         0.0000
     20 H6          0.5894   -6.6301    0.1607 H         1 <0>         0.0000
     21 H7         -1.3323   -8.3066    1.4282 H         1 <0>         0.0000
     22 H8         -2.6319   -8.3056    0.2092 H         1 <0>         0.0000
     23 H9         -1.8024   -6.1609   -0.6941 H         1 <0>         0.0000
     24 H10         2.0451   -2.2089   -1.1023 H         1 <0>         0.0000
     25 H11        -3.4682   -6.1154    0.9909 H         1 <0>         0.0000
     26 H12        -2.3393   -4.0693    1.1306 H         1 <0>         0.0000
     27 H13        -2.3695   -6.1365    2.1952 H         1 <0>         0.0000
     28 H14        -0.7527   -9.4648   -0.5651 H         1 <0>         0.0000
@<TRIPOS>BOND
     1    1    2 ar
     2    1    3 ar
     3    1   15 1
     4    2    7 ar
     5    2   16 1
     6    3   11 ar
     7    3   17 1
     8    4    5 2
     9    4   12 1
    10    4   18 1
    11    5    6 1
    12    5    8 1
    13    6    7 ar
    14    6   11 ar
    15    7   12 1
    16    8   10 1
    17    8   19 1
    18    8   20 1
    19    9   10 1
    20    9   14 1
    21    9   21 1
    22    9   22 1
    23   10   13 1
    24   10   23 1
    25   12   24 1
    26   13   25 1
    27   13   27 1
    28   14   28 1
    29   11   26 1
