@<TRIPOS>MOLECULE
*****
   18    18     0     0     0
SMALL
NO_CHARGES

@<TRIPOS>ATOM
      1 C1          1.8285   -0.5547   -0.1624 C.1       1 <0>         0.0000
      2 C2          0.0021    1.0285    1.8634 C.2       1 <0>         0.0000
      3 C3         -0.4218    0.5716    3.9041 C.2       1 <0>         0.0000
      4 C4         -1.4201    1.2493   -0.1609 C.3       1 <0>         0.0000
      5 C5         -0.0176    1.0271    0.3736 C.3       1 <0>         0.0000
      6 N1          2.9595   -0.7805   -0.2883 N.1       1 <0>         0.0000
      7 N2         -0.7253    0.2149    2.5916 N.2       1 <0>         0.0000
      8 N3          0.7585    1.9025    2.5856 N.pl3     1 <0>         0.0000
      9 N4          0.4912    1.6152    3.8835 N.am      1 <0>         0.0000
     10 N5          0.5011   -0.2578   -0.0050 N.3       1 <0>         0.0000
     11 O1         -0.8849    0.0519    4.9117 O.2       1 <0>         0.0000
     12 H1         -2.1160    0.4866    0.2074 H         1 <0>         0.0000
     13 H2         -1.8065    2.2265    0.1478 H         1 <0>         0.0000
     14 H3         -1.4301    1.2049   -1.2549 H         1 <0>         0.0000
     15 H4          0.6707    1.7926    0.0013 H         1 <0>         0.0000
     16 H5          1.3752    2.6455    2.2886 H         1 <0>         0.0000
     17 H6          0.8864    2.0784    4.6908 H         1 <0>         0.0000
     18 H7         -0.1372   -1.0591    0.2054 H         1 <0>         0.0000
@<TRIPOS>BOND
     1    1    6 3
     2    1   10 1
     3    2    5 1
     4    2    7 2
     5    2    8 1
     6    3    7 1
     7    3    9 am
     8    3   11 2
     9    4    5 1
    10    4   12 1
    11    4   13 1
    12    4   14 1
    13    5   10 1
    14    5   15 1
    15    8    9 1
    16    8   16 1
    17    9   17 1
    18   10   18 1
