@<TRIPOS>MOLECULE
*****
   65    67     0     0     0
SMALL
NO_CHARGES

@<TRIPOS>ATOM
      1 C1          3.1821  -10.7144    6.5220 C.1       1 <0>         0.0000
      2 C2          1.7654   -8.7321    6.5067 C.ar      1 <0>         0.0000
      3 C3          1.3156   -7.5495    5.9247 C.ar      1 <0>         0.0000
      4 C4          2.8102   -7.9121    4.0478 C.ar      1 <0>         0.0000
      5 C5          2.7464   -9.5091    5.8727 C.ar      1 <0>         0.0000
      6 C6          3.2666   -9.0888    4.6304 C.ar      1 <0>         0.0000
      7 C7          1.8436   -7.1395    4.7000 C.ar      1 <0>         0.0000
      8 C8          0.0118   -5.6837    3.8905 C.2       1 <0>         0.0000
      9 C9          2.1751   -4.8637    3.6583 C.2       1 <0>         0.0000
     10 C10         7.6745    0.5386    1.3371 C.2       1 <0>         0.0000
     11 C11         6.1433   -1.2532    2.0393 C.3       1 <0>         0.0000
     12 C12         5.2862    0.4448    0.5186 C.3       1 <0>         0.0000
     13 C13         4.9741   -0.9833    2.9835 C.3       1 <0>         0.0000
     14 C14         4.1277    0.7020    1.4855 C.3       1 <0>         0.0000
     15 C15        -0.0736   -4.3274    3.1911 C.3       1 <0>         0.0000
     16 C16        -0.9293   -3.3642    4.0252 C.3       1 <0>         0.0000
     17 C17        -0.6605   -4.5299    1.7838 C.3       1 <0>         0.0000
     18 C18         9.5396    3.6100   -0.1986 C.3       1 <0>         0.0000
     19 C19         7.9001    1.8059    0.5102 C.3       1 <0>         0.0000
     20 C20         9.3313    2.3355    0.6261 C.3       1 <0>         0.0000
     21 C21         2.0824   -1.6064    3.6875 C.3       1 <0>         0.0000
     22 C22         1.8056   -2.6560    2.6046 C.3       1 <0>         0.0000
     23 C23         2.6324   -0.3062    3.0906 C.3       1 <0>         0.0000
     24 C24         4.3140   -9.9185    3.9203 C.3       1 <0>         0.0000
     25 N1          3.5030  -11.6808    7.0867 N.1       1 <0>         0.0000
     26 N2          1.3646   -5.9433    4.0970 N.am      1 <0>         0.0000
     27 N3          1.3414   -3.9323    3.1436 N.pl3     1 <0>         0.0000
     28 N4          6.4437   -0.0669    1.2402 N.am      1 <0>         0.0000
     29 N5          3.8010   -0.5114    2.2343 N.3       1 <0>         0.0000
     30 O1         -0.9208   -6.4008    4.1972 O.2       1 <0>         0.0000
     31 O2          8.5662    0.0770    2.0525 O.2       1 <0>         0.0000
     32 F1          4.6709   -9.3691    2.7370 F         1 <0>         0.0000
     33 F2          5.4382  -10.0423    4.6621 F         1 <0>         0.0000
     34 F3          3.8634  -11.1691    3.6610 F         1 <0>         0.0000
     35 S1          3.8286   -4.7886    3.7893 S.2       1 <0>         0.0000
     36 H1          1.3641   -9.0598    7.4598 H         1 <0>         0.0000
     37 H2          0.5557   -6.9525    6.4157 H         1 <0>         0.0000
     38 H3          3.2062   -7.5906    3.0938 H         1 <0>         0.0000
     39 H4          7.0380   -1.5217    2.5991 H         1 <0>         0.0000
     40 H5          5.8822   -2.0816    1.3681 H         1 <0>         0.0000
     41 H6          4.9700   -0.2984   -0.2261 H         1 <0>         0.0000
     42 H7          5.5346    1.3637   -0.0092 H         1 <0>         0.0000
     43 H8          4.7255   -1.9154    3.4955 H         1 <0>         0.0000
     44 H9          5.2825   -0.2425    3.7456 H         1 <0>         0.0000
     45 H10         4.4025    1.5365    2.1603 H         1 <0>         0.0000
     46 H11         3.2457    1.0123    0.9138 H         1 <0>         0.0000
     47 H12        -1.0142   -2.3955    3.5247 H         1 <0>         0.0000
     48 H13        -0.4952   -3.2101    5.0168 H         1 <0>         0.0000
     49 H14        -1.9311   -3.7845    4.1429 H         1 <0>         0.0000
     50 H15        -0.7545   -3.5723    1.2641 H         1 <0>         0.0000
     51 H16        -1.6533   -4.9787    1.8671 H         1 <0>         0.0000
     52 H17        -0.0244   -5.1901    1.1878 H         1 <0>         0.0000
     53 H18         8.8725    4.4152    0.1325 H         1 <0>         0.0000
     54 H19         9.3440    3.4359   -1.2635 H         1 <0>         0.0000
     55 H20        10.5682    3.9742   -0.1066 H         1 <0>         0.0000
     56 H21         7.1931    2.5799    0.8373 H         1 <0>         0.0000
     57 H22         7.6625    1.6038   -0.5420 H         1 <0>         0.0000
     58 H23        10.0289    1.5567    0.3032 H         1 <0>         0.0000
     59 H24         9.5600    2.5225    1.6794 H         1 <0>         0.0000
     60 H25         2.7778   -2.0276    4.4175 H         1 <0>         0.0000
     61 H26         1.1613   -1.3703    4.2305 H         1 <0>         0.0000
     62 H27         1.0447   -2.2940    1.9074 H         1 <0>         0.0000
     63 H28         2.7142   -2.8370    2.0287 H         1 <0>         0.0000
     64 H29         2.8473    0.4025    3.9131 H         1 <0>         0.0000
     65 H30         1.8533    0.1585    2.4730 H         1 <0>         0.0000
@<TRIPOS>BOND
     1    1    5 1
     2    1   25 3
     3    2    3 ar
     4    2    5 ar
     5    2   36 1
     6    3    7 ar
     7    3   37 1
     8    4    6 ar
     9    4    7 ar
    10    4   38 1
    11    5    6 ar
    12    6   24 1
    13    7   26 1
    14    8   15 1
    15    8   26 am
    16    8   30 2
    17    9   26 1
    18    9   27 1
    19    9   35 2
    20   10   19 1
    21   10   28 am
    22   10   31 2
    23   11   13 1
    24   11   28 1
    25   11   39 1
    26   11   40 1
    27   12   14 1
    28   12   28 1
    29   12   41 1
    30   12   42 1
    31   13   29 1
    32   13   43 1
    33   13   44 1
    34   14   29 1
    35   14   45 1
    36   14   46 1
    37   15   16 1
    38   15   17 1
    39   15   27 1
    40   16   47 1
    41   16   48 1
    42   16   49 1
    43   17   50 1
    44   17   51 1
    45   17   52 1
    46   18   20 1
    47   18   53 1
    48   18   54 1
    49   18   55 1
    50   19   20 1
    51   19   56 1
    52   19   57 1
    53   20   58 1
    54   20   59 1
    55   21   22 1
    56   21   23 1
    57   21   60 1
    58   21   61 1
    59   22   27 1
    60   22   62 1
    61   22   63 1
    62   23   29 1
    63   23   64 1
    64   23   65 1
    65   24   32 1
    66   24   33 1
    67   24   34 1
