@<TRIPOS>MOLECULE
*****
   48    51     0     0     0
SMALL
NO_CHARGES

@<TRIPOS>ATOM
      1 C1          2.2180   -8.8072    2.8905 C.2       1 <0>         0.0000
      2 C2          1.5063   -9.3828    3.9221 C.2       1 <0>         0.0000
      3 C3          2.2942   -7.1404    4.3138 C.2       1 <0>         0.0000
      4 C4          2.0878   -1.9036    2.6697 C.2       1 <0>         0.0000
      5 C5          0.0162   -0.3046    4.0638 C.3       1 <0>         0.0000
      6 C6          0.9467   -1.2759    4.7865 C.3       1 <0>         0.0000
      7 C7          0.2152   -3.3911    3.5015 C.3       1 <0>         0.0000
      8 C8          0.9439   -0.3083   -0.2621 C.3       1 <0>         0.0000
      9 C9          2.3493    1.2482    1.1171 C.3       1 <0>         0.0000
     10 C10         0.1363   -0.3577    2.5464 C.3       1 <0>         0.0000
     11 C11         0.6046   -4.7847    3.9870 C.3       1 <0>         0.0000
     12 C12         2.3105   -3.3965    4.7190 C.3       1 <0>         0.0000
     13 C13         1.4436    0.4418   -1.4902 C.3       1 <0>         0.0000
     14 C14         2.7689    1.9123   -0.1881 C.3       1 <0>         0.0000
     15 C15         1.9576   -0.2105    0.8789 C.3       1 <0>         0.0000
     16 C16         1.3777   -2.4663    3.9193 C.3       1 <0>         0.0000
     17 C17         2.6010   -5.7990    4.9145 C.3       1 <0>         0.0000
     18 N1          2.6702   -7.5212    3.1131 N.2       1 <0>         0.0000
     19 N2          1.4430   -0.8090    2.0852 N.am      1 <0>         0.0000
     20 N3          2.0574   -4.7086    4.1184 N.3       1 <0>         0.0000
     21 O1          3.1218   -2.4076    2.2292 O.2       1 <0>         0.0000
     22 O2          1.7368    1.8011   -1.1679 O.3       1 <0>         0.0000
     23 S1          1.3943   -8.2788    5.2298 S.3       1 <0>         0.0000
     24 H1          2.4376   -9.2868    1.9461 H         1 <0>         0.0000
     25 H2          1.0635  -10.3675    3.9691 H         1 <0>         0.0000
     26 H3         -1.0397   -0.4892    4.3570 H         1 <0>         0.0000
     27 H4          0.2255    0.7304    4.4092 H         1 <0>         0.0000
     28 H5          1.8415   -0.7229    5.1331 H         1 <0>         0.0000
     29 H6          0.4449   -1.6313    5.7067 H         1 <0>         0.0000
     30 H7          0.0754   -3.3992    2.4135 H         1 <0>         0.0000
     31 H8         -0.7412   -3.1047    3.9528 H         1 <0>         0.0000
     32 H9         -0.0367    0.0595    0.0431 H         1 <0>         0.0000
     33 H10         0.8330   -1.3642   -0.5230 H         1 <0>         0.0000
     34 H11         3.2017    1.2608    1.8030 H         1 <0>         0.0000
     35 H12         1.5391    1.8058    1.5915 H         1 <0>         0.0000
     36 H13        -0.6315   -1.0210    2.1481 H         1 <0>         0.0000
     37 H14        -0.0196    0.6401    2.1332 H         1 <0>         0.0000
     38 H15         0.1207   -4.9837    4.9503 H         1 <0>         0.0000
     39 H16         0.2978   -5.5574    3.2770 H         1 <0>         0.0000
     40 H17         3.3640   -3.1137    4.6294 H         1 <0>         0.0000
     41 H18         2.0432   -3.3967    5.7834 H         1 <0>         0.0000
     42 H19         2.3661   -0.0189   -1.8568 H         1 <0>         0.0000
     43 H20         0.7132    0.4103   -2.3066 H         1 <0>         0.0000
     44 H21         3.0220    2.9695   -0.0418 H         1 <0>         0.0000
     45 H22         3.6595    1.4154   -0.5871 H         1 <0>         0.0000
     46 H23         2.8570   -0.7885    0.6161 H         1 <0>         0.0000
     47 H24         2.1805   -5.7224    5.9232 H         1 <0>         0.0000
     48 H25         3.6817   -5.6446    5.0001 H         1 <0>         0.0000
@<TRIPOS>BOND
     1    1    2 2
     2    1   18 1
     3    1   24 1
     4    2   23 1
     5    2   25 1
     6    3   17 1
     7    3   18 2
     8    3   23 1
     9    4   16 1
    10    4   19 am
    11    4   21 2
    12    5    6 1
    13    5   10 1
    14    5   26 1
    15    5   27 1
    16    6   16 1
    17    6   28 1
    18    6   29 1
    19    7   11 1
    20    7   16 1
    21    7   30 1
    22    7   31 1
    23    8   13 1
    24    8   15 1
    25    8   32 1
    26    8   33 1
    27    9   14 1
    28    9   15 1
    29    9   34 1
    30    9   35 1
    31   10   19 1
    32   10   36 1
    33   10   37 1
    34   11   20 1
    35   11   38 1
    36   11   39 1
    37   12   16 1
    38   12   20 1
    39   12   40 1
    40   12   41 1
    41   13   22 1
    42   13   42 1
    43   13   43 1
    44   14   22 1
    45   14   44 1
    46   14   45 1
    47   15   19 1
    48   15   46 1
    49   17   20 1
    50   17   47 1
    51   17   48 1
