@<TRIPOS>MOLECULE
*****
   19    20     0     0     0
SMALL
NO_CHARGES

@<TRIPOS>ATOM
      1 C1          0.5083   -1.4618    5.9495 C.1       1 <0>         0.0000
      2 C2          1.3879   -0.0684    1.6522 C.ar      1 <0>         0.0000
      3 C3          1.6520   -0.6227    2.8997 C.ar      1 <0>         0.0000
      4 C4         -0.6317   -1.3224    1.5803 C.ar      1 <0>         0.0000
      5 C5          0.2265   -0.4197    0.9733 C.ar      1 <0>         0.0000
      6 C6          0.7299   -1.5161    3.4206 C.ar      1 <0>         0.0000
      7 C7          1.0277   -3.6495    4.8220 C.3       1 <0>         0.0000
      8 C8          2.3072   -2.8856    4.9183 C.3       1 <0>         0.0000
      9 C9          0.9928   -2.1233    4.7579 C.3       1 <0>         0.0000
     10 N1          0.1197   -0.9311    6.9053 N.1       1 <0>         0.0000
     11 N2         -0.4092   -1.8816    2.7908 N.ar      1 <0>         0.0000
     12 Cl1        -0.1318    0.2443   -0.5668 Cl        1 <0>         0.0000
     13 H1          2.0953    0.6348    1.2211 H         1 <0>         0.0000
     14 H2          2.5549   -0.3559    3.4388 H         1 <0>         0.0000
     15 H3         -1.5542   -1.6371    1.1020 H         1 <0>         0.0000
     16 H4          0.8450   -4.2123    3.9132 H         1 <0>         0.0000
     17 H5          0.6709   -4.1473    5.7171 H         1 <0>         0.0000
     18 H6          2.8115   -2.8701    5.8784 H         1 <0>         0.0000
     19 H7          2.9868   -2.9362    4.0746 H         1 <0>         0.0000
@<TRIPOS>BOND
     1    1    9 1
     2    1   10 3
     3    2    3 ar
     4    2    5 ar
     5    2   13 1
     6    3    6 ar
     7    3   14 1
     8    4    5 ar
     9    4   11 ar
    10    4   15 1
    11    5   12 1
    12    6    9 1
    13    6   11 ar
    14    7    8 1
    15    7    9 1
    16    7   16 1
    17    7   17 1
    18    8    9 1
    19    8   18 1
    20    8   19 1
