@<TRIPOS>MOLECULE
*****
   19    20     0     0     0
SMALL
NO_CHARGES

@<TRIPOS>ATOM
      1 C1          1.7411    1.1289    0.1687 C.ar      1 <0>         0.0000
      2 C2          1.2541    2.2378   -0.4230 C.ar      1 <0>         0.0000
      3 C3         -0.9154    1.1497   -0.8878 C.ar      1 <0>         0.0000
      4 C4          0.9335   -0.0869    0.2677 C.ar      1 <0>         0.0000
      5 C5         -0.4683   -0.0564   -0.2671 C.ar      1 <0>         0.0000
      6 C6         -0.1041    2.2589   -0.9714 C.ar      1 <0>         0.0000
      7 C7         -0.8305   -2.2294    0.4645 C.2       1 <0>         0.0000
      8 C8          0.6441   -2.3274    0.8494 C.3       1 <0>         0.0000
      9 N1         -1.2922   -1.0779   -0.1706 N.2       1 <0>         0.0000
     10 N2          1.4680   -1.1359    0.7920 N.2       1 <0>         0.0000
     11 N3         -0.4957    3.4158   -1.5997 N.pl3     1 <0>         0.0000
     12 O1         -1.5759   -3.1723    0.7014 O.2       1 <0>         0.0000
     13 H1          2.7461    1.0851    0.5777 H         1 <0>         0.0000
     14 H2          1.8634    3.1345   -0.5123 H         1 <0>         0.0000
     15 H3         -1.9288    1.1610   -1.2795 H         1 <0>         0.0000
     16 H4          0.7194   -2.7506    1.8573 H         1 <0>         0.0000
     17 H5          1.1158   -3.0772    0.1983 H         1 <0>         0.0000
     18 H6         -1.4756    3.5292   -1.8268 H         1 <0>         0.0000
     19 H7         -0.0009    4.2727   -1.3908 H         1 <0>         0.0000
@<TRIPOS>BOND
     1    1    2 ar
     2    1    4 ar
     3    1   13 1
     4    2    6 ar
     5    2   14 1
     6    3    6 ar
     7    3    5 ar
     8    3   15 1
     9    4    5 ar
    10    4   10 2
    11    5    9 2
    12    6   11 1
    13    7    8 1
    14    7    9 1
    15    7   12 2
    16    8   10 1
    17    8   16 1
    18    8   17 1
    19   11   18 1
    20   11   19 1
