@<TRIPOS>MOLECULE
*****
   19    20     0     0     0
SMALL
NO_CHARGES

@<TRIPOS>ATOM
      1 C1          1.8851   -1.0363   -0.1124 C.ar      1 <0>         0.0000
      2 C2          0.8066   -0.4630    0.5610 C.ar      1 <0>         0.0000
      3 C3          2.9210   -1.6309    0.6081 C.ar      1 <0>         0.0000
      4 C4          0.7638   -0.4841    1.9551 C.ar      1 <0>         0.0000
      5 C5          2.8783   -1.6520    2.0022 C.ar      1 <0>         0.0000
      6 C6          1.7997   -1.0786    2.6757 C.ar      1 <0>         0.0000
      7 C7          3.9843   -2.2852    2.7381 C.2       1 <0>         0.0000
      8 C8          1.7204   -1.0824    4.1687 C.3       1 <0>         0.0000
      9 N1          5.2622   -1.8709    2.6452 N.2       1 <0>         0.0000
     10 N2          3.8130   -3.3323    3.5673 N.2       1 <0>         0.0000
     11 N3          5.9350   -2.7127    3.4694 N.2       1 <0>         0.0000
     12 N4          5.0644   -3.5907    4.0233 N.2       1 <0>         0.0000
     13 H1          1.9179   -1.0193   -1.1977 H         1 <0>         0.0000
     14 H2          0.0001    0.0001    0.0000 H         1 <0>         0.0000
     15 H3          3.7552   -2.0727    0.0680 H         1 <0>         0.0000
     16 H4         -0.0812   -0.0351    2.4703 H         1 <0>         0.0000
     17 H5          1.2038   -1.9833    4.5177 H         1 <0>         0.0000
     18 H6          2.7205   -1.0553    4.6172 H         1 <0>         0.0000
     19 H7          1.1797   -0.2026    4.5374 H         1 <0>         0.0000
@<TRIPOS>BOND
     1    1    2 ar
     2    1    3 ar
     3    1   13 1
     4    2    4 ar
     5    2   14 1
     6    3    5 ar
     7    3   15 1
     8    4    6 ar
     9    4   16 1
    10    5    6 ar
    11    5    7 1
    12    6    8 1
    13    7    9 1
    14    7   10 2
    15    8   17 1
    16    8   18 1
    17    8   19 1
    18    9   11 1
    19   10   12 1
    20   11   12 2
