@<TRIPOS>MOLECULE
*****
   27    29     0     0     0
SMALL
NO_CHARGES

@<TRIPOS>ATOM
      1 C1         -1.4484    0.8191    4.0386 C.2       1 <0>         0.0000
      2 C2          3.8751    0.9422    1.6117 C.2       1 <0>         0.0000
      3 C3         -1.6032    0.1086    2.8716 C.2       1 <0>         0.0000
      4 C4          2.5891    0.4613    1.6853 C.2       1 <0>         0.0000
      5 C5          0.0276    1.5819    2.7081 C.2       1 <0>         0.0000
      6 C6          3.0952    1.0990   -0.3625 C.2       1 <0>         0.0000
      7 C7         -0.4014    0.1800    0.6471 C.2       1 <0>         0.0000
      8 C8          0.7581    0.1836   -0.0395 C.2       1 <0>         0.0000
      9 C9         -1.5353   -0.3254   -0.2006 C.3       1 <0>         0.0000
     10 C10         0.5428   -0.2623   -1.4588 C.3       1 <0>         0.0000
     11 C11        -0.8152   -0.9530   -1.3901 C.3       1 <0>         0.0000
     12 N1         -0.4319    1.7348    3.9302 N.2       1 <0>         0.0000
     13 N2          4.1839    1.3379    0.3343 N.2       1 <0>         0.0000
     14 N3         -0.6511    0.6087    2.0286 N.pl3     1 <0>         0.0000
     15 N4          2.1021    0.5684    0.4131 N.pl3     1 <0>         0.0000
     16 H1         -2.0179    0.7174    4.9509 H         1 <0>         0.0000
     17 H2          4.5938    1.0237    2.4141 H         1 <0>         0.0000
     18 H3         -2.2861   -0.6796    2.5843 H         1 <0>         0.0000
     19 H4          2.0049    0.0680    2.5064 H         1 <0>         0.0000
     20 H5          0.8406    2.1447    2.2684 H         1 <0>         0.0000
     21 H6          2.9727    1.2907   -1.4205 H         1 <0>         0.0000
     22 H7         -2.1498   -1.0667    0.3200 H         1 <0>         0.0000
     23 H8         -2.1728    0.5080   -0.5160 H         1 <0>         0.0000
     24 H9          0.5185    0.6028   -2.1305 H         1 <0>         0.0000
     25 H10         1.3170   -0.9564   -1.8009 H         1 <0>         0.0000
     26 H11        -0.6767   -2.0280   -1.2145 H         1 <0>         0.0000
     27 H12        -1.3818   -0.8460   -2.3205 H         1 <0>         0.0000
@<TRIPOS>BOND
     1    1    3 2
     2    1   12 1
     3    1   16 1
     4    2    4 2
     5    2   13 1
     6    2   17 1
     7    3   14 1
     8    3   18 1
     9    4   15 1
    10    4   19 1
    11    5   12 2
    12    5   14 1
    13    5   20 1
    14    6   13 2
    15    6   15 1
    16    6   21 1
    17    7    8 2
    18    7    9 1
    19    7   14 1
    20    8   10 1
    21    8   15 1
    22    9   11 1
    23    9   22 1
    24    9   23 1
    25   10   11 1
    26   10   24 1
    27   10   25 1
    28   11   26 1
    29   11   27 1
