@<TRIPOS>MOLECULE
*****
   22    23     0     0     0
SMALL
NO_CHARGES

@<TRIPOS>ATOM
      1 C1         -0.7757   -2.6600    2.0616 C.ar      1 <0>         0.0000
      2 C2         -0.7068   -1.3472    1.6188 C.ar      1 <0>         0.0000
      3 C3          0.4703   -2.0622   -0.3844 C.ar      1 <0>         0.0000
      4 C4          0.2704   -6.0542    0.9429 C.2       1 <0>         0.0000
      5 C5         -0.2233   -3.7055    1.2919 C.ar      1 <0>         0.0000
      6 C6          0.4019   -3.3918    0.0613 C.ar      1 <0>         0.0000
      7 C7         -0.2781   -5.0870    1.7249 C.2       1 <0>         0.0000
      8 C8         -0.0815   -1.0569    0.3935 C.ar      1 <0>         0.0000
      9 C9          0.9983   -4.4443   -0.7875 C.2       1 <0>         0.0000
     10 C10        -0.9750   -6.6430    3.3898 C.3       1 <0>         0.0000
     11 N1          0.8791   -5.7205   -0.2629 N.am      1 <0>         0.0000
     12 O1          1.5588   -4.2476   -1.8688 O.2       1 <0>         0.0000
     13 O2         -0.9005   -5.3000    2.9267 O.3       1 <0>         0.0000
     14 Cl1        -0.0045    0.6101   -0.1495 Cl        1 <0>         0.0000
     15 H1         -1.2561   -2.8931    3.0053 H         1 <0>         0.0000
     16 H2         -1.1316   -0.5420    2.2102 H         1 <0>         0.0000
     17 H3          0.9560   -1.8542   -1.3318 H         1 <0>         0.0000
     18 H4          0.2725   -7.1069    1.1913 H         1 <0>         0.0000
     19 H5         -1.4964   -6.6048    4.3467 H         1 <0>         0.0000
     20 H6          0.0269   -7.0673    3.5368 H         1 <0>         0.0000
     21 H7         -1.5410   -7.2722    2.6905 H         1 <0>         0.0000
     22 H8          1.2845   -6.4530   -0.8346 H         1 <0>         0.0000
@<TRIPOS>BOND
     1    1    2 ar
     2    1    5 ar
     3    1   15 1
     4    2    8 ar
     5    2   16 1
     6    3    6 ar
     7    3    8 ar
     8    3   17 1
     9    4    7 2
    10    4   11 1
    11    4   18 1
    12    5    6 ar
    13    5    7 1
    14    6    9 1
    15    7   13 1
    16    8   14 1
    17    9   11 am
    18    9   12 2
    19   10   13 1
    20   10   19 1
    21   10   20 1
    22   10   21 1
    23   11   22 1
