@<TRIPOS>MOLECULE
*****
   25    26     0     0     0
SMALL
NO_CHARGES

@<TRIPOS>ATOM
      1 C1          6.1383   -4.0867    0.3135 C.ar      1 <0>         0.0000
      2 C2          6.3337   -3.1949   -0.7458 C.ar      1 <0>         0.0000
      3 C3          5.3479   -3.7144    1.4018 C.ar      1 <0>         0.0000
      4 C4          5.7402   -1.9304   -0.7167 C.ar      1 <0>         0.0000
      5 C5          7.4253   -3.1421    4.6866 C.2       1 <0>         0.0000
      6 C6          5.2478   -3.3310    5.0787 C.2       1 <0>         0.0000
      7 C7          6.4603   -3.9314    5.3761 C.2       1 <0>         0.0000
      8 C8          4.7478   -2.4531    1.4399 C.ar      1 <0>         0.0000
      9 C9          4.9516   -1.5632    0.3755 C.ar      1 <0>         0.0000
     10 C10         4.5925   -1.4219    3.5713 C.3       1 <0>         0.0000
     11 N1          6.8558   -2.1428    4.0124 N.2       1 <0>         0.0000
     12 N2          5.5333   -2.2508    4.2750 N.pl3     1 <0>         0.0000
     13 N3          6.7184   -5.0109    6.2464 N.pl3     1 <0>         0.0000
     14 O1          3.9327   -2.1122    2.5025 O.3       1 <0>         0.0000
     15 Cl1         4.2115    0.0258    0.4153 Cl        1 <0>         0.0000
     16 H1          6.6028   -5.0686    0.2943 H         1 <0>         0.0000
     17 H2          6.9470   -3.4778   -1.5968 H         1 <0>         0.0000
     18 H3          5.1881   -4.3839    2.2417 H         1 <0>         0.0000
     19 H4          5.8828   -1.2289   -1.5328 H         1 <0>         0.0000
     20 H5          8.5022   -3.2637    4.6680 H         1 <0>         0.0000
     21 H6          4.2342   -3.5711    5.3701 H         1 <0>         0.0000
     22 H7          3.7867   -1.1171    4.2405 H         1 <0>         0.0000
     23 H8          5.1426   -0.5537    3.2036 H         1 <0>         0.0000
     24 H9          7.5158   -5.5620    5.9453 H         1 <0>         0.0000
     25 H10         5.9159   -5.6219    6.3580 H         1 <0>         0.0000
@<TRIPOS>BOND
     1    1    2 ar
     2    1    3 ar
     3    1   16 1
     4    2    4 ar
     5    2   17 1
     6    3    8 ar
     7    3   18 1
     8    4    9 ar
     9    4   19 1
    10    5    7 1
    11    5   11 2
    12    5   20 1
    13    6    7 2
    14    6   12 1
    15    6   21 1
    16    7   13 1
    17    8    9 ar
    18    8   14 1
    19    9   15 1
    20   10   12 1
    21   10   14 1
    22   10   22 1
    23   10   23 1
    24   11   12 1
    25   13   24 1
    26   13   25 1
