@<TRIPOS>MOLECULE
*****
   25    26     0     0     0
SMALL
NO_CHARGES

@<TRIPOS>ATOM
      1 C1          5.8927   -1.6134   -0.4188 C.ar      1 <0>         0.0000
      2 C2          6.3870   -2.9036   -0.6381 C.ar      1 <0>         0.0000
      3 C3          5.0926   -1.3562    0.6961 C.ar      1 <0>         0.0000
      4 C4          6.0796   -3.9313    0.2567 C.ar      1 <0>         0.0000
      5 C5          6.3639   -3.6304    5.7807 C.2       1 <0>         0.0000
      6 C6          6.9134   -2.3466    4.0558 C.2       1 <0>         0.0000
      7 C7          7.4375   -3.3077    4.9012 C.2       1 <0>         0.0000
      8 C8          4.7874   -2.3762    1.6053 C.ar      1 <0>         0.0000
      9 C9          5.2874   -3.6686    1.3780 C.ar      1 <0>         0.0000
     10 C10         4.6025   -1.3966    3.7622 C.3       1 <0>         0.0000
     11 N1          5.2626   -2.9385    5.4944 N.2       1 <0>         0.0000
     12 N2          5.6092   -2.1436    4.4558 N.pl3     1 <0>         0.0000
     13 N3          8.7574   -3.8037    4.9594 N.pl3     1 <0>         0.0000
     14 O1          3.9792   -2.1244    2.6916 O.3       1 <0>         0.0000
     15 Cl1         4.9265   -4.9529    2.5021 Cl        1 <0>         0.0000
     16 H1          6.1179   -0.8137   -1.1188 H         1 <0>         0.0000
     17 H2          7.0046   -3.1153   -1.5064 H         1 <0>         0.0000
     18 H3          4.6804   -0.3657    0.8700 H         1 <0>         0.0000
     19 H4          6.4531   -4.9378    0.0955 H         1 <0>         0.0000
     20 H5          6.3639   -4.3307    6.6080 H         1 <0>         0.0000
     21 H6          7.3448   -1.8079    3.2233 H         1 <0>         0.0000
     22 H7          3.8022   -1.1716    4.4644 H         1 <0>         0.0000
     23 H8          5.0523   -0.4777    3.3722 H         1 <0>         0.0000
     24 H9          9.2305   -3.7385    4.0637 H         1 <0>         0.0000
     25 H10         8.7817   -4.7696    5.2712 H         1 <0>         0.0000
@<TRIPOS>BOND
     1    1    2 ar
     2    1    3 ar
     3    1   16 1
     4    2    4 ar
     5    2   17 1
     6    3    8 ar
     7    3   18 1
     8    4    9 ar
     9    4   19 1
    10    5    7 1
    11    5   11 2
    12    5   20 1
    13    6    7 2
    14    6   12 1
    15    6   21 1
    16    7   13 1
    17    8    9 ar
    18    8   14 1
    19    9   15 1
    20   10   12 1
    21   10   14 1
    22   10   22 1
    23   10   23 1
    24   11   12 1
    25   13   24 1
    26   13   25 1
