@<TRIPOS>MOLECULE
*****
   28    29     0     0     0
SMALL
NO_CHARGES

@<TRIPOS>ATOM
      1 C1          1.1221    0.5818   -3.3503 C.2       1 <0>         0.0000
      2 C2          0.9458   -0.1917   -4.5533 C.2       1 <0>         0.0000
      3 C3          0.3924   -0.0428   -2.3803 C.2       1 <0>         0.0000
      4 C4          0.1249   -1.2371   -4.2366 C.2       1 <0>         0.0000
      5 C5          0.2312    1.9105    0.8005 C.3       1 <0>         0.0000
      6 C6          1.1828    1.0328    1.6072 C.3       1 <0>         0.0000
      7 C7          1.1449   -0.6189   -0.0636 C.3       1 <0>         0.0000
      8 C8          0.1795    0.2164   -0.9250 C.3       1 <0>         0.0000
      9 C9          0.0867   -3.7558   -4.5030 C.3       1 <0>         0.0000
     10 C10        -0.4227   -2.3926   -5.0057 C.3       1 <0>         0.0000
     11 N1          0.4241    1.6343   -0.6287 N.3       1 <0>         0.0000
     12 O1         -0.2227   -1.1566   -2.9054 O.3       1 <0>         0.0000
     13 O2          0.9674   -0.3503    1.3244 O.3       1 <0>         0.0000
     14 H1          1.7125    1.4772   -3.2136 H         1 <0>         0.0000
     15 H2          1.3729    0.0053   -5.5282 H         1 <0>         0.0000
     16 H3         -0.8022    1.7098    1.1340 H         1 <0>         0.0000
     17 H4          0.4542    2.9658    0.9922 H         1 <0>         0.0000
     18 H5          2.2234    1.3039    1.3724 H         1 <0>         0.0000
     19 H6          1.0147    1.1581    2.6800 H         1 <0>         0.0000
     20 H7          0.9541   -1.6850   -0.2042 H         1 <0>         0.0000
     21 H8          2.1768   -0.3910   -0.3695 H         1 <0>         0.0000
     22 H9         -0.8464   -0.0954   -0.6576 H         1 <0>         0.0000
     23 H10         1.1771   -3.8157   -4.5786 H         1 <0>         0.0000
     24 H11        -0.3448   -4.5708   -5.0935 H         1 <0>         0.0000
     25 H12        -0.1884   -3.9113   -3.4557 H         1 <0>         0.0000
     26 H13        -1.5192   -2.3747   -4.9612 H         1 <0>         0.0000
     27 H14        -0.1476   -2.2523   -6.0559 H         1 <0>         0.0000
     28 H15        -0.2096    2.2045   -1.1849 H         1 <0>         0.0000
@<TRIPOS>BOND
     1    1    2 1
     2    1    3 2
     3    1   14 1
     4    2    4 2
     5    2   15 1
     6    3    8 1
     7    3   12 1
     8    4   10 1
     9    4   12 1
    10    5    6 1
    11    5   11 1
    12    5   16 1
    13    5   17 1
    14    6   13 1
    15    6   18 1
    16    6   19 1
    17    7    8 1
    18    7   13 1
    19    7   20 1
    20    7   21 1
    21    8   11 1
    22    8   22 1
    23    9   10 1
    24    9   23 1
    25    9   24 1
    26    9   25 1
    27   10   26 1
    28   10   27 1
    29   11   28 1
