@<TRIPOS>MOLECULE
*****
   25    26     0     0     0
SMALL
NO_CHARGES

@<TRIPOS>ATOM
      1 C1         -4.3736   -0.9940   -5.7240 C.ar      1 <0>         0.0000
      2 C2         -3.4561   -1.9393   -5.2437 C.ar      1 <0>         0.0000
      3 C3         -2.9745    0.7866   -4.7997 C.ar      1 <0>         0.0000
      4 C4         -2.0603   -0.1614   -4.3230 C.ar      1 <0>         0.0000
      5 C5         -4.1052    0.3454   -5.4870 C.ar      1 <0>         0.0000
      6 C6         -2.3274   -1.5230   -4.5591 C.ar      1 <0>         0.0000
      7 C7          2.8727    1.9941   -2.8901 C.3       1 <0>         0.0000
      8 C8          2.2146    3.2631   -2.3332 C.3       1 <0>         0.0000
      9 C9          0.6847    1.5484   -2.6272 C.3       1 <0>         0.0000
     10 C10        -0.6288    1.4967   -3.3842 C.3       1 <0>         0.0000
     11 O1          1.7723    1.3109   -3.4952 O.3       1 <0>         0.0000
     12 O2          0.8530    2.8645   -2.0959 O.3       1 <0>         0.0000
     13 O3         -0.9216    0.1246   -3.6401 O.3       1 <0>         0.0000
     14 F1         -4.9767    1.2850   -5.9402 F         1 <0>         0.0000
     15 F2         -1.4472   -2.4416   -4.0961 F         1 <0>         0.0000
     16 H1         -5.2669   -1.2881   -6.2640 H         1 <0>         0.0000
     17 H2         -3.6122   -3.0025   -5.3977 H         1 <0>         0.0000
     18 H3         -2.8314    1.8501   -4.6531 H         1 <0>         0.0000
     19 H4          3.6232    2.1817   -3.6597 H         1 <0>         0.0000
     20 H5          3.3112    1.3817   -2.0900 H         1 <0>         0.0000
     21 H6          2.6626    3.6008   -1.3939 H         1 <0>         0.0000
     22 H7          2.2244    4.0836   -3.0590 H         1 <0>         0.0000
     23 H8          0.6863    0.8166   -1.8037 H         1 <0>         0.0000
     24 H9         -0.5264    2.0601   -4.3185 H         1 <0>         0.0000
     25 H10        -1.4110    1.9494   -2.7637 H         1 <0>         0.0000
@<TRIPOS>BOND
     1    1    2 ar
     2    1    5 ar
     3    1   16 1
     4    2    6 ar
     5    2   17 1
     6    3    4 ar
     7    3    5 ar
     8    3   18 1
     9    4    6 ar
    10    4   13 1
    11    5   14 1
    12    6   15 1
    13    7    8 1
    14    7   11 1
    15    7   19 1
    16    7   20 1
    17    8   12 1
    18    8   21 1
    19    8   22 1
    20    9   10 1
    21    9   12 1
    22    9   11 1
    23    9   23 1
    24   10   13 1
    25   10   24 1
    26   10   25 1
