@<TRIPOS>MOLECULE
*****
   18    18     0     0     0
SMALL
NO_CHARGES

@<TRIPOS>ATOM
      1 C1         -1.0492    0.4581    0.4555 C.ar      1 <0>         0.0000
      2 C2          0.3855    0.7504    2.3450 C.ar      1 <0>         0.0000
      3 C3          0.2058    0.8026    0.9583 C.ar      1 <0>         0.0000
      4 C4         -1.7735    0.0594    2.5881 C.ar      1 <0>         0.0000
      5 C5         -2.9014   -0.3865    3.5141 C.2       1 <0>         0.0000
      6 C6         -4.9236    0.8819    2.6968 C.3       1 <0>         0.0000
      7 C7         -4.2888   -0.5055    2.9160 C.3       1 <0>         0.0000
      8 N1         -2.0407    0.0907    1.2728 N.ar      1 <0>         0.0000
      9 N2         -0.6019    0.3765    3.1582 N.ar      1 <0>         0.0000
     10 O1         -2.6682   -0.6088    4.6888 O.2       1 <0>         0.0000
     11 Br1         1.6205    1.3304   -0.2002 Br        1 <0>         0.0000
     12 H1         -1.2583    0.4803   -0.6120 H         1 <0>         0.0000
     13 H2          1.3386    1.0143    2.7999 H         1 <0>         0.0000
     14 H3         -4.9775    1.4406    3.6364 H         1 <0>         0.0000
     15 H4         -4.3508    1.4697    1.9742 H         1 <0>         0.0000
     16 H5         -5.9411    0.7707    2.3098 H         1 <0>         0.0000
     17 H6         -4.2359   -1.0338    1.9603 H         1 <0>         0.0000
     18 H7         -4.8876   -1.0907    3.6180 H         1 <0>         0.0000
@<TRIPOS>BOND
     1    1    3 ar
     2    1    8 ar
     3    1   12 1
     4    2    3 ar
     5    2    9 ar
     6    2   13 1
     7    3   11 1
     8    4    5 1
     9    4    8 ar
    10    4    9 ar
    11    5    7 1
    12    5   10 2
    13    6    7 1
    14    6   14 1
    15    6   15 1
    16    6   16 1
    17    7   17 1
    18    7   18 1
