@<TRIPOS>MOLECULE
*****
   21    21     0     0     0
SMALL
NO_CHARGES

@<TRIPOS>ATOM
      1 C1         -0.2032    1.5655    0.8509 C.2       1 <0>         0.0000
      2 C2         -0.6662   -1.5414    1.0953 C.3       1 <0>         0.0000
      3 C3         -2.1604   -1.5346    1.3941 C.3       1 <0>         0.0000
      4 C4         -2.4362    0.5314    0.3075 C.3       1 <0>         0.0000
      5 C5         -0.9489    0.5813   -0.0680 C.3       1 <0>         0.0000
      6 C6          1.7856    2.0015    2.0520 C.3       1 <0>         0.0000
      7 N1         -0.4231   -0.7799   -0.1394 N.3       1 <0>         0.0000
      8 O1         -0.6241    2.6635    1.1568 O.2       1 <0>         0.0000
      9 O2         -2.6458   -0.1958    1.5134 O.3       1 <0>         0.0000
     10 O3          1.0127    1.1021    1.2275 O.3       1 <0>         0.0000
     11 H1         -0.1254   -1.1294    1.9619 H         1 <0>         0.0000
     12 H2         -0.3280   -2.5718    0.9405 H         1 <0>         0.0000
     13 H3         -2.7050   -2.0579    0.5934 H         1 <0>         0.0000
     14 H4         -2.3707   -2.0250    2.3479 H         1 <0>         0.0000
     15 H5         -2.8189    1.5383    0.4750 H         1 <0>         0.0000
     16 H6         -2.9857    0.0585   -0.5192 H         1 <0>         0.0000
     17 H7         -0.8821    1.0312   -1.0677 H         1 <0>         0.0000
     18 H8          2.7185    1.4777    2.2596 H         1 <0>         0.0000
     19 H9          1.2489    2.2188    2.9780 H         1 <0>         0.0000
     20 H10         1.9761    2.9357    1.5189 H         1 <0>         0.0000
     21 H11         0.5744   -0.7517   -0.3324 H         1 <0>         0.0000
@<TRIPOS>BOND
     1    1    5 1
     2    1    8 2
     3    1   10 1
     4    2    3 1
     5    2    7 1
     6    2   11 1
     7    2   12 1
     8    3    9 1
     9    3   13 1
    10    3   14 1
    11    4    5 1
    12    4    9 1
    13    4   15 1
    14    4   16 1
    15    5    7 1
    16    5   17 1
    17    6   10 1
    18    6   18 1
    19    6   19 1
    20    6   20 1
    21    7   21 1
