@<TRIPOS>MOLECULE
*****
   24    25     0     0     0
SMALL
NO_CHARGES

@<TRIPOS>ATOM
      1 C1          0.5807    1.7259    2.2304 C.ar      1 <0>         0.0000
      2 C2         -0.1214    0.6330    1.7357 C.ar      1 <0>         0.0000
      3 C3          0.1855    2.3691    3.4238 C.ar      1 <0>         0.0000
      4 C4         -1.2612    0.1165    2.4035 C.ar      1 <0>         0.0000
      5 C5         -0.9263    1.8631    4.0658 C.ar      1 <0>         0.0000
      6 C6         -1.6413    0.7641    3.5779 C.ar      1 <0>         0.0000
      7 C7         -2.0208   -1.0536    1.8960 C.2       1 <0>         0.0000
      8 C8         -2.6966    1.5332    5.3989 C.3       1 <0>         0.0000
      9 C9         -1.6628   -3.9797    0.8170 C.3       1 <0>         0.0000
     10 C10        -2.1505   -2.6920    0.1678 C.3       1 <0>         0.0000
     11 O1         -2.9997   -1.5344    2.4391 O.2       1 <0>         0.0000
     12 O2         -1.4873    2.2928    5.2489 O.3       1 <0>         0.0000
     13 O3         -2.6713    0.4723    4.4298 O.3       1 <0>         0.0000
     14 O4         -1.4944   -1.5302    0.7377 O.3       1 <0>         0.0000
     15 H1          1.4483    2.0956    1.6922 H         1 <0>         0.0000
     16 H2          0.1941    0.1517    0.8177 H         1 <0>         0.0000
     17 H3          0.7273    3.2200    3.8246 H         1 <0>         0.0000
     18 H4         -2.7345    1.1027    6.4023 H         1 <0>         0.0000
     19 H5         -3.5620    2.1794    5.2024 H         1 <0>         0.0000
     20 H6         -0.5746   -4.0650    0.7389 H         1 <0>         0.0000
     21 H7         -1.9480   -4.0147    1.8710 H         1 <0>         0.0000
     22 H8         -2.1127   -4.8402    0.3094 H         1 <0>         0.0000
     23 H9         -3.2310   -2.5773    0.2765 H         1 <0>         0.0000
     24 H10        -1.8866   -2.6542   -0.8913 H         1 <0>         0.0000
@<TRIPOS>BOND
     1    1    2 ar
     2    1    3 ar
     3    1   15 1
     4    2    4 ar
     5    2   16 1
     6    3    5 ar
     7    3   17 1
     8    4    6 ar
     9    4    7 1
    10    5    6 ar
    11    5   12 1
    12    6   13 1
    13    7   11 2
    14    7   14 1
    15    8   12 1
    16    8   13 1
    17    8   18 1
    18    8   19 1
    19    9   10 1
    20    9   20 1
    21    9   21 1
    22    9   22 1
    23   10   14 1
    24   10   23 1
    25   10   24 1
