@<TRIPOS>MOLECULE
*****
   28    29     0     0     0
SMALL
NO_CHARGES

@<TRIPOS>ATOM
      1 C1          2.6639   -4.5355    0.2859 C.ar      1 <0>         0.0000
      2 C2          2.4314   -5.9009    0.0938 C.ar      1 <0>         0.0000
      3 C3          0.7126   -4.0192   -1.0293 C.ar      1 <0>         0.0000
      4 C4          1.8114   -3.5776   -0.2802 C.ar      1 <0>         0.0000
      5 C5          0.4601   -5.3792   -1.2358 C.ar      1 <0>         0.0000
      6 C6          1.3452   -6.3065   -0.6690 C.ar      1 <0>         0.0000
      7 C7         -3.2710   -4.4406   -3.0044 C.3       1 <0>         0.0000
      8 C8         -3.4063   -5.4776   -4.1165 C.3       1 <0>         0.0000
      9 C9         -2.8670   -6.5237   -2.1282 C.3       1 <0>         0.0000
     10 C10         2.0709   -2.0985   -0.1038 C.3       1 <0>         0.0000
     11 C11        -1.4862   -6.7482   -1.5279 C.3       1 <0>         0.0000
     12 O1         -3.3972   -5.2410   -1.8213 O.3       1 <0>         0.0000
     13 O2         -2.8089   -6.6463   -3.5449 O.3       1 <0>         0.0000
     14 O3         -0.6031   -5.7307   -2.0230 O.3       1 <0>         0.0000
     15 F1          1.1418   -7.6374   -0.8763 F         1 <0>         0.0000
     16 H1          3.5172   -4.2191    0.8801 H         1 <0>         0.0000
     17 H2          3.0876   -6.6557    0.5171 H         1 <0>         0.0000
     18 H3          0.0179   -3.3082   -1.4693 H         1 <0>         0.0000
     19 H4         -2.2928   -3.9485   -3.0301 H         1 <0>         0.0000
     20 H5         -4.0704   -3.6962   -2.9961 H         1 <0>         0.0000
     21 H6         -4.4589   -5.6718   -4.3619 H         1 <0>         0.0000
     22 H7         -2.8569   -5.2209   -5.0254 H         1 <0>         0.0000
     23 H8         -3.5563   -7.2725   -1.7109 H         1 <0>         0.0000
     24 H9          2.5332   -1.6713   -1.0017 H         1 <0>         0.0000
     25 H10         1.1423   -1.5487    0.0786 H         1 <0>         0.0000
     26 H11         2.7450   -1.9103    0.7364 H         1 <0>         0.0000
     27 H12        -1.1257   -7.7429   -1.8067 H         1 <0>         0.0000
     28 H13        -1.5624   -6.6841   -0.4368 H         1 <0>         0.0000
@<TRIPOS>BOND
     1    1    2 ar
     2    1    4 ar
     3    1   16 1
     4    2    6 ar
     5    2   17 1
     6    3    4 ar
     7    3    5 ar
     8    3   18 1
     9    4   10 1
    10    5    6 ar
    11    5   14 1
    12    6   15 1
    13    7    8 1
    14    7   12 1
    15    7   19 1
    16    7   20 1
    17    8   13 1
    18    8   21 1
    19    8   22 1
    20    9   11 1
    21    9   13 1
    22    9   12 1
    23    9   23 1
    24   10   24 1
    25   10   25 1
    26   10   26 1
    27   11   14 1
    28   11   27 1
    29   11   28 1
