@<TRIPOS>MOLECULE
*****
   35    37     0     0     0
SMALL
NO_CHARGES

@<TRIPOS>ATOM
      1 C1          1.0773    1.0573    2.3653 C.ar      1 <0>         0.0000
      2 C2         -0.3389    1.3254    2.2677 C.ar      1 <0>         0.0000
      3 C3          1.5400    0.0215    3.0785 C.ar      1 <0>         0.0000
      4 C4          0.9639   -1.9139    4.5047 C.2       1 <0>         0.0000
      5 C5         -3.6706   -3.3237    5.1001 C.ar      1 <0>         0.0000
      6 C6         -1.2601    0.5665    2.8765 C.ar      1 <0>         0.0000
      7 C7         -4.6791   -4.0813    5.6953 C.ar      1 <0>         0.0000
      8 C8         -0.0302   -2.7288    5.1554 C.2       1 <0>         0.0000
      9 C9         -2.1580   -3.9377    6.8811 C.ar      1 <0>         0.0000
     10 C10         0.6229   -0.8519    3.7680 C.ar      1 <0>         0.0000
     11 C11        -2.4100   -3.2519    5.6929 C.ar      1 <0>         0.0000
     12 C12        -0.8487   -0.6100    3.6962 C.ar      1 <0>         0.0000
     13 C13        -4.4272   -4.7671    6.8835 C.ar      1 <0>         0.0000
     14 C14        -3.1666   -4.6954    7.4765 C.ar      1 <0>         0.0000
     15 C15        -1.3421   -2.4523    5.0613 C.2       1 <0>         0.0000
     16 C16        -6.6796   -5.5239    6.7845 C.3       1 <0>         0.0000
     17 C17        -1.5961   -5.2355    9.1787 C.3       1 <0>         0.0000
     18 O1         -1.7511   -1.3387    4.2839 O.3       1 <0>         0.0000
     19 O2         -5.4208   -5.5034    7.4547 O.3       1 <0>         0.0000
     20 O3         -2.9097   -5.3603    8.6374 O.3       1 <0>         0.0000
     21 H1          1.7577    1.7199    1.8414 H         1 <0>         0.0000
     22 H2         -0.6426    2.1795    1.6712 H         1 <0>         0.0000
     23 H3          2.6060   -0.1693    3.1435 H         1 <0>         0.0000
     24 H4          2.0026   -2.2008    4.6382 H         1 <0>         0.0000
     25 H5         -3.8815   -2.7955    4.1734 H         1 <0>         0.0000
     26 H6         -2.3198    0.7766    2.7976 H         1 <0>         0.0000
     27 H7         -5.6590   -4.1328    5.2284 H         1 <0>         0.0000
     28 H8          0.3293   -3.5743    5.7342 H         1 <0>         0.0000
     29 H9         -1.1777   -3.8877    7.3500 H         1 <0>         0.0000
     30 H10        -7.3814   -6.1466    7.3447 H         1 <0>         0.0000
     31 H11        -6.5493   -5.9212    5.7747 H         1 <0>         0.0000
     32 H12        -7.0675   -4.5042    6.7255 H         1 <0>         0.0000
     33 H13        -1.5257   -5.8139   10.1031 H         1 <0>         0.0000
     34 H14        -1.3817   -4.1825    9.3779 H         1 <0>         0.0000
     35 H15        -0.8750   -5.6214    8.4543 H         1 <0>         0.0000
@<TRIPOS>BOND
     1    1    2 ar
     2    1    3 ar
     3    1   21 1
     4    2    6 ar
     5    2   22 1
     6    3   10 ar
     7    3   23 1
     8    4    8 1
     9    4   10 2
    10    4   24 1
    11    5    7 ar
    12    5   11 ar
    13    5   25 1
    14    6   12 ar
    15    6   26 1
    16    7   13 ar
    17    7   27 1
    18    8   15 2
    19    8   28 1
    20    9   11 ar
    21    9   14 ar
    22    9   29 1
    23   10   12 ar
    24   11   15 1
    25   12   18 2
    26   13   14 ar
    27   13   19 1
    28   14   20 1
    29   15   18 1
    30   16   19 1
    31   16   30 1
    32   16   31 1
    33   16   32 1
    34   17   20 1
    35   17   33 1
    36   17   34 1
    37   17   35 1
