@<TRIPOS>MOLECULE
*****
   48    52     0     0     0
SMALL
NO_CHARGES

@<TRIPOS>ATOM
      1 C1          8.9093   -3.5150    1.6991 C.ar      1 <0>         0.0000
      2 C2          7.8422   -2.8275    1.1118 C.ar      1 <0>         0.0000
      3 C3          6.8486   -2.3728    3.2863 C.ar      1 <0>         0.0000
      4 C4          3.0913   -1.3524    0.3263 C.ar      1 <0>         0.0000
      5 C5          1.5879    0.8085    1.2132 C.ar      1 <0>         0.0000
      6 C6          8.3022   -3.3855    5.2086 C.2       1 <0>         0.0000
      7 C7          7.9141   -3.0603    3.8911 C.ar      1 <0>         0.0000
      8 C8          3.6493   -0.4117    1.2094 C.ar      1 <0>         0.0000
      9 C9          2.8996    0.6850    1.6650 C.ar      1 <0>         0.0000
     10 C10         8.9105   -3.6104    3.0925 C.ar      1 <0>         0.0000
     11 C11         6.8284   -2.2654    1.8900 C.ar      1 <0>         0.0000
     12 C12         1.7781   -1.2046   -0.1090 C.ar      1 <0>         0.0000
     13 C13         1.0259   -0.1228    0.3350 C.ar      1 <0>         0.0000
     14 C14         4.9553   -0.5013    1.6825 C.ar      1 <0>         0.0000
     15 C15         4.7000    1.3925    2.8954 C.ar      1 <0>         0.0000
     16 C16         6.9251    1.4268    5.4751 C.3       1 <0>         0.0000
     17 C17         6.9815    2.9220    5.5746 C.3       1 <0>         0.0000
     18 C18         6.5814    2.2713    4.2788 C.3       1 <0>         0.0000
     19 C19         0.5848   -3.2434   -0.3830 C.3       1 <0>         0.0000
     20 C20        -0.4694    0.8073   -1.2633 C.3       1 <0>         0.0000
     21 N1          9.4415   -4.0797    5.2568 N.2       1 <0>         0.0000
     22 N2          3.4231    1.5906    2.5098 N.ar      1 <0>         0.0000
     23 N3          5.5107    0.3871    2.5281 N.ar      1 <0>         0.0000
     24 N4          9.7858   -4.2005    3.9639 N.pl3     1 <0>         0.0000
     25 N5          5.7729   -1.5812    1.2664 N.pl3     1 <0>         0.0000
     26 N6          5.2435    2.3480    3.7817 N.pl3     1 <0>         0.0000
     27 O1          1.2444   -2.1197   -0.9639 O.3       1 <0>         0.0000
     28 O2         -0.2621    0.0417   -0.0781 O.3       1 <0>         0.0000
     29 H1          9.6975   -3.9522    1.0962 H         1 <0>         0.0000
     30 H2          7.8125   -2.7352    0.0281 H         1 <0>         0.0000
     31 H3          6.0587   -1.9354    3.8906 H         1 <0>         0.0000
     32 H4          3.6648   -2.2044   -0.0314 H         1 <0>         0.0000
     33 H5          0.9828    1.6489    1.5500 H         1 <0>         0.0000
     34 H6          7.8003   -3.1448    6.1350 H         1 <0>         0.0000
     35 H7          7.8632    0.8859    5.4578 H         1 <0>         0.0000
     36 H8          6.1221    0.9180    5.9943 H         1 <0>         0.0000
     37 H9          6.2171    3.4164    6.1614 H         1 <0>         0.0000
     38 H10         7.9578    3.3883    5.6242 H         1 <0>         0.0000
     39 H11         7.3083    2.2979    3.4744 H         1 <0>         0.0000
     40 H12         0.2058   -3.8940   -1.1750 H         1 <0>         0.0000
     41 H13        -0.2400   -2.8981    0.2455 H         1 <0>         0.0000
     42 H14         1.2998   -3.7977    0.2297 H         1 <0>         0.0000
     43 H15        -1.5390    0.8609   -1.4809 H         1 <0>         0.0000
     44 H16         0.0599    0.3398   -2.0974 H         1 <0>         0.0000
     45 H17        -0.0806    1.8163   -1.1072 H         1 <0>         0.0000
     46 H18        10.6364   -4.7020    3.7406 H         1 <0>         0.0000
     47 H19         5.5463   -1.9206    0.3391 H         1 <0>         0.0000
     48 H20         4.6438    3.1010    4.0590 H         1 <0>         0.0000
@<TRIPOS>BOND
     1    1    2 ar
     2    1   10 ar
     3    1   29 1
     4    2   11 ar
     5    2   30 1
     6    3    7 ar
     7    3   11 ar
     8    3   31 1
     9    4    8 ar
    10    4   12 ar
    11    4   32 1
    12    5    9 ar
    13    5   13 ar
    14    5   33 1
    15    6    7 1
    16    6   21 2
    17    6   34 1
    18    7   10 ar
    19    8    9 ar
    20    8   14 ar
    21    9   22 ar
    22   10   24 1
    23   11   25 1
    24   12   13 ar
    25   12   27 1
    26   13   28 1
    27   14   23 ar
    28   14   25 1
    29   15   22 ar
    30   15   23 ar
    31   15   26 1
    32   16   17 1
    33   16   18 1
    34   16   35 1
    35   16   36 1
    36   17   18 1
    37   17   37 1
    38   17   38 1
    39   18   26 1
    40   18   39 1
    41   19   27 1
    42   19   40 1
    43   19   41 1
    44   19   42 1
    45   20   28 1
    46   20   43 1
    47   20   44 1
    48   20   45 1
    49   21   24 1
    50   24   46 1
    51   25   47 1
    52   26   48 1
