@<TRIPOS>MOLECULE
*****
   19    18     0     0     0
SMALL
NO_CHARGES

@<TRIPOS>ATOM
      1 C1          3.2431   -0.3599    0.1622 C.2       1 <0>         0.0000
      2 C2          0.1196   -0.3781   -0.5440 C.2       1 <0>         0.0000
      3 C3         -2.3481   -0.1846   -1.0088 C.3       1 <0>         0.0000
      4 C4         -1.2924    1.1871    0.8073 C.3       1 <0>         0.0000
      5 C5         -1.2621   -0.1467    0.0636 C.3       1 <0>         0.0000
      6 N1          2.2596   -1.2908   -0.0683 N.am      1 <0>         0.0000
      7 N2          0.9772   -1.0186    0.3327 N.am      1 <0>         0.0000
      8 O1          3.1305    0.7334    0.7024 O.2       1 <0>         0.0000
      9 O2          0.4152   -0.0218   -1.6829 O.2       1 <0>         0.0000
     10 H1          4.2139   -0.7208   -0.2156 H         1 <0>         0.0000
     11 H2         -2.1946    0.6098   -1.7466 H         1 <0>         0.0000
     12 H3         -3.3393   -0.0448   -0.5637 H         1 <0>         0.0000
     13 H4         -2.3550   -1.1433   -1.5392 H         1 <0>         0.0000
     14 H5         -1.1010    2.0202    0.1230 H         1 <0>         0.0000
     15 H6         -0.5366    1.2147    1.6003 H         1 <0>         0.0000
     16 H7         -2.2662    1.3594    1.2778 H         1 <0>         0.0000
     17 H8         -1.4570   -0.9573    0.7771 H         1 <0>         0.0000
     18 H9          2.4791   -2.1674   -0.5289 H         1 <0>         0.0000
     19 H10         0.6612   -1.2832    1.2599 H         1 <0>         0.0000
@<TRIPOS>BOND
     1    1    6 am
     2    1    8 2
     3    1   10 1
     4    2    5 1
     5    2    7 am
     6    2    9 2
     7    3    5 1
     8    3   11 1
     9    3   12 1
    10    3   13 1
    11    4    5 1
    12    4   14 1
    13    4   15 1
    14    4   16 1
    15    5   17 1
    16    6    7 1
    17    6   18 1
    18    7   19 1
