@<TRIPOS>MOLECULE
*****
   28    29     0     0     0
SMALL
NO_CHARGES

@<TRIPOS>ATOM
      1 C1          2.3410   -1.7950    6.3740 C.ar      1 <0>         0.0000
      2 C2         -1.4880   -1.7190   -2.4280 C.ar      1 <0>         0.0000
      3 C3          2.1160   -0.5840    5.7260 C.ar      1 <0>         0.0000
      4 C4          1.9550   -2.9870    5.7710 C.ar      1 <0>         0.0000
      5 C5         -1.1220   -2.9360   -1.8660 C.ar      1 <0>         0.0000
      6 C6         -0.9460   -0.5370   -1.9370 C.ar      1 <0>         0.0000
      7 C7          1.5000   -0.5660    4.4780 C.ar      1 <0>         0.0000
      8 C8          1.3390   -2.9690    4.5230 C.ar      1 <0>         0.0000
      9 C9         -0.2170   -2.9710   -0.8090 C.ar      1 <0>         0.0000
     10 C10        -0.0420   -0.5720   -0.8790 C.ar      1 <0>         0.0000
     11 C11         1.1000   -1.7570    3.8740 C.ar      1 <0>         0.0000
     12 C12         0.3230   -1.7890   -0.2960 C.ar      1 <0>         0.0000
     13 C13         0.4290   -1.7370    2.5120 C.3       1 <0>         0.0000
     14 O1          2.1500   -3.0980    1.0760 O.2       1 <0>         0.0000
     15 O2          2.3080   -0.6700    1.0260 O.2       1 <0>         0.0000
     16 S1          1.4890   -1.8360    1.0760 S.o2      1 <0>         0.0000
     17 H1          2.8110   -1.8090    7.3240 H         1 <0>         0.0000
     18 H2         -2.1770   -1.6920   -3.2350 H         1 <0>         0.0000
     19 H3          2.4180    0.3240    6.1810 H         1 <0>         0.0000
     20 H4          2.1340   -3.9100    6.2600 H         1 <0>         0.0000
     21 H5         -1.5280   -3.8390   -2.2470 H         1 <0>         0.0000
     22 H6         -1.2180    0.3920   -2.3720 H         1 <0>         0.0000
     23 H7          1.3440    0.3620    3.9890 H         1 <0>         0.0000
     24 H8          1.0590   -3.8840    4.0670 H         1 <0>         0.0000
     25 H9          0.0700   -3.9040   -0.3910 H         1 <0>         0.0000
     26 H10         0.3800    0.3320   -0.5150 H         1 <0>         0.0000
     27 H11        -0.2660   -2.5620    2.5510 H         1 <0>         0.0000
     28 H12        -0.1500   -0.8270    2.5190 H         1 <0>         0.0000
@<TRIPOS>BOND
     1    1    3 ar
     2    1    4 ar
     3    1   17 1
     4    2    5 ar
     5    2    6 ar
     6    2   18 1
     7    3    7 ar
     8    3   19 1
     9    4    8 ar
    10    4   20 1
    11    5    9 ar
    12    5   21 1
    13    6   10 ar
    14    6   22 1
    15    7   11 ar
    16    7   23 1
    17    8   11 ar
    18    8   24 1
    19    9   12 ar
    20    9   25 1
    21   10   12 ar
    22   10   26 1
    23   11   13 1
    24   12   16 1
    25   13   16 1
    26   13   27 1
    27   13   28 1
    28   14   16 2
    29   15   16 2
