@<TRIPOS>MOLECULE
*****
   18    19     0     0     0
SMALL
NO_CHARGES

@<TRIPOS>ATOM
      1 C1          1.7124   -0.5790   -2.9496 C.ar      1 <0>         0.0000
      2 C2          1.4425    0.0186   -1.7229 C.ar      1 <0>         0.0000
      3 C3         -0.4388   -1.5064   -1.3297 C.ar      1 <0>         0.0000
      4 C4          0.9121   -1.6482   -3.3779 C.ar      1 <0>         0.0000
      5 C5          0.3811   -0.4545   -0.9376 C.ar      1 <0>         0.0000
      6 C6         -0.1569   -2.1000   -2.5627 C.ar      1 <0>         0.0000
      7 C7          0.1801   -3.2556   -4.6842 C.2       1 <0>         0.0000
      8 C8          0.6778   -0.2748    1.3948 C.3       1 <0>         0.0000
      9 N1          1.0696   -2.3340   -4.5791 N.2       1 <0>         0.0000
     10 O1          0.0915    0.2117    0.2708 O.3       1 <0>         0.0000
     11 F1          0.3127   -1.5514    1.6612 F         1 <0>         0.0000
     12 F2          0.2974    0.4956    2.4192 F         1 <0>         0.0000
     13 F3          2.0289   -0.2613    1.3258 F         1 <0>         0.0000
     14 S1         -0.9749   -3.4321   -3.3565 S.3       1 <0>         0.0000
     15 Br1         0.0476   -4.4200   -6.1698 Br        1 <0>         0.0000
     16 H1          2.5262   -0.2341   -3.5794 H         1 <0>         0.0000
     17 H2          2.0379    0.8498   -1.3601 H         1 <0>         0.0000
     18 H3         -1.2542   -1.8322   -0.6928 H         1 <0>         0.0000
@<TRIPOS>BOND
     1    1    2 ar
     2    1    4 ar
     3    1   16 1
     4    2    5 ar
     5    2   17 1
     6    3    5 ar
     7    3    6 ar
     8    3   18 1
     9    4    6 ar
    10    4    9 1
    11    5   10 1
    12    6   14 1
    13    7    9 2
    14    7   14 1
    15    7   15 1
    16    8   10 1
    17    8   11 1
    18    8   12 1
    19    8   13 1
