@<TRIPOS>MOLECULE
*****
   39    40     0     0     0
SMALL
NO_CHARGES

@<TRIPOS>ATOM
      1 C1          3.6238   -0.4752    3.2629 C.2       1 <0>         0.0000
      2 C2          3.6134    0.4526    2.2522 C.2       1 <0>         0.0000
      3 C3          5.7382   -0.7460    2.5958 C.2       1 <0>         0.0000
      4 C4          0.2153    1.3049    0.7985 C.3       1 <0>         0.0000
      5 C5          1.7733   -0.2906    0.0242 C.3       1 <0>         0.0000
      6 C6         -0.3959    0.5847   -0.4270 C.3       1 <0>         0.0000
      7 C7          0.4107   -0.7317   -0.5380 C.3       1 <0>         0.0000
      8 C8          7.1479   -1.2574    2.5686 C.3       1 <0>         0.0000
      9 C9         -1.9164    0.4473   -0.3873 C.3       1 <0>         0.0000
     10 C10        -0.1763   -1.8928    0.2665 C.3       1 <0>         0.0000
     11 C11         1.9186   -2.2523    3.7980 C.3       1 <0>         0.0000
     12 C12         2.4526   -0.8483    4.1279 C.3       1 <0>         0.0000
     13 C13         2.4698    1.3043    1.7715 C.3       1 <0>         0.0000
     14 N1          4.8273   -1.1397    3.4423 N.2       1 <0>         0.0000
     15 N2          1.3968    0.5098    1.1868 N.3       1 <0>         0.0000
     16 O1          0.4794   -1.0747   -1.9304 O.3       1 <0>         0.0000
     17 S1          5.1804    0.4930    1.4838 S.3       1 <0>         0.0000
     18 H1          0.4890    2.3396    0.5340 H         1 <0>         0.0000
     19 H2         -0.4869    1.3602    1.6402 H         1 <0>         0.0000
     20 H3          2.4146   -1.1270    0.3207 H         1 <0>         0.0000
     21 H4          2.3041    0.2930   -0.7510 H         1 <0>         0.0000
     22 H5         -0.1286    1.1468   -1.3283 H         1 <0>         0.0000
     23 H6          7.4496   -1.5571    1.5600 H         1 <0>         0.0000
     24 H7          7.8528   -0.4931    2.9142 H         1 <0>         0.0000
     25 H8          7.2198   -2.1213    3.2324 H         1 <0>         0.0000
     26 H9         -2.2526   -0.0692    0.5179 H         1 <0>         0.0000
     27 H10        -2.2796   -0.1084   -1.2576 H         1 <0>         0.0000
     28 H11        -2.3916    1.4344   -0.3994 H         1 <0>         0.0000
     29 H12        -1.1584   -2.1767   -0.1209 H         1 <0>         0.0000
     30 H13        -0.2730   -1.6283    1.3224 H         1 <0>         0.0000
     31 H14         0.4820   -2.7687    0.2043 H         1 <0>         0.0000
     32 H15         1.5650   -2.2916    2.7639 H         1 <0>         0.0000
     33 H16         1.0835   -2.5161    4.4561 H         1 <0>         0.0000
     34 H17         2.7058   -3.0019    3.9223 H         1 <0>         0.0000
     35 H18         2.7691   -0.8147    5.1770 H         1 <0>         0.0000
     36 H19         1.6539   -0.1136    3.9970 H         1 <0>         0.0000
     37 H20         2.0513    1.8594    2.6199 H         1 <0>         0.0000
     38 H21         2.8465    2.0626    1.0586 H         1 <0>         0.0000
     39 H22         0.8821   -1.9548   -2.0028 H         1 <0>         0.0000
@<TRIPOS>BOND
     1    1    2 2
     2    1   12 1
     3    1   14 1
     4    2   13 1
     5    2   17 1
     6    3    8 1
     7    3   14 2
     8    3   17 1
     9    4    6 1
    10    4   15 1
    11    4   18 1
    12    4   19 1
    13    5    7 1
    14    5   15 1
    15    5   20 1
    16    5   21 1
    17    6    7 1
    18    6    9 1
    19    6   22 1
    20    7   10 1
    21    7   16 1
    22    8   23 1
    23    8   24 1
    24    8   25 1
    25    9   26 1
    26    9   27 1
    27    9   28 1
    28   10   29 1
    29   10   30 1
    30   10   31 1
    31   11   12 1
    32   11   32 1
    33   11   33 1
    34   11   34 1
    35   12   35 1
    36   12   36 1
    37   13   15 1
    38   13   37 1
    39   13   38 1
    40   16   39 1
