@<TRIPOS>MOLECULE
*****
   22    22     0     0     0
SMALL
NO_CHARGES

@<TRIPOS>ATOM
      1 C1          2.0397   -1.4027   -0.1418 C.ar      1 <0>         0.0000
      2 C2          1.0231   -0.5393    0.2777 C.ar      1 <0>         0.0000
      3 C3          1.7529   -0.8007    2.5755 C.ar      1 <0>         0.0000
      4 C4          2.9216   -1.9733    0.7844 C.ar      1 <0>         0.0000
      5 C5          0.8869   -0.2432    1.6313 C.ar      1 <0>         0.0000
      6 C6          2.7600   -1.6610    2.1483 C.ar      1 <0>         0.0000
      7 C7          5.1412   -4.3091   -0.9190 C.2       1 <0>         0.0000
      8 C8          4.0284   -3.2983   -0.8835 C.3       1 <0>         0.0000
      9 N1          5.9169   -4.2645   -1.9497 N.2       1 <0>         0.0000
     10 N2          5.1685   -5.2486    0.0871 N.pl3     1 <0>         0.0000
     11 O1          6.8623   -5.3318   -1.8768 O.3       1 <0>         0.0000
     12 O2          3.9444   -2.8122    0.4631 O.3       1 <0>         0.0000
     13 Cl1        -0.3845    0.8406    2.1681 Cl        1 <0>         0.0000
     14 Cl2         3.8404   -2.3725    3.3259 Cl        1 <0>         0.0000
     15 H1          2.1402   -1.6190   -1.1990 H         1 <0>         0.0000
     16 H2          0.3465   -0.1014   -0.4487 H         1 <0>         0.0000
     17 H3          1.6450   -0.5733    3.6304 H         1 <0>         0.0000
     18 H4          3.0775   -3.7744   -1.1560 H         1 <0>         0.0000
     19 H5          4.2533   -2.4931   -1.5878 H         1 <0>         0.0000
     20 H6          6.0293   -5.7826    0.1337 H         1 <0>         0.0000
     21 H7          4.8278   -4.9136    0.9817 H         1 <0>         0.0000
     22 H8          7.4148   -5.1714   -2.6574 H         1 <0>         0.0000
@<TRIPOS>BOND
     1    1    2 ar
     2    1    4 ar
     3    1   15 1
     4    2    5 ar
     5    2   16 1
     6    3    5 ar
     7    3    6 ar
     8    3   17 1
     9    4    6 ar
    10    4   12 1
    11    5   13 1
    12    6   14 1
    13    7    8 1
    14    7    9 2
    15    7   10 1
    16    8   12 1
    17    8   18 1
    18    8   19 1
    19    9   11 1
    20   10   20 1
    21   10   21 1
    22   11   22 1
