@<TRIPOS>MOLECULE
*****
   22    22     0     0     0
SMALL
NO_CHARGES

@<TRIPOS>ATOM
      1 C1          1.9877   -1.1403   -0.1074 C.ar      1 <0>         0.0000
      2 C2          0.8972   -0.5568    0.5372 C.ar      1 <0>         0.0000
      3 C3          1.8969   -1.0892    2.6862 C.ar      1 <0>         0.0000
      4 C4          3.0369   -1.7167    0.6220 C.ar      1 <0>         0.0000
      5 C5          0.8621   -0.5351    1.9330 C.ar      1 <0>         0.0000
      6 C6          2.9758   -1.6837    2.0271 C.ar      1 <0>         0.0000
      7 C7          3.7959   -4.6521   -0.2863 C.2       1 <0>         0.0000
      8 C8          3.9461   -3.3064   -0.9447 C.3       1 <0>         0.0000
      9 N1          4.7192   -5.5142   -0.5556 N.2       1 <0>         0.0000
     10 N2          2.6676   -4.9021    0.4700 N.pl3     1 <0>         0.0000
     11 O1          4.4325   -6.7447    0.1069 O.3       1 <0>         0.0000
     12 O2          4.1443   -2.2490    0.0196 O.3       1 <0>         0.0000
     13 Cl1        -0.4987    0.2022    2.7577 Cl        1 <0>         0.0000
     14 Cl2         4.2588   -2.4044    2.9659 Cl        1 <0>         0.0000
     15 H1          2.0351   -1.1362   -1.1921 H         1 <0>         0.0000
     16 H2          0.0915   -0.1118   -0.0372 H         1 <0>         0.0000
     17 H3          1.8664   -1.0701    3.7701 H         1 <0>         0.0000
     18 H4          3.0750   -3.0914   -1.5726 H         1 <0>         0.0000
     19 H5          4.8432   -3.3204   -1.5614 H         1 <0>         0.0000
     20 H6          2.7439   -5.7230    1.0613 H         1 <0>         0.0000
     21 H7          2.2514   -4.1026    0.9311 H         1 <0>         0.0000
     22 H8          5.2013   -7.2880   -0.1259 H         1 <0>         0.0000
@<TRIPOS>BOND
     1    1    2 ar
     2    1    4 ar
     3    1   15 1
     4    2    5 ar
     5    2   16 1
     6    3    5 ar
     7    3    6 ar
     8    3   17 1
     9    4    6 ar
    10    4   12 1
    11    5   13 1
    12    6   14 1
    13    7    8 1
    14    7    9 2
    15    7   10 1
    16    8   12 1
    17    8   18 1
    18    8   19 1
    19    9   11 1
    20   10   20 1
    21   10   21 1
    22   11   22 1
