@<TRIPOS>MOLECULE
*****
   19    19     0     0     0
SMALL
NO_CHARGES

@<TRIPOS>ATOM
      1 C1          1.8491   -0.9724   -0.0796 C.ar      1 <0>         0.0000
      2 C2          2.8445   -1.5891    2.0400 C.ar      1 <0>         0.0000
      3 C3          0.7168   -0.4934    0.5851 C.ar      1 <0>         0.0000
      4 C4          1.7166   -1.1129    2.7143 C.ar      1 <0>         0.0000
      5 C5          2.9260   -1.5142    0.6403 C.ar      1 <0>         0.0000
      6 C6          0.6722   -0.5701    1.9732 C.ar      1 <0>         0.0000
      7 C7          5.0228   -1.2586   -0.2712 C.2       1 <0>         0.0000
      8 C8          7.1537   -0.7336   -1.1230 C.3       1 <0>         0.0000
      9 N1          4.0515   -2.0380   -0.0405 N.2       1 <0>         0.0000
     10 O1          6.1208   -1.7077   -0.9176 O.3       1 <0>         0.0000
     11 F1         -0.4295   -0.1061    2.6255 F         1 <0>         0.0000
     12 H1          1.9018   -0.9365   -1.1640 H         1 <0>         0.0000
     13 H2          3.6671   -2.0302    2.5955 H         1 <0>         0.0000
     14 H3         -0.1210   -0.0680    0.0408 H         1 <0>         0.0000
     15 H4          1.6425   -1.1606    3.7965 H         1 <0>         0.0000
     16 H5          5.0533   -0.1984    0.0217 H         1 <0>         0.0000
     17 H6          7.9569   -1.2534   -1.6452 H         1 <0>         0.0000
     18 H7          7.5303   -0.3496   -0.1683 H         1 <0>         0.0000
     19 H8          6.7960    0.0968   -1.7420 H         1 <0>         0.0000
@<TRIPOS>BOND
     1    1    3 ar
     2    1    5 ar
     3    1   12 1
     4    2    4 ar
     5    2    5 ar
     6    2   13 1
     7    3    6 ar
     8    3   14 1
     9    4    6 ar
    10    4   15 1
    11    5    9 1
    12    6   11 1
    13    7    9 2
    14    7   10 1
    15    7   16 1
    16    8   10 1
    17    8   17 1
    18    8   18 1
    19    8   19 1
