@<TRIPOS>MOLECULE
*****
   28    30     0     0     0
SMALL
NO_CHARGES

@<TRIPOS>ATOM
      1 C1          0.0501    2.6096   -2.1979 C.ar      1 <0>         0.0000
      2 C2          0.1096    2.8365    2.5815 C.ar      1 <0>         0.0000
      3 C3          0.5746    2.0758    1.4902 C.ar      1 <0>         0.0000
      4 C4         -0.8253    3.6160   -2.5990 C.ar      1 <0>         0.0000
      5 C5         -0.8199    0.1660    2.1472 C.ar      1 <0>         0.0000
      6 C6         -2.6580    2.4275   -1.5231 C.ar      1 <0>         0.0000
      7 C7         -0.3893    1.5211   -1.4307 C.ar      1 <0>         0.0000
      8 C8         -0.8008    2.2336    3.4277 C.ar      1 <0>         0.0000
      9 C9         -1.2481    0.9276    3.2166 C.ar      1 <0>         0.0000
     10 C10         0.1018    0.7811    1.2828 C.ar      1 <0>         0.0000
     11 C11        -1.7513    1.4504   -1.1306 C.ar      1 <0>         0.0000
     12 C12        -2.1756    3.5165   -2.2499 C.ar      1 <0>         0.0000
     13 C13         0.6064    0.4665   -1.0514 C.2       1 <0>         0.0000
     14 C14        -2.1077    1.6551    5.1503 C.3       1 <0>         0.0000
     15 O1          1.4083    0.0203   -1.8390 O.2       1 <0>         0.0000
     16 O2         -1.4244    2.7616    4.5392 O.3       1 <0>         0.0000
     17 O3         -2.1650    0.5891    4.1857 O.3       1 <0>         0.0000
     18 O4          0.5976   -0.0009    0.2351 O.3       1 <0>         0.0000
     19 F1         -2.2316    0.3785   -0.4624 F         1 <0>         0.0000
     20 Cl1        -3.2915    4.7682   -2.7475 Cl        1 <0>         0.0000
     21 H1          1.0991    2.6592   -2.4731 H         1 <0>         0.0000
     22 H2          0.4590    3.8492    2.7530 H         1 <0>         0.0000
     23 H3          1.3119    2.4960    0.8144 H         1 <0>         0.0000
     24 H4         -0.4718    4.4623   -3.1782 H         1 <0>         0.0000
     25 H5         -1.1750   -0.8408    1.9606 H         1 <0>         0.0000
     26 H6         -3.7081    2.3250   -1.2720 H         1 <0>         0.0000
     27 H7         -1.5416    1.3174    6.0288 H         1 <0>         0.0000
     28 H8         -3.1230    1.9573    5.4144 H         1 <0>         0.0000
@<TRIPOS>BOND
     1    1    4 ar
     2    1    7 ar
     3    1   21 1
     4    2    3 ar
     5    2    8 ar
     6    2   22 1
     7    3   10 ar
     8    3   23 1
     9    4   12 ar
    10    4   24 1
    11    5    9 ar
    12    5   10 ar
    13    5   25 1
    14    6   11 ar
    15    6   12 ar
    16    6   26 1
    17    7   11 ar
    18    7   13 1
    19    8    9 ar
    20    8   16 1
    21    9   17 1
    22   10   18 1
    23   11   19 1
    24   12   20 1
    25   13   15 2
    26   13   18 1
    27   14   16 1
    28   14   17 1
    29   14   27 1
    30   14   28 1
