@<TRIPOS>MOLECULE
*****
   28    30     0     0     0
SMALL
NO_CHARGES

@<TRIPOS>ATOM
      1 C1          3.7060    0.0512   -1.1068 C.ar      1 <0>         0.0000
      2 C2          2.9780    1.4883    3.4003 C.ar      1 <0>         0.0000
      3 C3          2.8819    1.9117    2.0596 C.ar      1 <0>         0.0000
      4 C4          4.0403   -1.2974   -1.0093 C.ar      1 <0>         0.0000
      5 C5          0.4351    2.0344    2.2085 C.ar      1 <0>         0.0000
      6 C6          1.8082   -1.7720   -0.1601 C.ar      1 <0>         0.0000
      7 C7          2.4477    0.5235   -0.7068 C.ar      1 <0>         0.0000
      8 C8          1.7977    1.3593    4.1065 C.ar      1 <0>         0.0000
      9 C9          0.5583    1.6325    3.5238 C.ar      1 <0>         0.0000
     10 C10         1.6352    2.1600    1.4879 C.ar      1 <0>         0.0000
     11 C11         1.5171   -0.4169   -0.2599 C.ar      1 <0>         0.0000
     12 C12         3.0847   -2.1980   -0.5286 C.ar      1 <0>         0.0000
     13 C13         2.1526    1.9855   -0.8583 C.2       1 <0>         0.0000
     14 C14         0.2262    1.1827    5.6906 C.3       1 <0>         0.0000
     15 O1          2.4420    2.6040   -1.8565 O.2       1 <0>         0.0000
     16 O2          1.6141    0.9408    5.4081 O.3       1 <0>         0.0000
     17 O3         -0.4450    1.3973    4.4362 O.3       1 <0>         0.0000
     18 O4          1.5325    2.6327    0.1762 O.3       1 <0>         0.0000
     19 F1          0.2664   -0.0169    0.0597 F         1 <0>         0.0000
     20 Cl1         3.4839   -3.8962   -0.4022 Cl        1 <0>         0.0000
     21 H1          4.4276    0.7641   -1.4937 H         1 <0>         0.0000
     22 H2          3.9390    1.2809    3.8590 H         1 <0>         0.0000
     23 H3          3.7831    2.0552    1.4731 H         1 <0>         0.0000
     24 H4          5.0222   -1.6498   -1.3060 H         1 <0>         0.0000
     25 H5         -0.5218    2.2294    1.7385 H         1 <0>         0.0000
     26 H6          1.0496   -2.4654    0.1863 H         1 <0>         0.0000
     27 H7         -0.2014    0.3071    6.1831 H         1 <0>         0.0000
     28 H8          0.1321    2.0849    6.3098 H         1 <0>         0.0000
@<TRIPOS>BOND
     1    1    4 ar
     2    1    7 ar
     3    1   21 1
     4    2    3 ar
     5    2    8 ar
     6    2   22 1
     7    3   10 ar
     8    3   23 1
     9    4   12 ar
    10    4   24 1
    11    5    9 ar
    12    5   10 ar
    13    5   25 1
    14    6   11 ar
    15    6   12 ar
    16    6   26 1
    17    7   11 ar
    18    7   13 1
    19    8    9 ar
    20    8   16 1
    21    9   17 1
    22   10   18 1
    23   11   19 1
    24   12   20 1
    25   13   15 2
    26   13   18 1
    27   14   16 1
    28   14   17 1
    29   14   27 1
    30   14   28 1
