@<TRIPOS>MOLECULE
*****
   32    34     0     0     0
SMALL
NO_CHARGES

@<TRIPOS>ATOM
      1 C1          6.6923   -2.8129    5.1232 C.1       1 <0>         0.0000
      2 C2          8.2609    4.1663    2.0158 C.ar      1 <0>         0.0000
      3 C3          8.3360    4.7779    3.2708 C.ar      1 <0>         0.0000
      4 C4          6.2817   -7.2601    4.4117 C.2       1 <0>         0.0000
      5 C5          8.1641    2.7798    1.9387 C.ar      1 <0>         0.0000
      6 C6          8.3186    3.9950    4.4265 C.ar      1 <0>         0.0000
      7 C7          6.4580   -5.8589    4.5166 C.2       1 <0>         0.0000
      8 C8          6.6717   -7.7604    3.1865 C.2       1 <0>         0.0000
      9 C9          8.1415    1.9880    3.1024 C.ar      1 <0>         0.0000
     10 C10         8.2228    2.5957    4.3779 C.ar      1 <0>         0.0000
     11 C11         6.9865   -5.2898    3.3609 C.2       1 <0>         0.0000
     12 C12         8.0401    0.5287    2.9268 C.2       1 <0>         0.0000
     13 C13         7.6063   -1.5045    3.2674 C.2       1 <0>         0.0000
     14 C14         7.3232   -3.9375    3.0258 C.2       1 <0>         0.0000
     15 C15         7.2052   -2.8050    3.7872 C.2       1 <0>         0.0000
     16 C16         8.2292    1.8190    5.6749 C.3       1 <0>         0.0000
     17 N1          6.2724   -2.8571    6.2095 N.1       1 <0>         0.0000
     18 N2          7.5351   -0.3493    3.8715 N.2       1 <0>         0.0000
     19 N3          8.4109   -0.0586    1.8016 N.2       1 <0>         0.0000
     20 O1          8.1161   -1.4214    2.0205 O.3       1 <0>         0.0000
     21 S1          7.2597   -6.5271    2.1441 S.3       1 <0>         0.0000
     22 H1          8.2720    4.7632    1.1080 H         1 <0>         0.0000
     23 H2          8.4084    5.8596    3.3508 H         1 <0>         0.0000
     24 H3          5.8829   -7.8811    5.2066 H         1 <0>         0.0000
     25 H4          8.0965    2.2901    0.9723 H         1 <0>         0.0000
     26 H5          8.3851    4.4787    5.3981 H         1 <0>         0.0000
     27 H6          6.2088   -5.2872    5.4012 H         1 <0>         0.0000
     28 H7          6.6418   -8.7888    2.8487 H         1 <0>         0.0000
     29 H8          7.7298   -3.7816    2.0290 H         1 <0>         0.0000
     30 H9          7.2652    1.3392    5.8605 H         1 <0>         0.0000
     31 H10         8.9732    1.0178    5.6654 H         1 <0>         0.0000
     32 H11         8.4539    2.4872    6.5103 H         1 <0>         0.0000
@<TRIPOS>BOND
     1    1   15 1
     2    1   17 3
     3    2    3 ar
     4    2    5 ar
     5    2   22 1
     6    3    6 ar
     7    3   23 1
     8    4    7 1
     9    4    8 2
    10    4   24 1
    11    5    9 ar
    12    5   25 1
    13    6   10 ar
    14    6   26 1
    15    7   11 2
    16    7   27 1
    17    8   21 1
    18    8   28 1
    19    9   10 ar
    20    9   12 1
    21   10   16 1
    22   11   14 1
    23   11   21 1
    24   12   18 1
    25   12   19 2
    26   13   15 1
    27   13   18 2
    28   13   20 1
    29   14   15 2
    30   14   29 1
    31   16   30 1
    32   16   31 1
    33   16   32 1
    34   19   20 1
