@<TRIPOS>MOLECULE
*****
   20    20     0     0     0
SMALL
NO_CHARGES

@<TRIPOS>ATOM
      1 C1          1.8989   -0.6717   -0.0331 C.ar      1 <0>         0.0000
      2 C2          0.7444   -0.1890    0.5714 C.ar      1 <0>         0.0000
      3 C3          1.5491   -1.0643    2.6905 C.ar      1 <0>         0.0000
      4 C4          2.8849   -1.3878    0.6758 C.ar      1 <0>         0.0000
      5 C5          2.7196   -1.5354    2.0719 C.ar      1 <0>         0.0000
      6 C6          0.5766   -0.4157    1.9418 C.ar      1 <0>         0.0000
      7 C7          3.9666   -1.9724   -0.1442 C.2       1 <0>         0.0000
      8 C8          5.0214   -1.8887    2.7068 C.3       1 <0>         0.0000
      9 N1          4.4148   -3.1770   -0.1678 N.2       1 <0>         0.0000
     10 O1          3.7962   -3.9998    0.7879 O.3       1 <0>         0.0000
     11 O2          3.6209   -2.0910    2.9280 O.3       1 <0>         0.0000
     12 Cl1        -0.8731    0.1692    2.7399 Cl        1 <0>         0.0000
     13 H1          2.0304   -0.5309   -1.1033 H         1 <0>         0.0000
     14 H2         -0.0116    0.3382   -0.0002 H         1 <0>         0.0000
     15 H3          1.4423   -1.1953    3.7619 H         1 <0>         0.0000
     16 H4          4.4089   -1.3467   -0.9189 H         1 <0>         0.0000
     17 H5          5.4858   -1.9323    3.6942 H         1 <0>         0.0000
     18 H6          5.2080   -0.9062    2.2598 H         1 <0>         0.0000
     19 H7          5.4394   -2.6708    2.0705 H         1 <0>         0.0000
     20 H8          4.2012   -4.8653    0.6137 H         1 <0>         0.0000
@<TRIPOS>BOND
     1    1    2 ar
     2    1    4 ar
     3    1   13 1
     4    2    6 ar
     5    2   14 1
     6    3    5 ar
     7    3    6 ar
     8    3   15 1
     9    4    5 ar
    10    4    7 1
    11    5   11 1
    12    6   12 1
    13    7    9 2
    14    7   16 1
    15    8   11 1
    16    8   17 1
    17    8   18 1
    18    8   19 1
    19    9   10 1
    20   10   20 1
