@<TRIPOS>MOLECULE
*****
   19    20     0     0     0
SMALL
NO_CHARGES

@<TRIPOS>ATOM
      1 C1         -0.4937   -1.2968   -1.4012 C.ar      1 <0>         0.0000
      2 C2          1.4363    0.1847   -1.6999 C.ar      1 <0>         0.0000
      3 C3          0.9280   -1.4532   -3.4130 C.ar      1 <0>         0.0000
      4 C4          0.3360   -0.2709   -0.9637 C.ar      1 <0>         0.0000
      5 C5         -0.1787   -1.8761   -2.6306 C.ar      1 <0>         0.0000
      6 C6          1.7313   -0.4081   -2.9232 C.ar      1 <0>         0.0000
      7 C7          0.1888   -3.0320   -4.7680 C.2       1 <0>         0.0000
      8 C8          0.5852   -0.1060    1.3744 C.3       1 <0>         0.0000
      9 N1          1.1004   -2.1276   -4.6077 N.2       1 <0>         0.0000
     10 O1          0.0196    0.3866    0.2410 O.3       1 <0>         0.0000
     11 F1          0.2312   -1.3905    1.6141 F         1 <0>         0.0000
     12 F2          0.1676    0.6461    2.3973 F         1 <0>         0.0000
     13 F3          1.9365   -0.0720    1.3390 F         1 <0>         0.0000
     14 S1         -1.0119   -3.1752   -3.4604 S.3       1 <0>         0.0000
     15 S2          0.1642   -4.0479   -6.2051 S.3       1 <0>         0.0000
     16 Br1         3.2253    0.2033   -3.9324 Br        1 <0>         0.0000
     17 H1         -1.3396   -1.6127   -0.8008 H         1 <0>         0.0000
     18 H2          2.0429    0.9942   -1.3107 H         1 <0>         0.0000
     19 H3         -0.9304   -4.7585   -5.8620 H         1 <0>         0.0000
@<TRIPOS>BOND
     1    1    4 ar
     2    1    5 ar
     3    1   17 1
     4    2    4 ar
     5    2    6 ar
     6    2   18 1
     7    3    5 ar
     8    3    6 ar
     9    3    9 1
    10    4   10 1
    11    5   14 1
    12    6   16 1
    13    7    9 2
    14    7   14 1
    15    7   15 1
    16    8   10 1
    17    8   11 1
    18    8   12 1
    19    8   13 1
    20   15   19 1
