@<TRIPOS>MOLECULE
*****
   18    19     0     0     0
SMALL
NO_CHARGES

@<TRIPOS>ATOM
      1 C1         -3.6882   -4.1070   -4.1715 C.ar      1 <0>         0.0000
      2 C2         -3.9965   -3.4794   -2.9677 C.ar      1 <0>         0.0000
      3 C3         -1.6082   -2.8290   -4.3762 C.ar      1 <0>         0.0000
      4 C4         -1.6689   -0.8254   -1.4492 C.2       1 <0>         0.0000
      5 C5         -1.9120   -2.1916   -3.1631 C.ar      1 <0>         0.0000
      6 C6         -2.5036   -3.7749   -4.8486 C.ar      1 <0>         0.0000
      7 C7         -3.1033   -2.5238   -2.4688 C.ar      1 <0>         0.0000
      8 C8         -1.5582   -5.5468   -6.0834 C.3       1 <0>         0.0000
      9 N1         -1.1232   -1.2235   -2.5538 N.2       1 <0>         0.0000
     10 O1         -2.2541   -4.3826   -6.0979 O.3       1 <0>         0.0000
     11 F1         -0.3237   -5.4114   -5.5466 F         1 <0>         0.0000
     12 F2         -1.4262   -5.9598   -7.3490 F         1 <0>         0.0000
     13 F3         -2.1849   -6.5208   -5.3803 F         1 <0>         0.0000
     14 S1         -3.2053   -1.5698   -1.0057 S.3       1 <0>         0.0000
     15 H1         -4.3525   -4.8509   -4.5983 H         1 <0>         0.0000
     16 H2         -4.9107   -3.7299   -2.4384 H         1 <0>         0.0000
     17 H3         -0.7036   -2.5842   -4.9220 H         1 <0>         0.0000
     18 H4         -1.2320   -0.0723   -0.8005 H         1 <0>         0.0000
@<TRIPOS>BOND
     1    1    2 ar
     2    1    6 ar
     3    1   15 1
     4    2    7 ar
     5    2   16 1
     6    3    5 ar
     7    3    6 ar
     8    3   17 1
     9    4    9 2
    10    4   14 1
    11    4   18 1
    12    5    7 ar
    13    5    9 1
    14    6   10 1
    15    7   14 1
    16    8   10 1
    17    8   11 1
    18    8   12 1
    19    8   13 1
