@<TRIPOS>MOLECULE
*****
   37    39     0     0     0
SMALL
NO_CHARGES

@<TRIPOS>ATOM
      1 C1         -0.7212   -2.0285   -1.7507 C.1       1 <0>         0.0000
      2 C2          2.0962    0.0805   -4.5120 C.ar      1 <0>         0.0000
      3 C3          1.4985    0.5902   -3.3707 C.ar      1 <0>         0.0000
      4 C4          2.9286   -1.0420   -4.4038 C.ar      1 <0>         0.0000
      5 C5         -0.2745   -2.2072   -0.4116 C.2       1 <0>         0.0000
      6 C6          1.6801   -0.0194   -2.1089 C.ar      1 <0>         0.0000
      7 C7         -0.3885   -3.4593    0.2938 C.2       1 <0>         0.0000
      8 C8          3.1730   -1.6536   -3.1750 C.ar      1 <0>         0.0000
      9 C9          2.5471   -1.1343   -2.0235 C.ar      1 <0>         0.0000
     10 C10         0.0707   -3.3806    1.5804 C.2       1 <0>         0.0000
     11 C11         0.2754   -1.1854    0.3603 C.2       1 <0>         0.0000
     12 C12         0.9652    0.6208   -0.9937 C.2       1 <0>         0.0000
     13 C13        -0.9229   -4.7377   -0.2999 C.3       1 <0>         0.0000
     14 C14         0.1188   -4.5241    2.5560 C.3       1 <0>         0.0000
     15 C15        -1.2051   -5.7814    0.7926 C.3       1 <0>         0.0000
     16 C16        -0.0553   -5.8577    1.8073 C.3       1 <0>         0.0000
     17 C17         4.0881   -2.8452   -3.0445 C.3       1 <0>         0.0000
     18 N1         -1.1068   -1.9092   -2.8457 N.1       1 <0>         0.0000
     19 N2          0.4409    0.1544    0.0913 N.2       1 <0>         0.0000
     20 O1          2.8962   -1.7515   -0.8561 O.3       1 <0>         0.0000
     21 S1          0.6118   -1.7659    1.9815 S.3       1 <0>         0.0000
     22 H1          1.9219    0.5448   -5.4779 H         1 <0>         0.0000
     23 H2          0.8455    1.4568   -3.4391 H         1 <0>         0.0000
     24 H3          3.4054   -1.4468   -5.2936 H         1 <0>         0.0000
     25 H4          0.8458    1.7005   -1.1133 H         1 <0>         0.0000
     26 H5         -1.8301   -4.5288   -0.8774 H         1 <0>         0.0000
     27 H6         -0.1912   -5.1306   -1.0182 H         1 <0>         0.0000
     28 H7          1.0649   -4.5202    3.1091 H         1 <0>         0.0000
     29 H8         -0.6783   -4.4077    3.3028 H         1 <0>         0.0000
     30 H9         -2.1311   -5.5158    1.3181 H         1 <0>         0.0000
     31 H10        -1.3707   -6.7608    0.3317 H         1 <0>         0.0000
     32 H11         0.8767   -6.1001    1.2818 H         1 <0>         0.0000
     33 H12        -0.2349   -6.6604    2.5301 H         1 <0>         0.0000
     34 H13         4.9447   -2.6181   -2.4012 H         1 <0>         0.0000
     35 H14         3.5671   -3.6920   -2.5860 H         1 <0>         0.0000
     36 H15         4.4620   -3.1547   -4.0238 H         1 <0>         0.0000
     37 H16         2.3078   -1.4891   -0.1289 H         1 <0>         0.0000
@<TRIPOS>BOND
     1    1    5 1
     2    1   18 3
     3    2    3 ar
     4    2    4 ar
     5    2   22 1
     6    3    6 ar
     7    3   23 1
     8    4    8 ar
     9    4   24 1
    10    5    7 1
    11    5   11 2
    12    6    9 ar
    13    6   12 1
    14    7   10 2
    15    7   13 1
    16    8    9 ar
    17    8   17 1
    18    9   20 1
    19   10   14 1
    20   10   21 1
    21   11   19 1
    22   11   21 1
    23   12   19 2
    24   12   25 1
    25   13   15 1
    26   13   26 1
    27   13   27 1
    28   14   16 1
    29   14   28 1
    30   14   29 1
    31   15   16 1
    32   15   30 1
    33   15   31 1
    34   16   32 1
    35   16   33 1
    36   17   34 1
    37   17   35 1
    38   17   36 1
    39   20   37 1
