@<TRIPOS>MOLECULE
*****
   22    22     0     0     0
SMALL
NO_CHARGES

@<TRIPOS>ATOM
      1 C1          2.0474   -0.5803    0.3219 C.ar      1 <0>         0.0000
      2 C2          0.9485   -0.2267    1.1087 C.ar      1 <0>         0.0000
      3 C3          1.7266   -1.7133    2.8581 C.ar      1 <0>         0.0000
      4 C4          2.9938   -1.5031    0.7845 C.ar      1 <0>         0.0000
      5 C5          0.7950   -0.7952    2.3708 C.ar      1 <0>         0.0000
      6 C6          2.8168   -2.0622    2.0639 C.ar      1 <0>         0.0000
      7 C7          4.7067   -0.0296   -1.3789 C.2       1 <0>         0.0000
      8 C8          4.2528   -1.4713   -1.2474 C.3       1 <0>         0.0000
      9 N1          5.1093    0.5928   -0.3284 N.2       1 <0>         0.0000
     10 N2          4.5828    0.5245   -2.6432 N.pl3     1 <0>         0.0000
     11 O1          5.4933    1.9224   -0.6805 O.3       1 <0>         0.0000
     12 O2          4.0864   -1.9217    0.0820 O.3       1 <0>         0.0000
     13 Cl1        -0.5807   -0.3536    3.3703 Cl        1 <0>         0.0000
     14 Cl2         3.9802   -3.2167    2.6719 Cl        1 <0>         0.0000
     15 H1          2.1674   -0.1051   -0.6444 H         1 <0>         0.0000
     16 H2          0.2254    0.4938    0.7410 H         1 <0>         0.0000
     17 H3          1.6091   -2.1564    3.8408 H         1 <0>         0.0000
     18 H4          5.0169   -2.1294   -1.6736 H         1 <0>         0.0000
     19 H5          3.3303   -1.6096   -1.8280 H         1 <0>         0.0000
     20 H6          5.1092    1.3832   -2.7668 H         1 <0>         0.0000
     21 H7          4.6641   -0.1188   -3.4220 H         1 <0>         0.0000
     22 H8          5.7842    2.2820    0.1720 H         1 <0>         0.0000
@<TRIPOS>BOND
     1    1    2 ar
     2    1    4 ar
     3    1   15 1
     4    2    5 ar
     5    2   16 1
     6    3    5 ar
     7    3    6 ar
     8    3   17 1
     9    4    6 ar
    10    4   12 1
    11    5   13 1
    12    6   14 1
    13    7    8 1
    14    7    9 2
    15    7   10 1
    16    8   12 1
    17    8   18 1
    18    8   19 1
    19    9   11 1
    20   10   20 1
    21   10   21 1
    22   11   22 1
