@<TRIPOS>MOLECULE
*****
   18    19     0     0     0
SMALL
NO_CHARGES

@<TRIPOS>ATOM
      1 C1         -0.1098    0.4823    0.9384 C.ar      1 <0>         0.0000
      2 C2          0.7262    1.9153    2.7426 C.ar      1 <0>         0.0000
      3 C3         -1.3385    0.2797    1.6189 C.ar      1 <0>         0.0000
      4 C4         -0.4752    1.7053    3.3872 C.ar      1 <0>         0.0000
      5 C5         -1.4934    0.9091    2.8514 C.ar      1 <0>         0.0000
      6 C6          0.8803    1.2766    1.4946 C.ar      1 <0>         0.0000
      7 C7         -2.4167   -0.5632    1.0517 C.2       1 <0>         0.0000
      8 C8         -2.1959    1.7022    4.8320 C.3       1 <0>         0.0000
      9 O1         -3.4916   -0.7800    1.5785 O.2       1 <0>         0.0000
     10 O2         -0.8692    2.2094    4.6018 O.3       1 <0>         0.0000
     11 O3         -2.5573    0.8844    3.7046 O.3       1 <0>         0.0000
     12 O4         -2.0812   -1.0935   -0.1594 O.3       1 <0>         0.0000
     13 Br1         2.5277    1.5278    0.5462 Br        1 <0>         0.0000
     14 H1          0.0397    0.0057   -0.0219 H         1 <0>         0.0000
     15 H2          1.5044    2.5356    3.1727 H         1 <0>         0.0000
     16 H3         -2.1985    1.0874    5.7375 H         1 <0>         0.0000
     17 H4         -2.8973    2.5389    4.9087 H         1 <0>         0.0000
     18 H5         -2.8521   -1.6236   -0.4377 H         1 <0>         0.0000
@<TRIPOS>BOND
     1    1    3 ar
     2    1    6 ar
     3    1   14 1
     4    2    4 ar
     5    2    6 ar
     6    2   15 1
     7    3    5 ar
     8    3    7 1
     9    4    5 ar
    10    4   10 1
    11    5   11 1
    12    6   13 1
    13    7    9 2
    14    7   12 1
    15    8   10 1
    16    8   11 1
    17    8   16 1
    18    8   17 1
    19   12   18 1
