@<TRIPOS>MOLECULE
*****
   21    21     0     0     0
SMALL
NO_CHARGES

@<TRIPOS>ATOM
      1 C1          1.9763   -0.5016   -0.0682 C.ar      1 <0>         0.0000
      2 C2          0.8618   -0.0117    0.6128 C.ar      1 <0>         0.0000
      3 C3          2.9214   -1.3018    0.5858 C.ar      1 <0>         0.0000
      4 C4          1.6093   -1.1197    2.6304 C.ar      1 <0>         0.0000
      5 C5          0.6685   -0.3206    1.9687 C.ar      1 <0>         0.0000
      6 C6          2.7212   -1.5981    1.9325 C.ar      1 <0>         0.0000
      7 C7         -0.4129    1.7427    2.8601 C.2       1 <0>         0.0000
      8 C8         -0.5302    0.2410    2.7109 C.3       1 <0>         0.0000
      9 N1         -1.0382    2.6268    2.1629 N.2       1 <0>         0.0000
     10 N2          0.4354    2.1876    3.8769 N.pl3     1 <0>         0.0000
     11 O1         -1.9276    2.0204    1.2222 O.3       1 <0>         0.0000
     12 Br1         4.0029   -2.6884    2.8574 Br        1 <0>         0.0000
     13 H1          2.1192   -0.2627   -1.1188 H         1 <0>         0.0000
     14 H2          0.1349    0.6155    0.1037 H         1 <0>         0.0000
     15 H3          3.7898   -1.6839    0.0592 H         1 <0>         0.0000
     16 H4          1.4735   -1.3749    3.6775 H         1 <0>         0.0000
     17 H5         -1.4502    0.0152    2.1704 H         1 <0>         0.0000
     18 H6         -0.6001   -0.1994    3.7094 H         1 <0>         0.0000
     19 H7          1.2923    1.6455    3.9443 H         1 <0>         0.0000
     20 H8          0.6315    3.1826    3.8091 H         1 <0>         0.0000
     21 H9         -2.3755    2.7962    0.8501 H         1 <0>         0.0000
@<TRIPOS>BOND
     1    1    2 ar
     2    1    3 ar
     3    1   13 1
     4    2    5 ar
     5    2   14 1
     6    3    6 ar
     7    3   15 1
     8    4    5 ar
     9    4    6 ar
    10    4   16 1
    11    5    8 1
    12    6   12 1
    13    7    8 1
    14    7    9 2
    15    7   10 1
    16    8   17 1
    17    8   18 1
    18    9   11 1
    19   10   19 1
    20   10   20 1
    21   11   21 1
