@<TRIPOS>MOLECULE
*****
   42    45     0     0     0
SMALL
NO_CHARGES

@<TRIPOS>ATOM
      1 C1          0.5678   -1.3916    1.4607 C.ar      1 <0>         0.0000
      2 C2         -0.7911   -1.4154    1.1291 C.ar      1 <0>         0.0000
      3 C3          1.2134   -2.5723    1.8579 C.ar      1 <0>         0.0000
      4 C4         -1.5395   -2.5996    1.1895 C.ar      1 <0>         0.0000
      5 C5         -2.6085   -7.5202   -0.7130 C.ar      1 <0>         0.0000
      6 C6         -1.8118   -9.0400    0.9786 C.ar      1 <0>         0.0000
      7 C7          0.4836   -3.7532    1.9227 C.ar      1 <0>         0.0000
      8 C8         -2.4610   -7.8493    0.6380 C.ar      1 <0>         0.0000
      9 C9         -0.8816   -3.7638    1.5970 C.ar      1 <0>         0.0000
     10 C10        -2.1123   -8.3540   -1.7159 C.ar      1 <0>         0.0000
     11 C11        -1.4183   -9.5409   -1.3814 C.ar      1 <0>         0.0000
     12 C12        -1.2970   -9.8646   -0.0220 C.ar      1 <0>         0.0000
     13 C13        -2.6790   -5.4694    1.4559 C.2       1 <0>         0.0000
     14 C14         0.9429   -5.1541    2.2581 C.3       1 <0>         0.0000
     15 C15        -1.2847   -9.5439   -4.5656 C.3       1 <0>         0.0000
     16 C16        -0.3814   -5.9350    2.4052 C.3       1 <0>         0.0000
     17 C17        -2.5772   -8.9727   -3.9830 C.3       1 <0>         0.0000
     18 C18        -0.2630   -9.7892   -3.4555 C.3       1 <0>         0.0000
     19 C19        -3.0192   -6.9359    1.7157 C.3       1 <0>         0.0000
     20 N1         -1.4010   -5.0737    1.7584 N.am      1 <0>         0.0000
     21 O1         -3.5144   -4.7095    0.9625 O.2       1 <0>         0.0000
     22 O2         -2.3077   -7.9411   -3.0137 O.3       1 <0>         0.0000
     23 O3         -0.8792  -10.3989   -2.3037 O.3       1 <0>         0.0000
     24 Cl1        -0.4500  -11.3304    0.4302 Cl        1 <0>         0.0000
     25 H1          1.1240   -0.4596    1.4086 H         1 <0>         0.0000
     26 H2         -1.2846   -0.4980    0.8186 H         1 <0>         0.0000
     27 H3          2.2716   -2.5645    2.1094 H         1 <0>         0.0000
     28 H4         -2.5892   -2.6225    0.9313 H         1 <0>         0.0000
     29 H5         -3.1260   -6.6135   -1.0128 H         1 <0>         0.0000
     30 H6         -1.6921   -9.3310    2.0179 H         1 <0>         0.0000
     31 H7          1.5479   -5.5635    1.4407 H         1 <0>         0.0000
     32 H8          1.5444   -5.2037    3.1696 H         1 <0>         0.0000
     33 H9         -1.5190  -10.4773   -5.0896 H         1 <0>         0.0000
     34 H10        -0.8498   -8.8525   -5.2961 H         1 <0>         0.0000
     35 H11        -0.3426   -6.9120    1.9243 H         1 <0>         0.0000
     36 H12        -0.6393   -6.0732    3.4621 H         1 <0>         0.0000
     37 H13        -3.1839   -8.4952   -4.7558 H         1 <0>         0.0000
     38 H14        -3.1751   -9.7604   -3.5141 H         1 <0>         0.0000
     39 H15         0.5131  -10.4886   -3.7740 H         1 <0>         0.0000
     40 H16         0.2179   -8.8539   -3.1529 H         1 <0>         0.0000
     41 H17        -4.1111   -6.9844    1.7234 H         1 <0>         0.0000
     42 H18        -2.6649   -7.2611    2.6982 H         1 <0>         0.0000
@<TRIPOS>BOND
     1    1    2 ar
     2    1    3 ar
     3    1   25 1
     4    2    4 ar
     5    2   26 1
     6    3    7 ar
     7    3   27 1
     8    4    9 ar
     9    4   28 1
    10    5    8 ar
    11    5   10 ar
    12    5   29 1
    13    6    8 ar
    14    6   12 ar
    15    6   30 1
    16    7    9 ar
    17    7   14 1
    18    8   19 1
    19    9   20 1
    20   10   11 ar
    21   10   22 1
    22   11   12 ar
    23   11   23 1
    24   12   24 1
    25   13   19 1
    26   13   20 am
    27   13   21 2
    28   14   16 1
    29   14   31 1
    30   14   32 1
    31   15   17 1
    32   15   18 1
    33   15   33 1
    34   15   34 1
    35   16   20 1
    36   16   35 1
    37   16   36 1
    38   17   22 1
    39   17   37 1
    40   17   38 1
    41   18   23 1
    42   18   39 1
    43   18   40 1
    44   19   41 1
    45   19   42 1
