@<TRIPOS>MOLECULE
*****
   29    30     0     0     0
SMALL
NO_CHARGES

@<TRIPOS>ATOM
      1 C1          0.8160    2.9778    1.6744 C.ar      1 <0>         0.0000
      2 C2         -1.7266    4.0079    1.9909 C.ar      1 <0>         0.0000
      3 C3         -0.2509    2.2755    1.0850 C.ar      1 <0>         0.0000
      4 C4          0.6520    4.1480    2.4067 C.ar      1 <0>         0.0000
      5 C5         -0.6465    4.6743    2.5773 C.ar      1 <0>         0.0000
      6 C6         -1.5241    2.8306    1.2620 C.ar      1 <0>         0.0000
      7 C7         -0.5842   -0.3537    0.7433 C.3       1 <0>         0.0000
      8 C8         -0.7814   -0.5988   -0.7740 C.3       1 <0>         0.0000
      9 C9          0.0695    1.0012    0.3376 C.3       1 <0>         0.0000
     10 C10         2.1234    6.0099    2.4568 C.3       1 <0>         0.0000
     11 C11        -2.0635    6.3375    3.5500 C.3       1 <0>         0.0000
     12 N1         -0.5096    0.8435   -1.0230 N.3       1 <0>         0.0000
     13 O1          1.7535    4.7297    2.9913 O.3       1 <0>         0.0000
     14 O2         -0.7569    5.8140    3.3231 O.3       1 <0>         0.0000
     15 Br1        -3.1215    2.0299    0.5404 Br        1 <0>         0.0000
     16 H1          1.8295    2.5984    1.5690 H         1 <0>         0.0000
     17 H2         -2.7351    4.3851    2.1020 H         1 <0>         0.0000
     18 H3         -1.5216   -0.2349    1.2855 H         1 <0>         0.0000
     19 H4          0.0650   -1.0481    1.2804 H         1 <0>         0.0000
     20 H5         -0.0280   -1.2807   -1.1921 H         1 <0>         0.0000
     21 H6         -1.7760   -0.9205   -1.1007 H         1 <0>         0.0000
     22 H7          1.1631    0.8897    0.3413 H         1 <0>         0.0000
     23 H8          3.0294    6.3081    2.9882 H         1 <0>         0.0000
     24 H9          1.3373    6.7520    2.6223 H         1 <0>         0.0000
     25 H10         2.3383    5.9288    1.3837 H         1 <0>         0.0000
     26 H11        -1.9248    7.2198    4.1759 H         1 <0>         0.0000
     27 H12        -2.6953    5.6126    4.0768 H         1 <0>         0.0000
     28 H13        -2.5461    6.6299    2.6095 H         1 <0>         0.0000
     29 H14         0.1375    1.0461   -1.7821 H         1 <0>         0.0000
@<TRIPOS>BOND
     1    1    3 ar
     2    1    4 ar
     3    1   16 1
     4    2    5 ar
     5    2    6 ar
     6    2   17 1
     7    3    6 ar
     8    3    9 1
     9    4    5 ar
    10    4   13 1
    11    5   14 1
    12    6   15 1
    13    7    8 1
    14    7    9 1
    15    7   18 1
    16    7   19 1
    17    8   12 1
    18    8   20 1
    19    8   21 1
    20    9   12 1
    21    9   22 1
    22   10   13 1
    23   10   23 1
    24   10   24 1
    25   10   25 1
    26   11   14 1
    27   11   26 1
    28   11   27 1
    29   11   28 1
    30   12   29 1
