@<TRIPOS>MOLECULE
*****
   25    26     0     0     0
SMALL
NO_CHARGES

@<TRIPOS>ATOM
      1 C1         -2.7730   -1.3806   -1.9519 C.ar      1 <0>         0.0000
      2 C2         -4.0942   -1.8155   -2.0768 C.ar      1 <0>         0.0000
      3 C3         -2.4672   -0.1691   -1.3221 C.ar      1 <0>         0.0000
      4 C4         -5.1244   -1.0246   -1.5821 C.ar      1 <0>         0.0000
      5 C5         -3.5227    0.6045   -0.8180 C.ar      1 <0>         0.0000
      6 C6         -4.8466    0.1888   -0.9542 C.ar      1 <0>         0.0000
      7 C7          2.3783    0.0674   -1.3222 C.3       1 <0>         0.0000
      8 C8          1.6073   -0.5894   -2.4635 C.3       1 <0>         0.0000
      9 C9          0.6853    1.4689   -2.0218 C.3       1 <0>         0.0000
     10 C10        -0.7761    1.5046   -1.5978 C.3       1 <0>         0.0000
     11 O1          1.5027    1.1234   -0.9114 O.3       1 <0>         0.0000
     12 O2          0.9286    0.5258   -3.0576 O.3       1 <0>         0.0000
     13 O3         -1.1573    0.1855   -1.1688 O.3       1 <0>         0.0000
     14 F1         -6.4111   -1.4153   -1.6993 F         1 <0>         0.0000
     15 F2         -3.2755    1.7661   -0.1777 F         1 <0>         0.0000
     16 F3         -5.8394    0.9503   -0.4668 F         1 <0>         0.0000
     17 H1         -1.9530   -1.9738   -2.3425 H         1 <0>         0.0000
     18 H2         -4.3369   -2.7541   -2.5642 H         1 <0>         0.0000
     19 H3          2.5453   -0.5904   -0.4662 H         1 <0>         0.0000
     20 H4          3.3361    0.4797   -1.6664 H         1 <0>         0.0000
     21 H5          2.2459   -1.0421   -3.2253 H         1 <0>         0.0000
     22 H6          0.8834   -1.3222   -2.0900 H         1 <0>         0.0000
     23 H7          0.9625    2.4616   -2.4070 H         1 <0>         0.0000
     24 H8         -1.3853    1.8126   -2.4544 H         1 <0>         0.0000
     25 H9         -0.9031    2.2243   -0.7835 H         1 <0>         0.0000
@<TRIPOS>BOND
     1    1    2 ar
     2    1    3 ar
     3    1   17 1
     4    2    4 ar
     5    2   18 1
     6    3    5 ar
     7    3   13 1
     8    4    6 ar
     9    4   14 1
    10    5    6 ar
    11    5   15 1
    12    6   16 1
    13    7    8 1
    14    7   11 1
    15    7   19 1
    16    7   20 1
    17    8   12 1
    18    8   21 1
    19    8   22 1
    20    9   10 1
    21    9   12 1
    22    9   11 1
    23    9   23 1
    24   10   13 1
    25   10   24 1
    26   10   25 1
