@<TRIPOS>MOLECULE
*****
   37    40     0     0     0
SMALL
NO_CHARGES

@<TRIPOS>ATOM
      1 C1          2.4177   -2.1607   -3.1055 C.ar      1 <0>         0.0000
      2 C2          2.0166   -1.0134   -2.4095 C.ar      1 <0>         0.0000
      3 C3          2.2971   -3.4359   -2.5384 C.ar      1 <0>         0.0000
      4 C4          2.4159   -7.1598   -4.6639 C.ar      1 <0>         0.0000
      5 C5          2.8003   -7.4257   -5.9879 C.ar      1 <0>         0.0000
      6 C6          1.4866   -1.1149   -1.1155 C.ar      1 <0>         0.0000
      7 C7          3.6899   -9.0707   -3.8307 C.ar      1 <0>         0.0000
      8 C8          1.7608   -3.5426   -1.2502 C.ar      1 <0>         0.0000
      9 C9          2.8487   -7.9552   -3.5877 C.ar      1 <0>         0.0000
     10 C10         3.6349   -8.5105   -6.1942 C.ar      1 <0>         0.0000
     11 C11         4.0664   -9.3105   -5.1363 C.ar      1 <0>         0.0000
     12 C12         1.3754   -2.3834   -0.5721 C.ar      1 <0>         0.0000
     13 C13         1.5134   -4.7242   -0.3710 C.2       1 <0>         0.0000
     14 C14         2.4362   -7.6148   -2.2076 C.2       1 <0>         0.0000
     15 C15         5.0618  -10.0327   -7.0107 C.3       1 <0>         0.0000
     16 C16         2.2891   -8.6957   -1.1601 C.3       1 <0>         0.0000
     17 N1          1.0208   -4.5125    0.8201 N.2       1 <0>         0.0000
     18 N2          2.2020   -6.3635   -1.9712 N.2       1 <0>         0.0000
     19 N3          1.7824   -6.0129   -0.7223 N.pl3     1 <0>         0.0000
     20 O1          1.6784   -2.3593    2.0963 O.2       1 <0>         0.0000
     21 O2         -0.6639   -2.5845    1.1712 O.2       1 <0>         0.0000
     22 O3          4.1300   -8.9996   -7.3798 O.3       1 <0>         0.0000
     23 O4          4.8558  -10.3316   -5.6194 O.3       1 <0>         0.0000
     24 S1          0.7701   -2.8524    1.0606 S.o2      1 <0>         0.0000
     25 H1          2.8334   -2.0619   -4.1045 H         1 <0>         0.0000
     26 H2          2.1205   -0.0362   -2.8728 H         1 <0>         0.0000
     27 H3          2.6130   -4.3204   -3.0745 H         1 <0>         0.0000
     28 H4          1.7504   -6.3285   -4.4591 H         1 <0>         0.0000
     29 H5          2.4487   -6.8179   -6.8155 H         1 <0>         0.0000
     30 H6          1.1779   -0.2355   -0.5584 H         1 <0>         0.0000
     31 H7          4.0597   -9.7029   -3.0308 H         1 <0>         0.0000
     32 H8          4.8642  -10.9264   -7.6063 H         1 <0>         0.0000
     33 H9          6.0856   -9.6648   -7.1565 H         1 <0>         0.0000
     34 H10         2.9888   -8.5477   -0.3283 H         1 <0>         0.0000
     35 H11         1.2733   -8.6953   -0.7454 H         1 <0>         0.0000
     36 H12         2.4570   -9.6884   -1.5743 H         1 <0>         0.0000
     37 H13         1.5810   -6.7062   -0.0038 H         1 <0>         0.0000
@<TRIPOS>BOND
     1    1    2 ar
     2    1    3 ar
     3    1   25 1
     4    2    6 ar
     5    2   26 1
     6    3    8 ar
     7    3   27 1
     8    4    5 ar
     9    4    9 ar
    10    4   28 1
    11    5   10 ar
    12    5   29 1
    13    6   12 ar
    14    6   30 1
    15    7    9 ar
    16    7   11 ar
    17    7   31 1
    18    8   12 ar
    19    8   13 1
    20    9   14 1
    21   10   11 ar
    22   10   22 1
    23   11   23 1
    24   12   24 1
    25   13   17 2
    26   13   19 1
    27   14   16 1
    28   14   18 2
    29   15   22 1
    30   15   23 1
    31   15   32 1
    32   15   33 1
    33   16   34 1
    34   16   35 1
    35   16   36 1
    36   17   24 1
    37   18   19 1
    38   19   37 1
    39   20   24 2
    40   21   24 2
