@<TRIPOS>MOLECULE
*****
   32    34     0     0     0
SMALL
NO_CHARGES

@<TRIPOS>ATOM
      1 C1          7.1860   -3.3633    2.3366 C.1       1 <0>         0.0000
      2 C2          1.8430   -0.8921   -0.4255 C.ar      1 <0>         0.0000
      3 C3          0.6272   -0.3201   -0.0413 C.ar      1 <0>         0.0000
      4 C4          2.7396   -1.3132    0.5529 C.ar      1 <0>         0.0000
      5 C5          0.3252   -0.1770    1.3148 C.ar      1 <0>         0.0000
      6 C6          6.0874   -3.0074    6.9842 C.2       1 <0>         0.0000
      7 C7          6.3435   -3.1629    8.3153 C.2       1 <0>         0.0000
      8 C8          8.2250   -3.9490    6.9250 C.2       1 <0>         0.0000
      9 C9          2.4387   -1.1707    1.9212 C.ar      1 <0>         0.0000
     10 C10         7.1759   -3.4610    6.1491 C.2       1 <0>         0.0000
     11 C11         1.2088   -0.5918    2.3213 C.ar      1 <0>         0.0000
     12 C12         3.4564   -1.6485    2.8707 C.2       1 <0>         0.0000
     13 C13         5.2710   -2.5023    3.5409 C.2       1 <0>         0.0000
     14 C14         7.3406   -3.4936    4.7112 C.2       1 <0>         0.0000
     15 C15         6.5905   -3.1185    3.6268 C.2       1 <0>         0.0000
     16 C16         0.8125   -0.4040    3.7651 C.3       1 <0>         0.0000
     17 N1          7.7059   -3.5793    1.3167 N.1       1 <0>         0.0000
     18 N2          4.6455   -2.2095    2.4334 N.2       1 <0>         0.0000
     19 N3          3.3536   -1.5973    4.1887 N.2       1 <0>         0.0000
     20 O1          4.5664   -2.1669    4.6407 O.3       1 <0>         0.0000
     21 S1          7.9094   -3.8620    8.6063 S.3       1 <0>         0.0000
     22 H1          2.0911   -1.0095   -1.4767 H         1 <0>         0.0000
     23 H2         -0.0843    0.0141   -0.7922 H         1 <0>         0.0000
     24 H3          3.6880   -1.7593    0.2744 H         1 <0>         0.0000
     25 H4         -0.6228    0.2692    1.6052 H         1 <0>         0.0000
     26 H5          5.1669   -2.5891    6.6098 H         1 <0>         0.0000
     27 H6          5.7028   -2.9071    9.1496 H         1 <0>         0.0000
     28 H7          9.1640   -4.3532    6.5670 H         1 <0>         0.0000
     29 H8          8.2963   -3.9243    4.4218 H         1 <0>         0.0000
     30 H9          0.7858   -1.3571    4.3016 H         1 <0>         0.0000
     31 H10         1.5299    0.2254    4.3000 H         1 <0>         0.0000
     32 H11        -0.1749    0.0603    3.8296 H         1 <0>         0.0000
@<TRIPOS>BOND
     1    1   15 1
     2    1   17 3
     3    2    3 ar
     4    2    4 ar
     5    2   22 1
     6    3    5 ar
     7    3   23 1
     8    4    9 ar
     9    4   24 1
    10    5   11 ar
    11    5   25 1
    12    6    7 2
    13    6   10 1
    14    6   26 1
    15    7   21 1
    16    7   27 1
    17    8   10 2
    18    8   21 1
    19    8   28 1
    20    9   11 ar
    21    9   12 1
    22   10   14 1
    23   11   16 1
    24   12   18 1
    25   12   19 2
    26   13   15 1
    27   13   18 2
    28   13   20 1
    29   14   15 2
    30   14   29 1
    31   16   30 1
    32   16   31 1
    33   16   32 1
    34   19   20 1
