@<TRIPOS>MOLECULE
*****
   31    33     0     0     0
SMALL
NO_CHARGES

@<TRIPOS>ATOM
      1 C1         -2.8464   -1.6972   -3.0266 C.ar      1 <0>         0.0000
      2 C2         -2.4666   -0.4245   -2.5790 C.ar      1 <0>         0.0000
      3 C3         -2.0935   -2.8307   -2.6947 C.ar      1 <0>         0.0000
      4 C4         -0.6366   -7.5921   -3.9101 C.ar      1 <0>         0.0000
      5 C5         -1.9718   -7.8954   -1.9159 C.ar      1 <0>         0.0000
      6 C6         -1.3220   -0.2557   -1.7869 C.ar      1 <0>         0.0000
      7 C7         -1.7301   -7.9468   -4.7040 C.ar      1 <0>         0.0000
      8 C8         -3.0724   -8.2517   -2.6992 C.ar      1 <0>         0.0000
      9 C9         -0.9529   -2.6636   -1.9057 C.ar      1 <0>         0.0000
     10 C10        -0.7444   -7.5642   -2.5109 C.ar      1 <0>         0.0000
     11 C11        -0.5932   -1.3908   -1.4715 C.ar      1 <0>         0.0000
     12 C12        -2.9416   -8.2732   -4.0898 C.ar      1 <0>         0.0000
     13 C13         0.0327   -3.6660   -1.3982 C.2       1 <0>         0.0000
     14 C14         0.4199   -7.1558   -1.6692 C.2       1 <0>         0.0000
     15 N1          1.0225   -3.2462   -0.6716 N.2       1 <0>         0.0000
     16 N2          0.6927   -5.9541   -1.3039 N.2       1 <0>         0.0000
     17 N3         -0.1614   -4.9748   -1.7270 N.pl3     1 <0>         0.0000
     18 O1          2.0346   -0.9161   -1.1750 O.2       1 <0>         0.0000
     19 O2          0.6375   -1.2332    0.9116 O.2       1 <0>         0.0000
     20 S1          0.9151   -1.5568   -0.4868 S.o2      1 <0>         0.0000
     21 Cl1        -4.3188   -8.7149   -5.0791 Cl        1 <0>         0.0000
     22 H1         -3.7366   -1.8069   -3.6393 H         1 <0>         0.0000
     23 H2         -3.0658    0.4406   -2.8486 H         1 <0>         0.0000
     24 H3         -2.4095   -3.8067   -3.0547 H         1 <0>         0.0000
     25 H4          0.3070   -7.3342   -4.3837 H         1 <0>         0.0000
     26 H5         -2.0698   -7.8742   -0.8337 H         1 <0>         0.0000
     27 H6         -1.0179    0.7252   -1.4342 H         1 <0>         0.0000
     28 H7         -1.6437   -7.9698   -5.7857 H         1 <0>         0.0000
     29 H8         -4.0199   -8.5096   -2.2367 H         1 <0>         0.0000
     30 H9          1.1189   -7.9125   -1.3162 H         1 <0>         0.0000
     31 H10        -0.9633   -5.2225   -2.3015 H         1 <0>         0.0000
@<TRIPOS>BOND
     1    1    2 ar
     2    1    3 ar
     3    1   22 1
     4    2    6 ar
     5    2   23 1
     6    3    9 ar
     7    3   24 1
     8    4    7 ar
     9    4   10 ar
    10    4   25 1
    11    5    8 ar
    12    5   10 ar
    13    5   26 1
    14    6   11 ar
    15    6   27 1
    16    7   12 ar
    17    7   28 1
    18    8   12 ar
    19    8   29 1
    20    9   11 ar
    21    9   13 1
    22   10   14 1
    23   11   20 1
    24   12   21 1
    25   13   15 2
    26   13   17 1
    27   14   16 2
    28   14   30 1
    29   15   20 1
    30   16   17 1
    31   17   31 1
    32   18   20 2
    33   19   20 2
