@<TRIPOS>MOLECULE
*****
   65    68     0     0     0
SMALL
NO_CHARGES

@<TRIPOS>ATOM
      1 C1          2.9409    6.2631    2.5968 C.ar      1 <0>         0.0000
      2 C2          1.6001    5.8758    2.5998 C.ar      1 <0>         0.0000
      3 C3          1.4267   -2.0259    4.0986 C.ar      1 <0>         0.0000
      4 C4          3.9691    5.3414    2.3988 C.ar      1 <0>         0.0000
      5 C5          0.2590   -1.3854    3.6560 C.ar      1 <0>         0.0000
      6 C6          2.3263    3.5841    2.1931 C.ar      1 <0>         0.0000
      7 C7          0.5666    0.3394    5.3467 C.ar      1 <0>         0.0000
      8 C8          1.3038    4.5199    2.3923 C.ar      1 <0>         0.0000
      9 C9          2.1582   -1.4895    5.1537 C.ar      1 <0>         0.0000
     10 C10         1.7236   -0.3034    5.7686 C.ar      1 <0>         0.0000
     11 C11         3.6833    3.9669    2.1966 C.ar      1 <0>         0.0000
     12 C12        -0.1726   -0.2077    4.2842 C.ar      1 <0>         0.0000
     13 C13        -1.8422    2.8053    2.4193 C.2       1 <0>         0.0000
     14 C14        -2.2135    4.0490    2.8405 C.2       1 <0>         0.0000
     15 C15        -0.0665    4.0163    2.4217 C.2       1 <0>         0.0000
     16 C16         5.6553   -3.2065    5.5690 C.2       1 <0>         0.0000
     17 C17         2.6707    0.0886    6.8830 C.3       1 <0>         0.0000
     18 C18         3.9345   -0.7507    6.5822 C.3       1 <0>         0.0000
     19 C19         3.4203   -2.0033    5.8268 C.3       1 <0>         0.0000
     20 C20        -3.4870    4.6768    3.2820 C.3       1 <0>         0.0000
     21 C21         6.7354    3.9057    0.8727 C.3       1 <0>         0.0000
     22 C22         4.0692    0.7572    2.8922 C.3       1 <0>         0.0000
     23 C23        -2.6505    1.5472    2.2830 C.3       1 <0>         0.0000
     24 C24         4.4387   -2.6180    4.8673 C.3       1 <0>         0.0000
     25 C25         6.0951    3.3735    2.1627 C.3       1 <0>         0.0000
     26 C26         4.3745    1.6442    1.6770 C.3       1 <0>         0.0000
     27 C27        -1.8078    0.3156    2.6046 C.3       1 <0>         0.0000
     28 N1         -0.4765    2.8081    2.1492 N.2       1 <0>         0.0000
     29 N2          4.6875    3.0274    2.0182 N.pl3     1 <0>         0.0000
     30 O1          5.7653   -3.3693    6.7610 O.2       1 <0>         0.0000
     31 O2         -1.0768    4.8403    2.8395 O.3       1 <0>         0.0000
     32 O3          6.6743   -3.5868    4.7358 O.3       1 <0>         0.0000
     33 O4         -1.3158    0.4631    3.9397 O.3       1 <0>         0.0000
     34 H1          3.1985    7.3087    2.7469 H         1 <0>         0.0000
     35 H2          0.8060    6.5972    2.7594 H         1 <0>         0.0000
     36 H3          1.7410   -2.9441    3.6062 H         1 <0>         0.0000
     37 H4          4.9917    5.6999    2.3928 H         1 <0>         0.0000
     38 H5         -0.3111   -1.8132    2.8382 H         1 <0>         0.0000
     39 H6          2.0300    2.5511    2.0720 H         1 <0>         0.0000
     40 H7          0.2217    1.2653    5.7993 H         1 <0>         0.0000
     41 H8          2.8712    1.1641    6.9147 H         1 <0>         0.0000
     42 H9          2.2411   -0.1884    7.8548 H         1 <0>         0.0000
     43 H10         4.5934   -0.1799    5.9165 H         1 <0>         0.0000
     44 H11         4.5072   -1.0132    7.4732 H         1 <0>         0.0000
     45 H12         3.1514   -2.7728    6.5624 H         1 <0>         0.0000
     46 H13        -3.4001    5.0817    4.2965 H         1 <0>         0.0000
     47 H14        -3.7828    5.4975    2.6186 H         1 <0>         0.0000
     48 H15        -4.2867    3.9323    3.2775 H         1 <0>         0.0000
     49 H16         6.6728    3.1589    0.0740 H         1 <0>         0.0000
     50 H17         6.2264    4.8089    0.5244 H         1 <0>         0.0000
     51 H18         7.7928    4.1445    1.0345 H         1 <0>         0.0000
     52 H19         4.9338    0.7137    3.5638 H         1 <0>         0.0000
     53 H20         3.2188    1.1327    3.4662 H         1 <0>         0.0000
     54 H21         3.8253   -0.2621    2.5731 H         1 <0>         0.0000
     55 H22        -3.5196    1.5868    2.9472 H         1 <0>         0.0000
     56 H23        -3.0315    1.4328    1.2596 H         1 <0>         0.0000
     57 H24         3.9777   -3.4303    4.2890 H         1 <0>         0.0000
     58 H25         4.7651   -1.8667    4.1374 H         1 <0>         0.0000
     59 H26         6.2126    4.0982    2.9745 H         1 <0>         0.0000
     60 H27         6.6279    2.4742    2.4907 H         1 <0>         0.0000
     61 H28         3.5372    1.6216    0.9723 H         1 <0>         0.0000
     62 H29         5.2324    1.2357    1.1319 H         1 <0>         0.0000
     63 H30        -2.4134   -0.5965    2.5207 H         1 <0>         0.0000
     64 H31        -0.9663    0.2531    1.9082 H         1 <0>         0.0000
     65 H32         6.4344   -3.3913    3.8141 H         1 <0>         0.0000
@<TRIPOS>BOND
     1    1    2 ar
     2    1    4 ar
     3    1   34 1
     4    2    8 ar
     5    2   35 1
     6    3    5 ar
     7    3    9 ar
     8    3   36 1
     9    4   11 ar
    10    4   37 1
    11    5   12 ar
    12    5   38 1
    13    6    8 ar
    14    6   11 ar
    15    6   39 1
    16    7   10 ar
    17    7   12 ar
    18    7   40 1
    19    8   15 1
    20    9   10 ar
    21    9   19 1
    22   10   17 1
    23   11   29 1
    24   12   33 1
    25   13   14 2
    26   13   23 1
    27   13   28 1
    28   14   20 1
    29   14   31 1
    30   15   28 2
    31   15   31 1
    32   16   24 1
    33   16   30 2
    34   16   32 1
    35   17   18 1
    36   17   41 1
    37   17   42 1
    38   18   19 1
    39   18   43 1
    40   18   44 1
    41   19   24 1
    42   19   45 1
    43   20   46 1
    44   20   47 1
    45   20   48 1
    46   21   25 1
    47   21   49 1
    48   21   50 1
    49   21   51 1
    50   22   26 1
    51   22   52 1
    52   22   53 1
    53   22   54 1
    54   23   27 1
    55   23   55 1
    56   23   56 1
    57   24   57 1
    58   24   58 1
    59   25   29 1
    60   25   59 1
    61   25   60 1
    62   26   29 1
    63   26   61 1
    64   26   62 1
    65   27   33 1
    66   27   63 1
    67   27   64 1
    68   32   65 1
