@<TRIPOS>MOLECULE
*****
   54    57     0     0     0
SMALL
NO_CHARGES

@<TRIPOS>ATOM
      1 C1         -2.9985   -0.5727   -1.5575 C.2       1 <0>         0.0000
      2 C2         -1.9890    0.4299   -1.2811 C.2       1 <0>         0.0000
      3 C3         -1.0151   -0.0543   -0.4505 C.2       1 <0>         0.0000
      4 C4         -4.1820   -0.4360   -2.3879 C.2       1 <0>         0.0000
      5 C5         -2.7499   -1.7753   -0.9226 C.2       1 <0>         0.0000
      6 C6         -4.7420   -2.8055   -1.8036 C.2       1 <0>         0.0000
      7 C7          1.5330    0.4064    2.1587 C.2       1 <0>         0.0000
      8 C8         -7.2377   -0.3791   -2.7870 C.3       1 <0>         0.0000
      9 C9         -7.5656   -1.8117   -2.4348 C.3       1 <0>         0.0000
     10 C10        -0.0716    0.9747    3.7682 C.3       1 <0>         0.0000
     11 C11        -0.6422    1.2530    2.3658 C.3       1 <0>         0.0000
     12 C12        -6.2788   -1.4850   -3.1514 C.3       1 <0>         0.0000
     13 C13        -6.0936   -1.8820   -4.6007 C.3       1 <0>         0.0000
     14 C14        -1.4208    1.8440   -3.3023 C.3       1 <0>         0.0000
     15 C15        -0.6119   -5.3267   -2.6614 C.3       1 <0>         0.0000
     16 C16        -2.0008    1.8160   -1.8777 C.3       1 <0>         0.0000
     17 C17         0.2267    0.6090    0.0688 C.3       1 <0>         0.0000
     18 C18        -3.2739   -4.1600   -0.3998 C.3       1 <0>         0.0000
     19 C19        -2.5696   -5.1165   -1.3510 C.3       1 <0>         0.0000
     20 N1         -5.0512   -1.5624   -2.3625 N.am      1 <0>         0.0000
     21 N2         -3.5866   -2.8648   -1.0186 N.am      1 <0>         0.0000
     22 N3          1.3562    0.8428    3.4714 N.am      1 <0>         0.0000
     23 N4          0.3066    0.5407    1.5184 N.am      1 <0>         0.0000
     24 O1         -4.4623    0.5488   -3.0673 O.2       1 <0>         0.0000
     25 O2         -5.4401   -3.8019   -1.9650 O.2       1 <0>         0.0000
     26 O3          2.5716   -0.0106    1.6615 O.2       1 <0>         0.0000
     27 O4         -1.3060   -4.5672   -1.6833 O.3       1 <0>         0.0000
     28 S1         -1.2908   -1.7353    0.0155 S.3       1 <0>         0.0000
     29 H1         -7.7582    0.1036   -3.6085 H         1 <0>         0.0000
     30 H2         -6.9507    0.2908   -1.9843 H         1 <0>         0.0000
     31 H3         -7.5003   -2.1090   -1.3940 H         1 <0>         0.0000
     32 H4         -8.3192   -2.3454   -3.0057 H         1 <0>         0.0000
     33 H5         -0.2667    1.7927    4.4659 H         1 <0>         0.0000
     34 H6         -0.4924    0.0464    4.1785 H         1 <0>         0.0000
     35 H7         -1.6585    0.8721    2.2370 H         1 <0>         0.0000
     36 H8         -0.6393    2.3306    2.1408 H         1 <0>         0.0000
     37 H9         -5.3638   -1.2262   -5.0849 H         1 <0>         0.0000
     38 H10        -7.0403   -1.7977   -5.1426 H         1 <0>         0.0000
     39 H11        -5.7524   -2.9197   -4.6717 H         1 <0>         0.0000
     40 H12        -0.3840    1.4904   -3.3111 H         1 <0>         0.0000
     41 H13        -1.4403    2.8624   -3.7047 H         1 <0>         0.0000
     42 H14        -2.0113    1.2073   -3.9658 H         1 <0>         0.0000
     43 H15         0.3354   -4.8168   -2.8479 H         1 <0>         0.0000
     44 H16        -1.1828   -5.3861   -3.5997 H         1 <0>         0.0000
     45 H17        -0.4084   -6.3479   -2.3059 H         1 <0>         0.0000
     46 H18        -3.0298    2.1805   -1.9086 H         1 <0>         0.0000
     47 H19        -1.4321    2.4961   -1.2356 H         1 <0>         0.0000
     48 H20         1.1308    0.1231   -0.3106 H         1 <0>         0.0000
     49 H21         0.2480    1.6516   -0.2760 H         1 <0>         0.0000
     50 H22        -4.2134   -4.6068   -0.0728 H         1 <0>         0.0000
     51 H23        -2.6505   -3.9742    0.4780 H         1 <0>         0.0000
     52 H24        -3.1841   -5.2652   -2.2492 H         1 <0>         0.0000
     53 H25        -2.4534   -6.0921   -0.8508 H         1 <0>         0.0000
     54 H26         1.9836    0.4338    4.1531 H         1 <0>         0.0000
@<TRIPOS>BOND
     1    1    2 1
     2    1    5 2
     3    1    4 1
     4    2    3 2
     5    2   16 1
     6    3   17 1
     7    3   28 1
     8    4   20 am
     9    4   24 2
    10    5   21 1
    11    5   28 1
    12    6   21 am
    13    6   20 am
    14    6   25 2
    15    7   22 am
    16    7   23 am
    17    7   26 2
    18    8    9 1
    19    8   12 1
    20    8   29 1
    21    8   30 1
    22    9   12 1
    23    9   31 1
    24    9   32 1
    25   10   11 1
    26   10   22 1
    27   10   33 1
    28   10   34 1
    29   11   23 1
    30   11   35 1
    31   11   36 1
    32   12   13 1
    33   12   20 1
    34   13   37 1
    35   13   38 1
    36   13   39 1
    37   14   16 1
    38   14   40 1
    39   14   41 1
    40   14   42 1
    41   15   27 1
    42   15   43 1
    43   15   44 1
    44   15   45 1
    45   16   46 1
    46   16   47 1
    47   17   23 1
    48   17   48 1
    49   17   49 1
    50   18   19 1
    51   18   21 1
    52   18   50 1
    53   18   51 1
    54   19   27 1
    55   19   52 1
    56   19   53 1
    57   22   54 1
