@<TRIPOS>MOLECULE
*****
   44    47     0     0     0
SMALL
NO_CHARGES

@<TRIPOS>ATOM
      1 C1         -1.8606    0.0392    2.0360 C.1       1 <0>         0.0000
      2 C2          1.8435    2.0317   -1.4739 C.ar      1 <0>         0.0000
      3 C3          1.6199    0.6463   -1.2842 C.ar      1 <0>         0.0000
      4 C4          0.8121    2.9750   -1.4219 C.ar      1 <0>         0.0000
      5 C5         -0.7082    1.0978   -1.0897 C.ar      1 <0>         0.0000
      6 C6          0.3291    0.1612   -1.0854 C.ar      1 <0>         0.0000
      7 C7         -2.0884    0.8815   -0.8025 C.2       1 <0>         0.0000
      8 C8         -0.4826    2.4882   -1.1988 C.ar      1 <0>         0.0000
      9 C9         -2.6765    2.1210   -0.7001 C.2       1 <0>         0.0000
     10 C10         1.0111   -2.0027    0.0104 C.2       1 <0>         0.0000
     11 C11         0.9913   -2.1617    1.3391 C.2       1 <0>         0.0000
     12 C12         3.5766   -2.6326    3.8614 C.2       1 <0>         0.0000
     13 C13        -2.5477   -0.5243   -0.5599 C.3       1 <0>         0.0000
     14 C14        -0.1047   -1.6049    2.2125 C.3       1 <0>         0.0000
     15 C15        -0.0694   -1.2776   -0.7542 C.3       1 <0>         0.0000
     16 C16        -1.3913   -1.3291    0.0631 C.3       1 <0>         0.0000
     17 C17         4.1640   -1.6206    4.8143 C.3       1 <0>         0.0000
     18 C18        -4.0224    2.5105   -0.1741 C.3       1 <0>         0.0000
     19 C19         2.0521   -2.9376    2.0602 C.3       1 <0>         0.0000
     20 N1         -2.5539    0.8418    2.5354 N.1       1 <0>         0.0000
     21 N2         -1.7133    3.0957   -0.9945 N.pl3     1 <0>         0.0000
     22 N3         -1.0882   -0.8509    1.4313 N.3       1 <0>         0.0000
     23 O1          3.8614   -3.8130    3.8133 O.2       1 <0>         0.0000
     24 O2         -3.9241    3.1707    1.0900 O.3       1 <0>         0.0000
     25 O3          2.6693   -2.0508    3.0334 O.3       1 <0>         0.0000
     26 H1          2.8613    2.3784   -1.6326 H         1 <0>         0.0000
     27 H2          2.4752   -0.0235   -1.2650 H         1 <0>         0.0000
     28 H3          1.0236    4.0363   -1.5228 H         1 <0>         0.0000
     29 H4          1.8460   -2.4059   -0.5594 H         1 <0>         0.0000
     30 H5         -3.4302   -0.5782    0.0844 H         1 <0>         0.0000
     31 H6         -2.8129   -1.0226   -1.5010 H         1 <0>         0.0000
     32 H7         -0.5923   -2.4275    2.7603 H         1 <0>         0.0000
     33 H8          0.3327   -0.9362    2.9593 H         1 <0>         0.0000
     34 H9         -0.2571   -1.8245   -1.6889 H         1 <0>         0.0000
     35 H10        -1.6956   -2.3817    0.1357 H         1 <0>         0.0000
     36 H11         4.6921   -0.8456    4.2510 H         1 <0>         0.0000
     37 H12         4.8537   -2.1199    5.4940 H         1 <0>         0.0000
     38 H13         3.3680   -1.1284    5.3801 H         1 <0>         0.0000
     39 H14        -4.5235    3.2203   -0.8407 H         1 <0>         0.0000
     40 H15        -4.6517    1.6130   -0.1125 H         1 <0>         0.0000
     41 H16         2.8169   -3.3057    1.3726 H         1 <0>         0.0000
     42 H17         1.6364   -3.7973    2.5967 H         1 <0>         0.0000
     43 H18        -1.8483    4.0745   -0.7793 H         1 <0>         0.0000
     44 H19        -3.4998    2.5476    1.7145 H         1 <0>         0.0000
@<TRIPOS>BOND
     1    1   20 3
     2    1   22 1
     3    2    3 ar
     4    2    4 ar
     5    2   26 1
     6    3    6 ar
     7    3   27 1
     8    4    8 ar
     9    4   28 1
    10    5    6 ar
    11    5    7 1
    12    5    8 ar
    13    6   15 1
    14    7    9 2
    15    7   13 1
    16    8   21 1
    17    9   18 1
    18    9   21 1
    19   10   11 2
    20   10   15 1
    21   10   29 1
    22   11   14 1
    23   11   19 1
    24   12   17 1
    25   12   23 2
    26   12   25 1
    27   13   16 1
    28   13   30 1
    29   13   31 1
    30   14   22 1
    31   14   32 1
    32   14   33 1
    33   15   16 1
    34   15   34 1
    35   16   22 1
    36   16   35 1
    37   17   36 1
    38   17   37 1
    39   17   38 1
    40   18   24 1
    41   18   39 1
    42   18   40 1
    43   19   25 1
    44   19   41 1
    45   19   42 1
    46   21   43 1
    47   24   44 1
