@<TRIPOS>MOLECULE
*****
   42    42     0     0     0
SMALL
NO_CHARGES

@<TRIPOS>ATOM
      1 C1         -0.5943   -1.3610   -0.6973 C.3       1 <0>         0.0000
      2 C2         -0.2803   -2.6363    0.0953 C.3       1 <0>         0.0000
      3 C3         -1.4492   -0.5318    0.2664 C.3       1 <0>         0.0000
      4 C4          0.0277   -2.1301    1.5044 C.3       1 <0>         0.0000
      5 C5         -0.1124   -3.1209    2.6538 C.3       1 <0>         0.0000
      6 C6          0.1641   -2.4842    4.0216 C.3       1 <0>         0.0000
      7 C7         -0.3250   -3.9902   10.5513 C.3       1 <0>         0.0000
      8 C8         -0.1707   -2.9738    9.4119 C.3       1 <0>         0.0000
      9 C9         -0.3192   -3.3012   11.9203 C.3       1 <0>         0.0000
     10 C10         0.0202   -3.4686    5.1843 C.3       1 <0>         0.0000
     11 C11        -0.1662   -3.6834    8.0552 C.3       1 <0>         0.0000
     12 C12        -0.4831   -4.2796   13.0644 C.3       1 <0>         0.0000
     13 N1         -0.9667   -0.9506    1.6644 N.4       1 <0>         0.0000
     14 O1         -1.2033   -1.6395    6.6534 O.2       1 <0>         0.0000
     15 O2          1.3370   -1.8301    6.8209 O.2       1 <0>         0.0000
     16 F1         -0.4656   -3.6482   14.2604 F         1 <0>         0.0000
     17 F2          0.5099   -5.2063   13.0819 F         1 <0>         0.0000
     18 F3         -1.6572   -4.9588   12.9835 F         1 <0>         0.0000
     19 S1          0.0152   -2.4718    6.7187 S.o2      1 <0>         0.0000
     20 H1          0.3263   -0.8271   -0.9502 H         1 <0>         0.0000
     21 H2         -1.1330   -1.5567   -1.6260 H         1 <0>         0.0000
     22 H3         -1.1426   -3.3123    0.1132 H         1 <0>         0.0000
     23 H4          0.5695   -3.1883   -0.3108 H         1 <0>         0.0000
     24 H5         -1.3387    0.5474    0.1658 H         1 <0>         0.0000
     25 H6         -2.5071   -0.7889    0.2066 H         1 <0>         0.0000
     26 H7          1.0160   -1.6618    1.5235 H         1 <0>         0.0000
     27 H8         -1.1149   -3.5689    2.6280 H         1 <0>         0.0000
     28 H9          0.5934   -3.9357    2.4599 H         1 <0>         0.0000
     29 H10        -0.5385   -1.6616    4.2036 H         1 <0>         0.0000
     30 H11         1.1707   -2.0548    4.0422 H         1 <0>         0.0000
     31 H12         0.4902   -4.7206   10.5101 H         1 <0>         0.0000
     32 H13        -1.2607   -4.5462   10.4284 H         1 <0>         0.0000
     33 H14        -0.9918   -2.2507    9.4395 H         1 <0>         0.0000
     34 H15         0.7632   -2.4153    9.5293 H         1 <0>         0.0000
     35 H16         0.6203   -2.7657   12.0862 H         1 <0>         0.0000
     36 H17        -1.1333   -2.5746   11.9988 H         1 <0>         0.0000
     37 H18        -0.9293   -4.0104    5.1503 H         1 <0>         0.0000
     38 H19         0.8530   -4.1747    5.2339 H         1 <0>         0.0000
     39 H20         0.6767   -4.3751    7.9633 H         1 <0>         0.0000
     40 H21        -1.1044   -4.2149    7.8703 H         1 <0>         0.0000
     41 H22        -0.5271   -0.1709    2.1617 H         1 <0>         0.0000
     42 H23        -1.7606   -1.2398    2.2445 H         1 <0>         0.0000
@<TRIPOS>BOND
     1    1    2 1
     2    1    3 1
     3    1   20 1
     4    1   21 1
     5    2    4 1
     6    2   22 1
     7    2   23 1
     8    3   13 1
     9    3   24 1
    10    3   25 1
    11    4    5 1
    12    4   13 1
    13    4   26 1
    14    5    6 1
    15    5   27 1
    16    5   28 1
    17    6   10 1
    18    6   29 1
    19    6   30 1
    20    7    8 1
    21    7    9 1
    22    7   31 1
    23    7   32 1
    24    8   11 1
    25    8   33 1
    26    8   34 1
    27    9   12 1
    28    9   35 1
    29    9   36 1
    30   10   19 1
    31   10   37 1
    32   10   38 1
    33   11   19 1
    34   11   39 1
    35   11   40 1
    36   12   16 1
    37   12   17 1
    38   12   18 1
    39   13   41 1
    40   13   42 1
    41   14   19 2
    42   15   19 2
