@<TRIPOS>MOLECULE
*****
   25    26     0     0     0
SMALL
NO_CHARGES

@<TRIPOS>ATOM
      1 C1          2.2363    0.0027   -1.4772 C.ar      1 <0>         0.0000
      2 C2          1.5815    0.2454   -2.6875 C.ar      1 <0>         0.0000
      3 C3          1.9245    0.7707   -0.3362 C.ar      1 <0>         0.0000
      4 C4          0.6379    1.2682   -2.6583 C.ar      1 <0>         0.0000
      5 C5          0.3884    1.9935   -1.4566 C.ar      1 <0>         0.0000
      6 C6         -0.9122    2.8251   -2.9436 C.2       1 <0>         0.0000
      7 C7         -1.9408    3.6446   -3.6618 C.3       1 <0>         0.0000
      8 C8         -2.8678    3.4125   -7.2255 C.3       1 <0>         0.0000
      9 C9         -2.9206    3.9558   -5.8004 C.3       1 <0>         0.0000
     10 N1          1.0194    1.7557   -0.3014 N.ar      1 <0>         0.0000
     11 N2         -0.5873    2.9589   -1.6782 N.2       1 <0>         0.0000
     12 N3         -0.2165    1.8288   -3.5925 N.pl3     1 <0>         0.0000
     13 O1         -3.8220    4.0599   -8.0660 O.3       1 <0>         0.0000
     14 O2         -1.9612    3.2439   -5.0251 O.3       1 <0>         0.0000
     15 H1          2.9885   -0.7772   -1.4047 H         1 <0>         0.0000
     16 H2          1.8005   -0.3302   -3.5832 H         1 <0>         0.0000
     17 H3          2.4436    0.5687    0.5994 H         1 <0>         0.0000
     18 H4         -2.9238    3.4913   -3.1935 H         1 <0>         0.0000
     19 H5         -1.6890    4.7105   -3.5662 H         1 <0>         0.0000
     20 H6         -3.1339    2.3527   -7.2244 H         1 <0>         0.0000
     21 H7         -1.8470    3.5052   -7.6208 H         1 <0>         0.0000
     22 H8         -3.9302    3.8232   -5.3868 H         1 <0>         0.0000
     23 H9         -2.6880    5.0334   -5.7908 H         1 <0>         0.0000
     24 H10        -0.3383    1.5955   -4.5695 H         1 <0>         0.0000
     25 H11        -3.5242    4.9683   -8.2285 H         1 <0>         0.0000
@<TRIPOS>BOND
     1    1    2 ar
     2    1    3 ar
     3    1   15 1
     4    2    4 ar
     5    2   16 1
     6    3   10 ar
     7    3   17 1
     8    4    5 ar
     9    4   12 1
    10    5   10 ar
    11    5   11 1
    12    6    7 1
    13    6   11 2
    14    6   12 1
    15    7   14 1
    16    7   18 1
    17    7   19 1
    18    8    9 1
    19    8   13 1
    20    8   20 1
    21    8   21 1
    22    9   14 1
    23    9   22 1
    24    9   23 1
    25   12   24 1
    26   13   25 1
