@<TRIPOS>MOLECULE
*****
   25    26     0     0     0
SMALL
NO_CHARGES

@<TRIPOS>ATOM
      1 C1          2.0397    0.3615   -0.5148 C.ar      1 <0>         0.0000
      2 C2          0.6727    0.6480   -0.4735 C.ar      1 <0>         0.0000
      3 C3          2.8197    0.7834   -1.6115 C.ar      1 <0>         0.0000
      4 C4          0.1806    1.3557   -1.5663 C.ar      1 <0>         0.0000
      5 C5          1.0448    1.7410   -2.6326 C.ar      1 <0>         0.0000
      6 C6         -0.9069    2.4604   -3.1490 C.2       1 <0>         0.0000
      7 C7         -2.0645    3.1128   -3.8413 C.3       1 <0>         0.0000
      8 C8         -5.5976    3.0695   -2.7787 C.3       1 <0>         0.0000
      9 C9         -4.4091    3.4297   -3.6657 C.3       1 <0>         0.0000
     10 N1          2.3529    1.4633   -2.6652 N.ar      1 <0>         0.0000
     11 N2          0.3250    2.4287   -3.6030 N.2       1 <0>         0.0000
     12 N3         -1.0653    1.8377   -1.9304 N.pl3     1 <0>         0.0000
     13 O1         -6.8033    3.6656   -3.2556 O.3       1 <0>         0.0000
     14 O2         -3.2463    2.8282   -3.1049 O.3       1 <0>         0.0000
     15 H1          2.5122   -0.1864    0.2950 H         1 <0>         0.0000
     16 H2          0.0465    0.3362    0.3586 H         1 <0>         0.0000
     17 H3          3.8836    0.5523   -1.6282 H         1 <0>         0.0000
     18 H4         -1.8932    4.1977   -3.8999 H         1 <0>         0.0000
     19 H5         -2.1353    2.7307   -4.8694 H         1 <0>         0.0000
     20 H6         -5.4391    3.4674   -1.7735 H         1 <0>         0.0000
     21 H7         -5.6858    1.9773   -2.7009 H         1 <0>         0.0000
     22 H8         -4.2967    4.5220   -3.7147 H         1 <0>         0.0000
     23 H9         -4.5681    3.0578   -4.6911 H         1 <0>         0.0000
     24 H10        -1.9500    1.7535   -1.4466 H         1 <0>         0.0000
     25 H11        -7.0707    3.2122   -4.0699 H         1 <0>         0.0000
@<TRIPOS>BOND
     1    1    2 ar
     2    1    3 ar
     3    1   15 1
     4    2    4 ar
     5    2   16 1
     6    3   10 ar
     7    3   17 1
     8    4    5 ar
     9    4   12 1
    10    5   10 ar
    11    5   11 1
    12    6    7 1
    13    6   11 2
    14    6   12 1
    15    7   14 1
    16    7   18 1
    17    7   19 1
    18    8    9 1
    19    8   13 1
    20    8   20 1
    21    8   21 1
    22    9   14 1
    23    9   22 1
    24    9   23 1
    25   12   24 1
    26   13   25 1
