@<TRIPOS>MOLECULE
*****
   20    19     0     0     0
SMALL
NO_CHARGES

@<TRIPOS>ATOM
      1 C1         -1.4753   -1.6377   -0.5749 C.2       1 <0>         0.0000
      2 C2         -1.3808   -3.1353   -0.6734 C.3       1 <0>         0.0000
      3 C3          1.0490    0.9018   -1.6562 C.3       1 <0>         0.0000
      4 C4          1.3123    2.7098    2.0729 C.3       1 <0>         0.0000
      5 N1         -0.5033   -1.1007    0.2501 N.am      1 <0>         0.0000
      6 O1         -2.3306   -0.9931   -1.1753 O.2       1 <0>         0.0000
      7 O2         -1.6237    1.1539    1.1738 O.2       1 <0>         0.0000
      8 O3         -0.0982    1.2644   -0.9077 O.3       1 <0>         0.0000
      9 P1         -0.3749    0.5881    0.5456 P.3       1 <0>         0.0000
     10 S1          1.2621    0.9238    1.8253 S.3       1 <0>         0.0000
     11 H1         -1.9903   -3.5971    0.1084 H         1 <0>         0.0000
     12 H2         -0.3412   -3.4490   -0.5453 H         1 <0>         0.0000
     13 H3         -1.7331   -3.4657   -1.6545 H         1 <0>         0.0000
     14 H4          1.0617    1.4574   -2.5971 H         1 <0>         0.0000
     15 H5          1.0306   -0.1727   -1.8554 H         1 <0>         0.0000
     16 H6          1.9429    1.1479   -1.0782 H         1 <0>         0.0000
     17 H7          2.1431    2.9705    2.7331 H         1 <0>         0.0000
     18 H8          0.3772    3.0480    2.5264 H         1 <0>         0.0000
     19 H9          1.4468    3.2140    1.1129 H         1 <0>         0.0000
     20 H10         0.1594   -1.7277    0.6981 H         1 <0>         0.0000
@<TRIPOS>BOND
     1    1    2 1
     2    1    5 am
     3    1    6 2
     4    2   11 1
     5    2   12 1
     6    2   13 1
     7    3    8 1
     8    3   14 1
     9    3   15 1
    10    3   16 1
    11    4   10 1
    12    4   17 1
    13    4   18 1
    14    4   19 1
    15    5    9 1
    16    5   20 1
    17    7    9 2
    18    8    9 1
    19    9   10 1
