@<TRIPOS>MOLECULE
*****
   32    34     0     0     0
SMALL
NO_CHARGES

@<TRIPOS>ATOM
      1 C1          6.0163   -2.7432    4.9470 C.1       1 <0>         0.0000
      2 C2          7.0564    3.7793    4.0509 C.ar      1 <0>         0.0000
      3 C3          7.9014    4.6059    3.3056 C.ar      1 <0>         0.0000
      4 C4          7.1728   -7.7693    3.9095 C.2       1 <0>         0.0000
      5 C5          7.1791    2.3968    3.9383 C.ar      1 <0>         0.0000
      6 C6          8.8565    4.0387    2.4587 C.ar      1 <0>         0.0000
      7 C7          7.7362   -6.5689    3.4159 C.2       1 <0>         0.0000
      8 C8          6.1554   -7.5312    4.8087 C.2       1 <0>         0.0000
      9 C9          8.1406    1.8209    3.0858 C.ar      1 <0>         0.0000
     10 C10         9.0022    2.6505    2.3258 C.ar      1 <0>         0.0000
     11 C11         7.1462   -5.4214    3.9406 C.2       1 <0>         0.0000
     12 C12         8.1843    0.3503    3.0424 C.2       1 <0>         0.0000
     13 C13         7.6591   -1.6411    3.4998 C.2       1 <0>         0.0000
     14 C14         7.5535   -4.0969    3.5851 C.2       1 <0>         0.0000
     15 C15         7.0839   -2.8815    4.0038 C.2       1 <0>         0.0000
     16 C16        10.0573    2.1128    1.3906 C.3       1 <0>         0.0000
     17 N1          5.1451   -2.6597    5.7168 N.1       1 <0>         0.0000
     18 N2          7.3176   -0.4215    3.8052 N.2       1 <0>         0.0000
     19 N3          9.0168   -0.3649    2.3050 N.2       1 <0>         0.0000
     20 O1          8.6704   -1.7027    2.6065 O.3       1 <0>         0.0000
     21 S1          5.8699   -5.8520    5.0662 S.3       1 <0>         0.0000
     22 H1          6.3089    4.2064    4.7137 H         1 <0>         0.0000
     23 H2          7.8193    5.6872    3.3814 H         1 <0>         0.0000
     24 H3          7.4963   -8.7632    3.6206 H         1 <0>         0.0000
     25 H4          6.5324    1.7391    4.5085 H         1 <0>         0.0000
     26 H5          9.5101    4.6887    1.8822 H         1 <0>         0.0000
     27 H6          8.5493   -6.5248    2.6980 H         1 <0>         0.0000
     28 H7          5.5543   -8.2611    5.3371 H         1 <0>         0.0000
     29 H8          8.3685   -4.0647    2.8655 H         1 <0>         0.0000
     30 H9         10.7771    1.4802    1.9184 H         1 <0>         0.0000
     31 H10         9.6191    1.4851    0.6091 H         1 <0>         0.0000
     32 H11        10.5976    2.9359    0.9158 H         1 <0>         0.0000
@<TRIPOS>BOND
     1    1   15 1
     2    1   17 3
     3    2    3 ar
     4    2    5 ar
     5    2   22 1
     6    3    6 ar
     7    3   23 1
     8    4    7 1
     9    4    8 2
    10    4   24 1
    11    5    9 ar
    12    5   25 1
    13    6   10 ar
    14    6   26 1
    15    7   11 2
    16    7   27 1
    17    8   21 1
    18    8   28 1
    19    9   10 ar
    20    9   12 1
    21   10   16 1
    22   11   14 1
    23   11   21 1
    24   12   18 1
    25   12   19 2
    26   13   15 1
    27   13   18 2
    28   13   20 1
    29   14   15 2
    30   14   29 1
    31   16   30 1
    32   16   31 1
    33   16   32 1
    34   19   20 1
