@<TRIPOS>MOLECULE
*****
   41    42     0     0     0
SMALL
NO_CHARGES

@<TRIPOS>ATOM
      1 C1         -1.2108   -3.9372   -0.8036 C.ar      1 <0>         0.0000
      2 C2         -2.4386   -4.5512   -1.0730 C.ar      1 <0>         0.0000
      3 C3         -2.3779   -1.9404   -0.1245 C.ar      1 <0>         0.0000
      4 C4         -1.1673   -2.6245   -0.3242 C.ar      1 <0>         0.0000
      5 C5         -3.6394   -3.8742   -0.8789 C.ar      1 <0>         0.0000
      6 C6         -3.6105   -2.5433   -0.4025 C.ar      1 <0>         0.0000
      7 C7          1.6509   -0.0843   -0.3520 C.2       1 <0>         0.0000
      8 C8         -6.2660   -0.1323    0.3323 C.2       1 <0>         0.0000
      9 C9         -6.9231    0.7435   -0.4474 C.2       1 <0>         0.0000
     10 C10         0.1895   -0.4223   -0.0556 C.3       1 <0>         0.0000
     11 C11         1.3369   -2.3752   -0.8944 C.3       1 <0>         0.0000
     12 C12         0.1522   -1.9607    0.0154 C.3       1 <0>         0.0000
     13 C13        -8.3671    1.0862   -0.1689 C.3       1 <0>         0.0000
     14 C14        -6.3334    1.4543   -1.6408 C.3       1 <0>         0.0000
     15 C15        -5.7181   -4.7643   -0.1381 C.3       1 <0>         0.0000
     16 C16        -4.8375   -0.5601    0.1975 C.3       1 <0>         0.0000
     17 N1          2.2582   -1.2558   -0.7326 N.am      1 <0>         0.0000
     18 O1          2.1841    1.0155   -0.2852 O.2       1 <0>         0.0000
     19 O2         -4.8165   -4.4989   -1.2229 O.3       1 <0>         0.0000
     20 O3         -4.8219   -1.9255   -0.2634 O.3       1 <0>         0.0000
     21 H1         -0.2936   -4.4962   -0.9671 H         1 <0>         0.0000
     22 H2         -2.4858   -5.5689   -1.4507 H         1 <0>         0.0000
     23 H3         -2.3520   -0.9218    0.2419 H         1 <0>         0.0000
     24 H4         -6.8075   -0.6017    1.1529 H         1 <0>         0.0000
     25 H5         -0.1402    0.0832    0.8539 H         1 <0>         0.0000
     26 H6         -0.4111   -0.0413   -0.8901 H         1 <0>         0.0000
     27 H7          1.7996   -3.3143   -0.5777 H         1 <0>         0.0000
     28 H8          1.0090   -2.4853   -1.9372 H         1 <0>         0.0000
     29 H9          0.4282   -2.2455    1.0391 H         1 <0>         0.0000
     30 H10        -8.4862    2.1643   -0.0018 H         1 <0>         0.0000
     31 H11        -8.9977    0.8299   -1.0295 H         1 <0>         0.0000
     32 H12        -8.7519    0.5589    0.7079 H         1 <0>         0.0000
     33 H13        -6.9521    1.2705   -2.5274 H         1 <0>         0.0000
     34 H14        -6.3312    2.5395   -1.4790 H         1 <0>         0.0000
     35 H15        -5.3147    1.1440   -1.8770 H         1 <0>         0.0000
     36 H16        -6.5486   -5.3272   -0.5690 H         1 <0>         0.0000
     37 H17        -6.0906   -3.8370    0.3051 H         1 <0>         0.0000
     38 H18        -5.2244   -5.3732    0.6301 H         1 <0>         0.0000
     39 H19        -4.3372   -0.5077    1.1741 H         1 <0>         0.0000
     40 H20        -4.2776    0.0670   -0.5030 H         1 <0>         0.0000
     41 H21         3.1812   -1.2296   -1.1490 H         1 <0>         0.0000
@<TRIPOS>BOND
     1    1    2 ar
     2    1    4 ar
     3    1   21 1
     4    2    5 ar
     5    2   22 1
     6    3    4 ar
     7    3    6 ar
     8    3   23 1
     9    4   12 1
    10    5    6 ar
    11    5   19 1
    12    6   20 1
    13    7   10 1
    14    7   17 am
    15    7   18 2
    16    8    9 2
    17    8   16 1
    18    8   24 1
    19    9   13 1
    20    9   14 1
    21   10   12 1
    22   10   25 1
    23   10   26 1
    24   11   12 1
    25   11   17 1
    26   11   27 1
    27   11   28 1
    28   12   29 1
    29   13   30 1
    30   13   31 1
    31   13   32 1
    32   14   33 1
    33   14   34 1
    34   14   35 1
    35   15   19 1
    36   15   36 1
    37   15   37 1
    38   15   38 1
    39   16   20 1
    40   16   39 1
    41   16   40 1
    42   17   41 1
