@<TRIPOS>MOLECULE
*****
   49    53     0     0     0
SMALL
NO_CHARGES

@<TRIPOS>ATOM
      1 C1         -2.0732    4.7448    2.7998 C.ar      1 <0>         0.0000
      2 C2          1.5943   -1.2307   -0.2735 C.ar      1 <0>         0.0000
      3 C3         -2.3910    3.4052    2.5810 C.ar      1 <0>         0.0000
      4 C4          0.4886   -0.6798    0.3728 C.ar      1 <0>         0.0000
      5 C5         -1.5792    5.1696    4.0391 C.ar      1 <0>         0.0000
      6 C6          3.6841   -3.0728   -1.4532 C.ar      1 <0>         0.0000
      7 C7          1.6717   -0.9853    2.4661 C.ar      1 <0>         0.0000
      8 C8          5.1814   -1.6419   -0.2681 C.ar      1 <0>         0.0000
      9 C9         -1.7059    2.8721    4.8390 C.ar      1 <0>         0.0000
     10 C10         4.7668   -3.4435   -2.2519 C.ar      1 <0>         0.0000
     11 C11         2.7479   -1.6596    0.4040 C.ar      1 <0>         0.0000
     12 C12         3.8831   -2.1439   -0.4224 C.ar      1 <0>         0.0000
     13 C13         2.7824   -1.5563    1.8201 C.ar      1 <0>         0.0000
     14 C14        -2.2139    2.4564    3.6023 C.ar      1 <0>         0.0000
     15 C15         0.5445   -0.5485    1.7682 C.ar      1 <0>         0.0000
     16 C16        -1.4037    4.2200    5.0439 C.ar      1 <0>         0.0000
     17 C17         6.2085   -2.0742   -1.1101 C.ar      1 <0>         0.0000
     18 C18         3.8710   -2.0375    2.6780 C.2       1 <0>         0.0000
     19 C19        -1.7420    0.4372    2.1628 C.2       1 <0>         0.0000
     20 C20        -2.9789    0.0833    4.4347 C.3       1 <0>         0.0000
     21 C21        -3.9876    0.5710    3.4149 C.3       1 <0>         0.0000
     22 C22        -2.5500    1.0190    3.3236 C.3       1 <0>         0.0000
     23 C23         7.6248   -1.5908   -0.9128 C.3       1 <0>         0.0000
     24 N1          4.0098   -1.6285    3.9608 N.2       1 <0>         0.0000
     25 N2          6.0086   -2.9652   -2.1030 N.ar      1 <0>         0.0000
     26 N3          4.8019   -2.9565    2.3477 N.2       1 <0>         0.0000
     27 N4          5.0649   -2.3130    4.4231 N.2       1 <0>         0.0000
     28 N5          5.5359   -3.1114    3.4606 N.2       1 <0>         0.0000
     29 N6         -0.5049    0.0115    2.5432 N.am      1 <0>         0.0000
     30 O1         -2.1880    0.4060    1.0147 O.2       1 <0>         0.0000
     31 Cl1        -0.7800    4.7284    6.6108 Cl        1 <0>         0.0000
     32 H1         -2.2078    5.4720    2.0033 H         1 <0>         0.0000
     33 H2          1.5780   -1.3000   -1.3583 H         1 <0>         0.0000
     34 H3         -2.7674    3.0760    1.6167 H         1 <0>         0.0000
     35 H4         -0.3827   -0.3521   -0.1772 H         1 <0>         0.0000
     36 H5         -1.3314    6.2109    4.2190 H         1 <0>         0.0000
     37 H6          2.7070   -3.5197   -1.6164 H         1 <0>         0.0000
     38 H7          1.7188   -0.9086    3.5497 H         1 <0>         0.0000
     39 H8          5.3962   -0.9318    0.5228 H         1 <0>         0.0000
     40 H9         -1.5383    2.1567    5.6374 H         1 <0>         0.0000
     41 H10         4.6279   -4.1692   -3.0542 H         1 <0>         0.0000
     42 H11        -3.0493    0.4742    5.4456 H         1 <0>         0.0000
     43 H12        -2.6563   -0.9521    4.3739 H         1 <0>         0.0000
     44 H13        -4.3328   -0.1202    2.6526 H         1 <0>         0.0000
     45 H14        -4.7161    1.3085    3.7385 H         1 <0>         0.0000
     46 H15         8.1860   -2.3219   -0.3185 H         1 <0>         0.0000
     47 H16         8.1302   -1.4834   -1.8768 H         1 <0>         0.0000
     48 H17         7.6548   -0.6374   -0.3776 H         1 <0>         0.0000
     49 H18        -0.2981    0.0979    3.5312 H         1 <0>         0.0000
@<TRIPOS>BOND
     1    1    3 ar
     2    1    5 ar
     3    1   32 1
     4    2    4 ar
     5    2   11 ar
     6    2   33 1
     7    3   14 ar
     8    3   34 1
     9    4   15 ar
    10    4   35 1
    11    5   16 ar
    12    5   36 1
    13    6   10 ar
    14    6   12 ar
    15    6   37 1
    16    7   13 ar
    17    7   15 ar
    18    7   38 1
    19    8   12 ar
    20    8   17 ar
    21    8   39 1
    22    9   14 ar
    23    9   16 ar
    24    9   40 1
    25   10   25 ar
    26   10   41 1
    27   11   12 1
    28   11   13 ar
    29   13   18 1
    30   14   22 1
    31   15   29 1
    32   16   31 1
    33   17   23 1
    34   17   25 ar
    35   18   24 1
    36   18   26 2
    37   19   22 1
    38   19   29 am
    39   19   30 2
    40   20   21 1
    41   20   22 1
    42   20   42 1
    43   20   43 1
    44   21   22 1
    45   21   44 1
    46   21   45 1
    47   23   46 1
    48   23   47 1
    49   23   48 1
    50   24   27 1
    51   26   28 1
    52   27   28 2
    53   29   49 1
