@<TRIPOS>MOLECULE
*****
   50    53     0     0     0
SMALL
NO_CHARGES

@<TRIPOS>ATOM
      1 C1          2.0721    2.0798   -4.1271 C.ar      1 <0>         0.0000
      2 C2          2.4364   -0.5508    0.1942 C.ar      1 <0>         0.0000
      3 C3          2.2734    2.3544   -5.4801 C.ar      1 <0>         0.0000
      4 C4          2.6169   -1.9310    0.2284 C.ar      1 <0>         0.0000
      5 C5          4.7687    4.9747   -5.5356 C.2       1 <0>         0.0000
      6 C6          3.7190    3.7529   -3.4502 C.ar      1 <0>         0.0000
      7 C7          4.4972    4.7644   -6.8503 C.2       1 <0>         0.0000
      8 C8          3.9261    4.0552   -4.8016 C.ar      1 <0>         0.0000
      9 C9          2.7788    2.7734   -3.1161 C.ar      1 <0>         0.0000
     10 C10         1.1506    0.0062    0.1439 C.ar      1 <0>         0.0000
     11 C11        -0.0039   -0.8002    0.1243 C.ar      1 <0>         0.0000
     12 C12         3.1965    3.3499   -5.7813 C.ar      1 <0>         0.0000
     13 C13         0.1890   -2.1969    0.1773 C.ar      1 <0>         0.0000
     14 C14         1.4813   -2.7201    0.2203 C.ar      1 <0>         0.0000
     15 C15         2.5905    2.4857   -1.6556 C.2       1 <0>         0.0000
     16 C16        -1.4069    1.3192   -0.0962 C.3       1 <0>         0.0000
     17 C17         1.0889    1.5228    0.0608 C.3       1 <0>         0.0000
     18 C18        -1.4236   -0.2172    0.1035 C.3       1 <0>         0.0000
     19 C19        -0.2525    2.0524    0.5892 C.3       1 <0>         0.0000
     20 C20        -2.1413   -0.5705    1.4297 C.3       1 <0>         0.0000
     21 C21        -2.2434   -0.7845   -1.0806 C.3       1 <0>         0.0000
     22 C22        -0.3923    3.5786    0.3682 C.3       1 <0>         0.0000
     23 N1          1.3656    1.9813   -1.2960 N.am      1 <0>         0.0000
     24 O1          3.4760    2.7116   -0.8289 O.2       1 <0>         0.0000
     25 O2          3.5446    3.7813   -7.0354 O.3       1 <0>         0.0000
     26 O3         -0.8790   -3.0609    0.1999 O.3       1 <0>         0.0000
     27 O4         -0.2022    1.8383    1.9948 O.3       1 <0>         0.0000
     28 F1          1.5856   -4.0871    0.2694 F         1 <0>         0.0000
     29 F2         -1.4330    4.0473    1.1204 F         1 <0>         0.0000
     30 F3          0.7052    4.2565    0.7420 F         1 <0>         0.0000
     31 F4         -0.6708    3.9132   -0.9145 F         1 <0>         0.0000
     32 H1          1.3878    1.2772   -3.8658 H         1 <0>         0.0000
     33 H2          3.2979    0.1101    0.2032 H         1 <0>         0.0000
     34 H3          1.7471    1.8127   -6.2596 H         1 <0>         0.0000
     35 H4          3.5999   -2.3894    0.2701 H         1 <0>         0.0000
     36 H5          5.4757    5.6890   -5.1351 H         1 <0>         0.0000
     37 H6          4.2649    4.2516   -2.6557 H         1 <0>         0.0000
     38 H7          4.8766    5.2102   -7.7593 H         1 <0>         0.0000
     39 H8         -1.3556    1.5425   -1.1667 H         1 <0>         0.0000
     40 H9         -2.3655    1.7271    0.2427 H         1 <0>         0.0000
     41 H10         1.8793    1.9465    0.6803 H         1 <0>         0.0000
     42 H11        -3.1370   -0.1118    1.4506 H         1 <0>         0.0000
     43 H12        -1.5708   -0.2154    2.2903 H         1 <0>         0.0000
     44 H13        -2.2665   -1.6502    1.5250 H         1 <0>         0.0000
     45 H14        -3.2108   -0.2721   -1.1367 H         1 <0>         0.0000
     46 H15        -2.4282   -1.8524   -0.9711 H         1 <0>         0.0000
     47 H16        -1.7205   -0.6222   -2.0299 H         1 <0>         0.0000
     48 H17         0.6925    1.7767   -2.0203 H         1 <0>         0.0000
     49 H18        -0.5281   -3.9670    0.2515 H         1 <0>         0.0000
     50 H19        -1.0541    2.1066    2.3770 H         1 <0>         0.0000
@<TRIPOS>BOND
     1    1    3 ar
     2    1    9 ar
     3    1   32 1
     4    2    4 ar
     5    2   10 ar
     6    2   33 1
     7    3   12 ar
     8    3   34 1
     9    4   14 ar
    10    4   35 1
    11    5    7 2
    12    5    8 1
    13    5   36 1
    14    6    8 ar
    15    6    9 ar
    16    6   37 1
    17    7   25 1
    18    7   38 1
    19    8   12 ar
    20    9   15 1
    21   10   11 ar
    22   10   17 1
    23   11   13 ar
    24   11   18 1
    25   12   25 1
    26   13   14 ar
    27   13   26 1
    28   14   28 1
    29   15   23 am
    30   15   24 2
    31   16   18 1
    32   16   19 1
    33   16   39 1
    34   16   40 1
    35   17   19 1
    36   17   23 1
    37   17   41 1
    38   18   20 1
    39   18   21 1
    40   19   22 1
    41   19   27 1
    42   20   42 1
    43   20   43 1
    44   20   44 1
    45   21   45 1
    46   21   46 1
    47   21   47 1
    48   22   29 1
    49   22   30 1
    50   22   31 1
    51   23   48 1
    52   26   49 1
    53   27   50 1
