@<TRIPOS>MOLECULE
*****
   39    41     0     0     0
SMALL
NO_CHARGES

@<TRIPOS>ATOM
      1 C1          0.4521   -3.0738   -1.2929 C.ar      1 <0>         0.0000
      2 C2          0.8860   -4.3313   -1.7448 C.ar      1 <0>         0.0000
      3 C3          2.3736   -2.9540    0.1627 C.ar      1 <0>         0.0000
      4 C4          1.1884   -2.3814   -0.3406 C.ar      1 <0>         0.0000
      5 C5          2.0559   -4.9040   -1.2520 C.ar      1 <0>         0.0000
      6 C6          2.8150   -4.1997   -0.2794 C.ar      1 <0>         0.0000
      7 C7         -0.3684    0.7168   -0.8845 C.2       1 <0>         0.0000
      8 C8          7.1571   -4.4525    2.0336 C.3       1 <0>         0.0000
      9 C9          7.1194   -5.0533    0.6444 C.3       1 <0>         0.0000
     10 C10         1.7793    0.1001   -0.2141 C.3       1 <0>         0.0000
     11 C11         5.8815   -5.0786    1.5091 C.3       1 <0>         0.0000
     12 C12         0.7651   -1.0163    0.1645 C.3       1 <0>         0.0000
     13 C13         0.4563   -1.0176    1.6655 C.3       1 <0>         0.0000
     14 C14         1.8302   -6.8538   -2.6039 C.3       1 <0>         0.0000
     15 C15         4.7222   -4.1850    1.1701 C.3       1 <0>         0.0000
     16 N1          0.8712    1.1995   -0.5039 N.am      1 <0>         0.0000
     17 O1         -1.2678    1.3204   -1.4262 O.2       1 <0>         0.0000
     18 O2         -0.4491   -0.6017   -0.5235 O.3       1 <0>         0.0000
     19 O3          2.5574   -6.1169   -1.6279 O.3       1 <0>         0.0000
     20 O4          3.9485   -4.8243    0.1499 O.3       1 <0>         0.0000
     21 H1         -0.4600   -2.6429   -1.6888 H         1 <0>         0.0000
     22 H2          0.2928   -4.8536   -2.4867 H         1 <0>         0.0000
     23 H3          2.9540   -2.4154    0.9033 H         1 <0>         0.0000
     24 H4          7.6995   -4.9811    2.8115 H         1 <0>         0.0000
     25 H5          7.1971   -3.3696    2.1185 H         1 <0>         0.0000
     26 H6          7.1228   -4.3757   -0.2048 H         1 <0>         0.0000
     27 H7          7.6399   -5.9905    0.4739 H         1 <0>         0.0000
     28 H8          2.4493    0.3326    0.6185 H         1 <0>         0.0000
     29 H9          2.3771   -0.1908   -1.0864 H         1 <0>         0.0000
     30 H10         5.5985   -6.0404    1.9288 H         1 <0>         0.0000
     31 H11         0.1826   -0.0110    1.9966 H         1 <0>         0.0000
     32 H12         1.3236   -1.3529    2.2411 H         1 <0>         0.0000
     33 H13        -0.3758   -1.6963    1.8670 H         1 <0>         0.0000
     34 H14         2.3933   -7.7748   -2.7606 H         1 <0>         0.0000
     35 H15         1.7604   -6.3043   -3.5511 H         1 <0>         0.0000
     36 H16         0.8209   -7.1001   -2.2506 H         1 <0>         0.0000
     37 H17         5.0840   -3.2112    0.8096 H         1 <0>         0.0000
     38 H18         4.0930   -4.0113    2.0544 H         1 <0>         0.0000
     39 H19         1.1867    2.0369   -0.9765 H         1 <0>         0.0000
@<TRIPOS>BOND
     1    1    2 ar
     2    1    4 ar
     3    1   21 1
     4    2    5 ar
     5    2   22 1
     6    3    4 ar
     7    3    6 ar
     8    3   23 1
     9    4   12 1
    10    5    6 ar
    11    5   19 1
    12    6   20 1
    13    7   16 am
    14    7   17 2
    15    7   18 1
    16    8    9 1
    17    8   11 1
    18    8   24 1
    19    8   25 1
    20    9   11 1
    21    9   26 1
    22    9   27 1
    23   10   12 1
    24   10   16 1
    25   10   28 1
    26   10   29 1
    27   11   15 1
    28   11   30 1
    29   12   13 1
    30   12   18 1
    31   13   31 1
    32   13   32 1
    33   13   33 1
    34   14   19 1
    35   14   34 1
    36   14   35 1
    37   14   36 1
    38   15   20 1
    39   15   37 1
    40   15   38 1
    41   16   39 1
