@<TRIPOS>MOLECULE
*****
   24    25     0     0     0
SMALL
NO_CHARGES

@<TRIPOS>ATOM
      1 C1          1.8851   -1.0363   -0.1124 C.ar      1 <0>         0.0000
      2 C2          2.8783   -1.6520    2.0022 C.ar      1 <0>         0.0000
      3 C3          0.8066   -0.4630    0.5610 C.ar      1 <0>         0.0000
      4 C4          1.7997   -1.0786    2.6757 C.ar      1 <0>         0.0000
      5 C5          2.9210   -1.6309    0.6081 C.ar      1 <0>         0.0000
      6 C6          0.7638   -0.4841    1.9551 C.ar      1 <0>         0.0000
      7 C7          3.7500    1.7846    0.7115 C.2       1 <0>         0.0000
      8 C8          4.5062   -0.1179    0.3042 C.2       1 <0>         0.0000
      9 C9          3.0836    3.0963    0.5568 C.3       1 <0>         0.0000
     10 N1          3.8531    0.8566   -0.2850 N.2       1 <0>         0.0000
     11 N2          4.7748    0.2247    1.5927 N.2       1 <0>         0.0000
     12 N3          4.0024   -2.2057   -0.0670 N.2       1 <0>         0.0000
     13 N4          4.9027   -1.3511   -0.2410 N.2       1 <0>         0.0000
     14 N5          4.2982    1.4455    1.8802 N.pl3     1 <0>         0.0000
     15 O1         -0.2886    0.0753    2.6122 O.3       1 <0>         0.0000
     16 H1          1.9101   -1.0150   -1.1988 H         1 <0>         0.0000
     17 H2          3.6807   -2.1131    2.5720 H         1 <0>         0.0000
     18 H3          0.0027   -0.0012   -0.0059 H         1 <0>         0.0000
     19 H4          1.7720   -1.0984    3.7617 H         1 <0>         0.0000
     20 H5          2.0147    3.0277    0.8124 H         1 <0>         0.0000
     21 H6          3.5369    3.8657    1.2027 H         1 <0>         0.0000
     22 H7          3.1606    3.4766   -0.4749 H         1 <0>         0.0000
     23 H8          4.3999    1.8782    2.7942 H         1 <0>         0.0000
     24 H9         -0.9229    0.4455    1.9778 H         1 <0>         0.0000
@<TRIPOS>BOND
     1    1    3 ar
     2    1    5 ar
     3    1   16 1
     4    2    4 ar
     5    2    5 ar
     6    2   17 1
     7    3    6 ar
     8    3   18 1
     9    4    6 ar
    10    4   19 1
    11    5   12 1
    12    6   15 1
    13    7    9 1
    14    7   10 2
    15    7   14 1
    16    8   10 1
    17    8   11 2
    18    8   13 1
    19    9   20 1
    20    9   21 1
    21    9   22 1
    22   11   14 1
    23   12   13 2
    24   14   23 1
    25   15   24 1
