@<TRIPOS>MOLECULE
*****
   30    32     0     0     0
SMALL
NO_CHARGES

@<TRIPOS>ATOM
      1 C1          2.0260    6.4657    2.1936 C.ar      1 <0>         0.0000
      2 C2          2.6688    6.8080    3.3831 C.ar      1 <0>         0.0000
      3 C3          1.6794    5.1375    1.9453 C.ar      1 <0>         0.0000
      4 C4          2.9652    5.8222    4.3244 C.ar      1 <0>         0.0000
      5 C5          1.9758    4.1518    2.8866 C.ar      1 <0>         0.0000
      6 C6          2.6187    4.4941    4.0762 C.ar      1 <0>         0.0000
      7 C7          1.1371    0.8167    1.5819 C.2       1 <0>         0.0000
      8 C8          1.0087    0.6030    2.8899 C.2       1 <0>         0.0000
      9 C9          1.5421    2.2123    1.3722 C.2       1 <0>         0.0000
     10 C10         1.2984    1.8551    3.6001 C.2       1 <0>         0.0000
     11 C11         0.9350   -0.2134    0.5313 C.3       1 <0>         0.0000
     12 C12         0.6013   -0.6874    3.5017 C.3       1 <0>         0.0000
     13 C13         0.8669   -1.6226    1.1433 C.3       1 <0>         0.0000
     14 C14         0.0467   -1.6527    2.4409 C.3       1 <0>         0.0000
     15 N1          1.6184    2.7886    2.6289 N.am      1 <0>         0.0000
     16 O1          1.7776    2.6587    0.2615 O.2       1 <0>         0.0000
     17 O2          1.2039    1.9488    4.8128 O.2       1 <0>         0.0000
     18 F1          2.9086    3.5551    4.9883 F         1 <0>         0.0000
     19 H1          1.7962    7.2334    1.4607 H         1 <0>         0.0000
     20 H2          2.9392    7.8420    3.5764 H         1 <0>         0.0000
     21 H3          1.1789    4.8827    1.0145 H         1 <0>         0.0000
     22 H4          3.4657    6.0887    5.2503 H         1 <0>         0.0000
     23 H5          0.0000   -0.0001   -0.0000 H         1 <0>         0.0000
     24 H6          1.7455   -0.1785   -0.2050 H         1 <0>         0.0000
     25 H7          1.4732   -1.1407    3.9879 H         1 <0>         0.0000
     26 H8         -0.1579   -0.5258    4.2750 H         1 <0>         0.0000
     27 H9          0.4380   -2.3182    0.4131 H         1 <0>         0.0000
     28 H10         1.8842   -1.9758    1.3570 H         1 <0>         0.0000
     29 H11         0.0260   -2.6703    2.8471 H         1 <0>         0.0000
     30 H12        -0.9919   -1.3817    2.2111 H         1 <0>         0.0000
@<TRIPOS>BOND
     1    1    2 ar
     2    1    3 ar
     3    1   19 1
     4    2    4 ar
     5    2   20 1
     6    3    5 ar
     7    3   21 1
     8    4    6 ar
     9    4   22 1
    10    5    6 ar
    11    5   15 1
    12    6   18 1
    13    7    8 2
    14    7    9 1
    15    7   11 1
    16    8   10 1
    17    8   12 1
    18    9   15 am
    19    9   16 2
    20   10   15 am
    21   10   17 2
    22   11   13 1
    23   11   23 1
    24   11   24 1
    25   12   14 1
    26   12   25 1
    27   12   26 1
    28   13   14 1
    29   13   27 1
    30   13   28 1
    31   14   29 1
    32   14   30 1
