@<TRIPOS>MOLECULE
*****
   39    41     0     0     0
SMALL
NO_CHARGES

@<TRIPOS>ATOM
      1 C1          1.8286    1.8989    1.0108 C.ar      1 <0>         0.0000
      2 C2          1.1907    1.2621    2.0865 C.ar      1 <0>         0.0000
      3 C3          1.6858    1.3743   -0.2723 C.ar      1 <0>         0.0000
      4 C4          0.4021    0.1375    1.8674 C.ar      1 <0>         0.0000
      5 C5          0.9202    0.2161   -0.5146 C.ar      1 <0>         0.0000
      6 C6          0.2527   -0.3812    0.5708 C.ar      1 <0>         0.0000
      7 C7          5.6271   -1.1931   -0.7290 C.3       1 <0>         0.0000
      8 C8          5.3863    0.1044   -1.4729 C.3       1 <0>         0.0000
      9 C9          0.1045   -1.7575   -1.8709 C.3       1 <0>         0.0000
     10 C10         0.8394   -0.4049   -1.9019 C.3       1 <0>         0.0000
     11 C11         4.6224   -1.1360   -1.8476 C.3       1 <0>         0.0000
     12 C12        -1.0764   -1.7581   -0.8923 C.3       1 <0>         0.0000
     13 C13        -2.1384   -0.7114   -1.2458 C.3       1 <0>         0.0000
     14 C14        -1.6910   -3.1488   -0.7795 C.3       1 <0>         0.0000
     15 C15         2.2458   -0.5547   -2.5076 C.3       1 <0>         0.0000
     16 N1          3.1800   -1.1910   -1.4982 N.4       1 <0>         0.0000
     17 O1         -0.5466   -1.4770    0.4392 O.3       1 <0>         0.0000
     18 H1          2.4122    2.8002    1.1714 H         1 <0>         0.0000
     19 H2          1.2922    1.6586    3.0926 H         1 <0>         0.0000
     20 H3          2.1563    1.8901   -1.1078 H         1 <0>         0.0000
     21 H4         -0.1243   -0.3521    2.6813 H         1 <0>         0.0000
     22 H5          6.5397   -1.7490   -0.9151 H         1 <0>         0.0000
     23 H6          5.2588   -1.2610    0.2912 H         1 <0>         0.0000
     24 H7          4.8539    0.8897   -0.9429 H         1 <0>         0.0000
     25 H8          6.1329    0.4577   -2.1760 H         1 <0>         0.0000
     26 H9         -0.2406   -2.0183   -2.8757 H         1 <0>         0.0000
     27 H10         0.7788   -2.5639   -1.5498 H         1 <0>         0.0000
     28 H11         0.3020    0.2733   -2.5749 H         1 <0>         0.0000
     29 H12         4.8228   -1.6383   -2.7879 H         1 <0>         0.0000
     30 H13        -2.9519   -0.7513   -0.5174 H         1 <0>         0.0000
     31 H14        -2.5550   -0.9152   -2.2369 H         1 <0>         0.0000
     32 H15        -1.7375    0.3055   -1.2443 H         1 <0>         0.0000
     33 H16        -2.4763   -3.1517   -0.0196 H         1 <0>         0.0000
     34 H17        -0.9362   -3.8873   -0.4939 H         1 <0>         0.0000
     35 H18        -2.1334   -3.4489   -1.7337 H         1 <0>         0.0000
     36 H19         2.6951    0.4062   -2.7576 H         1 <0>         0.0000
     37 H20         2.2478   -1.1849   -3.3994 H         1 <0>         0.0000
     38 H21         2.8984   -2.1639   -1.3317 H         1 <0>         0.0000
     39 H22         3.0089   -0.6944   -0.6067 H         1 <0>         0.0000
@<TRIPOS>BOND
     1    1    2 ar
     2    1    3 ar
     3    1   18 1
     4    2    4 ar
     5    2   19 1
     6    3    5 ar
     7    3   20 1
     8    4    6 ar
     9    4   21 1
    10    5    6 ar
    11    5   10 1
    12    6   17 1
    13    7    8 1
    14    7   11 1
    15    7   22 1
    16    7   23 1
    17    8   11 1
    18    8   24 1
    19    8   25 1
    20    9   10 1
    21    9   12 1
    22    9   26 1
    23    9   27 1
    24   10   15 1
    25   10   28 1
    26   11   16 1
    27   11   29 1
    28   12   13 1
    29   12   14 1
    30   12   17 1
    31   13   30 1
    32   13   31 1
    33   13   32 1
    34   14   33 1
    35   14   34 1
    36   14   35 1
    37   15   16 1
    38   15   36 1
    39   15   37 1
    40   16   38 1
    41   16   39 1
