@<TRIPOS>MOLECULE
*****
   30    31     0     0     0
SMALL
NO_CHARGES

@<TRIPOS>ATOM
      1 C1          0.7711   -0.3082   -5.0857 C.ar      1 <0>         0.0000
      2 C2          1.6880    1.0367   -6.6802 C.ar      1 <0>         0.0000
      3 C3          0.6422    0.7866   -4.2295 C.ar      1 <0>         0.0000
      4 C4          1.5443    2.1375   -5.8045 C.ar      1 <0>         0.0000
      5 C5          0.0108    0.6790   -2.8685 C.2       1 <0>         0.0000
      6 C6          0.3960   -1.4262    0.2177 C.3       1 <0>         0.0000
      7 C7         -0.4632    0.5413    0.0576 C.3       1 <0>         0.0000
      8 C8         -0.3625   -0.6690   -0.8947 C.3       1 <0>         0.0000
      9 C9          0.9254    0.0978    2.2593 C.3       1 <0>         0.0000
     10 C10         0.3002    1.1194    3.1936 C.3       1 <0>         0.0000
     11 N1          1.2946   -0.1783   -6.3151 N.ar      1 <0>         0.0000
     12 N2          1.0247    2.0203   -4.5989 N.ar      1 <0>         0.0000
     13 N3          0.3720   -0.4265   -2.1139 N.am      1 <0>         0.0000
     14 N4         -0.0607   -0.3843    1.2386 N.4       1 <0>         0.0000
     15 O1         -0.7566    1.5169   -2.4138 O.2       1 <0>         0.0000
     16 F1         -0.1717    2.1933    2.4404 F         1 <0>         0.0000
     17 Cl1         2.0668    3.7107   -6.3251 Cl        1 <0>         0.0000
     18 H1          0.4215   -1.3026   -4.8133 H         1 <0>         0.0000
     19 H2          2.1193    1.1604   -7.6703 H         1 <0>         0.0000
     20 H3          0.0888   -2.4382    0.4810 H         1 <0>         0.0000
     21 H4          1.4801   -1.3599    0.1174 H         1 <0>         0.0000
     22 H5          0.3198    1.2824   -0.0807 H         1 <0>         0.0000
     23 H6         -1.4256    1.0223    0.2066 H         1 <0>         0.0000
     24 H7         -1.3499   -1.1046   -1.0861 H         1 <0>         0.0000
     25 H8          1.7653    0.5289    1.7107 H         1 <0>         0.0000
     26 H9          1.2752   -0.7704    2.8261 H         1 <0>         0.0000
     27 H10         1.0538    1.4844    3.8963 H         1 <0>         0.0000
     28 H11        -0.5439    0.7042    3.7548 H         1 <0>         0.0000
     29 H12         0.8838   -1.1884   -2.5438 H         1 <0>         0.0000
     30 H13        -0.9036   -0.7144    1.7182 H         1 <0>         0.0000
@<TRIPOS>BOND
     1    1    3 ar
     2    1   11 ar
     3    1   18 1
     4    2    4 ar
     5    2   11 ar
     6    2   19 1
     7    3    5 1
     8    3   12 ar
     9    4   12 ar
    10    4   17 1
    11    5   13 am
    12    5   15 2
    13    6    8 1
    14    6   14 1
    15    6   20 1
    16    6   21 1
    17    7    8 1
    18    7   14 1
    19    7   22 1
    20    7   23 1
    21    8   13 1
    22    8   24 1
    23    9   10 1
    24    9   14 1
    25    9   25 1
    26    9   26 1
    27   10   16 1
    28   10   27 1
    29   10   28 1
    30   13   29 1
    31   14   30 1
