@<TRIPOS>MOLECULE
*****
   29    30     0     0     0
SMALL
NO_CHARGES

@<TRIPOS>ATOM
      1 C1          3.5217    3.5010    0.3066 C.ar      1 <0>         0.0000
      2 C2          5.1655    4.2798   -1.6530 C.ar      1 <0>         0.0000
      3 C3          3.4109    2.9821   -0.9879 C.ar      1 <0>         0.0000
      4 C4          5.2665    4.7827   -0.3414 C.ar      1 <0>         0.0000
      5 C5          2.3275    1.9983   -1.3650 C.2       1 <0>         0.0000
      6 C6          0.6644   -0.8800    0.4866 C.3       1 <0>         0.0000
      7 C7         -0.3776    0.3968   -0.8376 C.3       1 <0>         0.0000
      8 C8          1.1074   -0.0144   -0.7131 C.3       1 <0>         0.0000
      9 C9         -1.8001   -0.6426    0.9507 C.3       1 <0>         0.0000
     10 C10        -2.1306   -1.9743    1.6025 C.3       1 <0>         0.0000
     11 N1          4.2352    3.3870   -1.9698 N.ar      1 <0>         0.0000
     12 N2          4.4553    4.4089    0.6305 N.ar      1 <0>         0.0000
     13 N3         -0.7280   -0.7855   -0.0109 N.3       1 <0>         0.0000
     14 N4          2.0697    1.0336   -0.4228 N.am      1 <0>         0.0000
     15 O1          1.6965    2.0913   -2.4106 O.2       1 <0>         0.0000
     16 F1         -2.7309   -2.8217    0.7078 F         1 <0>         0.0000
     17 F2         -3.0213   -1.7660    2.6343 F         1 <0>         0.0000
     18 Cl1         6.5100    5.9536    0.0291 Cl        1 <0>         0.0000
     19 H1          2.8357    3.2066    1.0975 H         1 <0>         0.0000
     20 H2          5.8435    4.6120   -2.4353 H         1 <0>         0.0000
     21 H3          1.0650   -1.8960    0.5627 H         1 <0>         0.0000
     22 H4          0.8180   -0.3495    1.4428 H         1 <0>         0.0000
     23 H5         -0.5648    1.3559   -0.3315 H         1 <0>         0.0000
     24 H6         -0.8176    0.4105   -1.8366 H         1 <0>         0.0000
     25 H7          1.4264   -0.6132   -1.5705 H         1 <0>         0.0000
     26 H8         -2.7003   -0.2908    0.4364 H         1 <0>         0.0000
     27 H9         -1.5646    0.0775    1.7562 H         1 <0>         0.0000
     28 H10        -1.2609   -2.4944    2.0169 H         1 <0>         0.0000
     29 H11         2.7748    0.8458    0.2797 H         1 <0>         0.0000
@<TRIPOS>BOND
     1    1    3 ar
     2    1   12 ar
     3    1   19 1
     4    2    4 ar
     5    2   11 ar
     6    2   20 1
     7    3    5 1
     8    3   11 ar
     9    4   12 ar
    10    4   18 1
    11    5   14 am
    12    5   15 2
    13    6    8 1
    14    6   13 1
    15    6   21 1
    16    6   22 1
    17    7    8 1
    18    7   13 1
    19    7   23 1
    20    7   24 1
    21    8   14 1
    22    8   25 1
    23    9   10 1
    24    9   13 1
    25    9   26 1
    26    9   27 1
    27   10   16 1
    28   10   17 1
    29   10   28 1
    30   14   29 1
