@<TRIPOS>MOLECULE
*****
   30    31     0     0     0
SMALL
NO_CHARGES

@<TRIPOS>ATOM
      1 C1          1.7729   -2.0298   -4.8977 C.ar      1 <0>         0.0000
      2 C2          2.4567   -0.5904   -6.5335 C.ar      1 <0>         0.0000
      3 C3          1.3270   -0.9477   -4.1399 C.ar      1 <0>         0.0000
      4 C4          1.9970    0.4959   -5.7570 C.ar      1 <0>         0.0000
      5 C5          0.6832   -1.1542   -2.8044 C.2       1 <0>         0.0000
      6 C6         -0.0276   -1.1098    0.0897 C.3       1 <0>         0.0000
      7 C7         -0.2890    1.0278    0.0897 C.3       1 <0>         0.0000
      8 C8         -0.4727   -0.0801   -0.9729 C.3       1 <0>         0.0000
      9 C9          0.7664    0.0949    2.2871 C.3       1 <0>         0.0000
     10 C10         0.5982   -1.0636    3.2570 C.3       1 <0>         0.0000
     11 N1          2.3415   -1.8422   -6.0992 N.ar      1 <0>         0.0000
     12 N2          1.4386    0.3219   -4.5740 N.ar      1 <0>         0.0000
     13 N3          0.3731    0.0076   -2.1333 N.am      1 <0>         0.0000
     14 N4         -0.2322   -0.0387    1.1816 N.4       1 <0>         0.0000
     15 O1          0.4641   -2.2650   -2.3229 O.2       1 <0>         0.0000
     16 F1         -0.7520   -1.0960    3.6334 F         1 <0>         0.0000
     17 Cl1         2.1609    2.1183   -6.3600 Cl        1 <0>         0.0000
     18 H1          1.6692   -3.0477   -4.5343 H         1 <0>         0.0000
     19 H2          2.9141   -0.4255   -7.5058 H         1 <0>         0.0000
     20 H3         -0.6329   -1.9998    0.2430 H         1 <0>         0.0000
     21 H4          1.0306   -1.3577    0.0368 H         1 <0>         0.0000
     22 H5          0.6819    1.5207    0.0286 H         1 <0>         0.0000
     23 H6         -1.0881    1.7515    0.2483 H         1 <0>         0.0000
     24 H7         -1.5281   -0.2188   -1.2355 H         1 <0>         0.0000
     25 H8          0.5724    1.0495    2.7829 H         1 <0>         0.0000
     26 H9          1.7671    0.1103    1.8495 H         1 <0>         0.0000
     27 H10         1.2094   -0.9102    4.1488 H         1 <0>         0.0000
     28 H11         0.8398   -2.0289    2.8038 H         1 <0>         0.0000
     29 H12         0.4120    0.8648   -2.6816 H         1 <0>         0.0000
     30 H13        -1.1519   -0.1587    1.6209 H         1 <0>         0.0000
@<TRIPOS>BOND
     1    1    3 ar
     2    1   11 ar
     3    1   18 1
     4    2    4 ar
     5    2   11 ar
     6    2   19 1
     7    3    5 1
     8    3   12 ar
     9    4   12 ar
    10    4   17 1
    11    5   13 am
    12    5   15 2
    13    6    8 1
    14    6   14 1
    15    6   20 1
    16    6   21 1
    17    7    8 1
    18    7   14 1
    19    7   22 1
    20    7   23 1
    21    8   13 1
    22    8   24 1
    23    9   10 1
    24    9   14 1
    25    9   25 1
    26    9   26 1
    27   10   16 1
    28   10   27 1
    29   10   28 1
    30   13   29 1
    31   14   30 1
