@<TRIPOS>MOLECULE
*****
   29    30     0     0     0
SMALL
NO_CHARGES

@<TRIPOS>ATOM
      1 C1          3.1403    3.8914    0.6250 C.ar      1 <0>         0.0000
      2 C2          4.9785    5.1611    0.1766 C.ar      1 <0>         0.0000
      3 C3          3.2028    3.3283   -0.6540 C.ar      1 <0>         0.0000
      4 C4          5.0257    4.5880   -1.1090 C.ar      1 <0>         0.0000
      5 C5          2.1714    2.3357   -1.1438 C.2       1 <0>         0.0000
      6 C6          0.4887   -0.6545    0.5194 C.3       1 <0>         0.0000
      7 C7         -0.6039    0.6869   -0.6936 C.3       1 <0>         0.0000
      8 C8          0.8960    0.3204   -0.6061 C.3       1 <0>         0.0000
      9 C9         -1.9610   -0.5513    1.0390 C.3       1 <0>         0.0000
     10 C10        -3.3221   -0.5462    0.3578 C.3       1 <0>         0.0000
     11 N1          4.0272    4.8104    1.0384 N.ar      1 <0>         0.0000
     12 N2          4.1555    3.6933   -1.5285 N.ar      1 <0>         0.0000
     13 N3         -0.9080   -0.5712    0.0389 N.3       1 <0>         0.0000
     14 N4          1.8319    1.3664   -0.2383 N.am      1 <0>         0.0000
     15 O1          1.6538    2.4278   -2.2503 O.2       1 <0>         0.0000
     16 F1         -4.3295   -0.4941    1.3344 F         1 <0>         0.0000
     17 Cl1         6.2941    5.0800   -2.2098 Cl        1 <0>         0.0000
     18 H1          2.3507    3.6222    1.3224 H         1 <0>         0.0000
     19 H2          5.7105    5.9005    0.4912 H         1 <0>         0.0000
     20 H3          0.9213   -1.6602    0.5156 H         1 <0>         0.0000
     21 H4          0.6292   -0.1982    1.5148 H         1 <0>         0.0000
     22 H5         -0.8280    1.5934   -0.1095 H         1 <0>         0.0000
     23 H6         -1.0433    0.7686   -1.6901 H         1 <0>         0.0000
     24 H7          1.2326   -0.1915   -1.5108 H         1 <0>         0.0000
     25 H8         -1.8757   -1.4521    1.6570 H         1 <0>         0.0000
     26 H9         -1.8877    0.3238    1.7116 H         1 <0>         0.0000
     27 H10        -3.4685   -1.4548   -0.2326 H         1 <0>         0.0000
     28 H11        -3.4469    0.3300   -0.2870 H         1 <0>         0.0000
     29 H12         2.4203    1.2236    0.5729 H         1 <0>         0.0000
@<TRIPOS>BOND
     1    1    3 ar
     2    1   11 ar
     3    1   18 1
     4    2    4 ar
     5    2   11 ar
     6    2   19 1
     7    3    5 1
     8    3   12 ar
     9    4   12 ar
    10    4   17 1
    11    5   14 am
    12    5   15 2
    13    6    8 1
    14    6   13 1
    15    6   20 1
    16    6   21 1
    17    7    8 1
    18    7   13 1
    19    7   22 1
    20    7   23 1
    21    8   14 1
    22    8   24 1
    23    9   10 1
    24    9   13 1
    25    9   25 1
    26    9   26 1
    27   10   16 1
    28   10   27 1
    29   10   28 1
    30   14   29 1
