@<TRIPOS>MOLECULE
*****
   27    29     0     0     0
SMALL
NO_CHARGES

@<TRIPOS>ATOM
      1 C1          0.4634    0.0734    2.1770 C.ar      1 <0>         0.0000
      2 C2          0.0150   -0.5422    0.9995 C.ar      1 <0>         0.0000
      3 C3          0.2580   -0.5485    3.4173 C.ar      1 <0>         0.0000
      4 C4         -0.6399   -1.7810    1.0258 C.ar      1 <0>         0.0000
      5 C5         -0.3948   -1.7750    3.4498 C.ar      1 <0>         0.0000
      6 C6         -0.8313   -2.3769    2.2705 C.ar      1 <0>         0.0000
      7 C7          1.5025   -3.6878    4.9468 C.2       1 <0>         0.0000
      8 C8          2.9911   -4.5595    3.4778 C.3       1 <0>         0.0000
      9 C9         -1.4323   -3.8735    3.8826 C.3       1 <0>         0.0000
     10 C10         3.6183   -5.0575    4.8019 C.3       1 <0>         0.0000
     11 C11        -0.7378   -2.6795    4.6113 C.3       1 <0>         0.0000
     12 N1          1.6455   -4.0605    3.7326 N.2       1 <0>         0.0000
     13 N2          0.4118   -3.0250    5.4507 N.pl3     1 <0>         0.0000
     14 O1         -1.4423   -3.5844    2.4618 O.3       1 <0>         0.0000
     15 S1          2.8780   -3.9786    6.0889 S.3       1 <0>         0.0000
     16 H1          0.9725    1.0318    2.1267 H         1 <0>         0.0000
     17 H2          0.1806   -0.0525    0.0431 H         1 <0>         0.0000
     18 H3          0.6179   -0.0910    4.3358 H         1 <0>         0.0000
     19 H4         -0.9789   -2.2683    0.1167 H         1 <0>         0.0000
     20 H5          3.5981   -3.7489    3.0518 H         1 <0>         0.0000
     21 H6          2.9580   -5.3688    2.7417 H         1 <0>         0.0000
     22 H7         -0.8847   -4.8045    4.0341 H         1 <0>         0.0000
     23 H8         -2.4719   -3.9943    4.1999 H         1 <0>         0.0000
     24 H9          3.3505   -6.0964    5.0117 H         1 <0>         0.0000
     25 H10         4.7047   -4.9531    4.8185 H         1 <0>         0.0000
     26 H11        -1.4431   -2.1875    5.2884 H         1 <0>         0.0000
     27 H12         0.2327   -3.1521    6.4379 H         1 <0>         0.0000
@<TRIPOS>BOND
     1    1    2 ar
     2    1    3 ar
     3    1   16 1
     4    2    4 ar
     5    2   17 1
     6    3    5 ar
     7    3   18 1
     8    4    6 ar
     9    4   19 1
    10    5    6 ar
    11    5   11 1
    12    6   14 1
    13    7   12 2
    14    7   13 1
    15    7   15 1
    16    8   10 1
    17    8   12 1
    18    8   20 1
    19    8   21 1
    20    9   11 1
    21    9   14 1
    22    9   22 1
    23    9   23 1
    24   10   15 1
    25   10   24 1
    26   10   25 1
    27   11   13 1
    28   11   26 1
    29   13   27 1
