@<TRIPOS>MOLECULE
*****
   30    30     0     0     0
SMALL
NO_CHARGES

@<TRIPOS>ATOM
      1 C1          5.5130   -2.1561   -1.5179 C.ar      1 <0>         0.0000
      2 C2          5.6386   -2.5642   -0.1899 C.ar      1 <0>         0.0000
      3 C3          4.6238   -1.1349   -1.8525 C.ar      1 <0>         0.0000
      4 C4          4.8750   -1.9510    0.8033 C.ar      1 <0>         0.0000
      5 C5          3.8602   -0.5218   -0.8593 C.ar      1 <0>         0.0000
      6 C6          3.9858   -0.9298    0.4687 C.ar      1 <0>         0.0000
      7 C7          3.1486    0.9732    4.5781 C.2       1 <0>         0.0000
      8 C8          2.2135    1.6140    5.5494 C.3       1 <0>         0.0000
      9 C9          4.1065    2.1142    1.2119 C.3       1 <0>         0.0000
     10 C10         3.1586   -0.2654    1.5458 C.3       1 <0>         0.0000
     11 C11         3.8365    0.9636    2.1887 C.3       1 <0>         0.0000
     12 N1          3.0243    1.4472    3.2892 N.am      1 <0>         0.0000
     13 O1          3.9281    0.1119    4.9683 O.2       1 <0>         0.0000
     14 O2          4.7243    3.2182    1.8611 O.3       1 <0>         0.0000
     15 O3          1.9262    0.1376    0.9393 O.3       1 <0>         0.0000
     16 H1          6.1066   -2.6344   -2.2916 H         1 <0>         0.0000
     17 H2          6.3301   -3.3599    0.0708 H         1 <0>         0.0000
     18 H3          4.5251   -0.8178   -2.8866 H         1 <0>         0.0000
     19 H4          4.9796   -2.2754    1.8353 H         1 <0>         0.0000
     20 H5          3.1700    0.2732   -1.1293 H         1 <0>         0.0000
     21 H6          1.2542    1.0773    5.6263 H         1 <0>         0.0000
     22 H7          2.6193    1.6332    6.5736 H         1 <0>         0.0000
     23 H8          1.9440    2.6585    5.3251 H         1 <0>         0.0000
     24 H9          3.1722    2.4735    0.7694 H         1 <0>         0.0000
     25 H10         4.7559    1.7930    0.3900 H         1 <0>         0.0000
     26 H11         2.8952   -0.9978    2.3193 H         1 <0>         0.0000
     27 H12         4.7859    0.6702    2.6530 H         1 <0>         0.0000
     28 H13         2.3348    2.1655    3.1023 H         1 <0>         0.0000
     29 H14         4.1127    3.5123    2.5552 H         1 <0>         0.0000
     30 H15         1.4070    0.5606    1.6383 H         1 <0>         0.0000
@<TRIPOS>BOND
     1    1    3 ar
     2    1    2 ar
     3    1   16 1
     4    2    4 ar
     5    2   17 1
     6    3    5 ar
     7    3   18 1
     8    4    6 ar
     9    4   19 1
    10    5    6 ar
    11    5   20 1
    12    6   10 1
    13    7    8 1
    14    7   12 am
    15    7   13 2
    16    8   21 1
    17    8   22 1
    18    8   23 1
    19    9   11 1
    20    9   14 1
    21    9   24 1
    22    9   25 1
    23   10   11 1
    24   10   15 1
    25   10   26 1
    26   11   12 1
    27   11   27 1
    28   12   28 1
    29   14   29 1
    30   15   30 1
