@<TRIPOS>MOLECULE
*****
   67    70     0     0     0
SMALL
NO_CHARGES

@<TRIPOS>ATOM
      1 C1          7.7001   -4.4214   -0.8708 C.ar      1 <0>         0.0000
      2 C2          6.5079   -3.7036   -0.7709 C.ar      1 <0>         0.0000
      3 C3          3.3984   -2.9590   -2.6814 C.ar      1 <0>         0.0000
      4 C4          3.6637   -2.7831   -0.2920 C.ar      1 <0>         0.0000
      5 C5          2.2064   -2.2410   -2.6004 C.ar      1 <0>         0.0000
      6 C6          2.4693   -2.0771   -0.2079 C.ar      1 <0>         0.0000
      7 C7          7.8478   -5.4203   -1.8362 C.ar      1 <0>         0.0000
      8 C8          5.5672   -5.0210   -2.5679 C.ar      1 <0>         0.0000
      9 C9          0.8307    0.5774   -3.1460 C.ar      1 <0>         0.0000
     10 C10        -1.8297    0.3895   -3.9371 C.ar      1 <0>         0.0000
     11 C11         4.1541   -3.2386   -1.5311 C.ar      1 <0>         0.0000
     12 C12         5.4267   -3.9925   -1.6234 C.ar      1 <0>         0.0000
     13 C13         1.7222   -1.7844   -1.3630 C.ar      1 <0>         0.0000
     14 C14        -0.0408   -0.2800   -2.4604 C.ar      1 <0>         0.0000
     15 C15        -1.3824   -0.3875   -2.8670 C.ar      1 <0>         0.0000
     16 C16         6.7740   -5.7186   -2.6866 C.ar      1 <0>         0.0000
     17 C17         0.3787    1.3525   -4.2120 C.ar      1 <0>         0.0000
     18 C18        -0.9728    1.2700   -4.6024 C.ar      1 <0>         0.0000
     19 C19         0.4425   -1.0372   -1.2773 C.2       1 <0>         0.0000
     20 C20        -1.5880    0.3446    1.1549 C.2       1 <0>         0.0000
     21 C21        -2.2856   -1.3420   -2.1333 C.3       1 <0>         0.0000
     22 C22        -2.5970   -0.8841   -0.7008 C.3       1 <0>         0.0000
     23 C23        -3.2140   -2.0222    0.1207 C.3       1 <0>         0.0000
     24 C24        -0.5988    1.0237    3.2831 C.3       1 <0>         0.0000
     25 C25         1.6059    1.8237   -6.1803 C.3       1 <0>         0.0000
     26 C26        -1.5121    3.4246   -5.4327 C.3       1 <0>         0.0000
     27 C27         7.8669   -5.0582   -5.6444 C.3       1 <0>         0.0000
     28 N1         -0.1771   -1.0688   -0.1377 N.2       1 <0>         0.0000
     29 N2         -1.3795   -0.3277   -0.0604 N.am      1 <0>         0.0000
     30 N3          6.8979   -6.7555   -3.6591 N.pl3     1 <0>         0.0000
     31 N4         -0.4695    0.4911    1.9351 N.am      1 <0>         0.0000
     32 O1         -2.6882    0.8230    1.4431 O.2       1 <0>         0.0000
     33 O2          7.1666   -7.6050   -6.0042 O.2       1 <0>         0.0000
     34 O3          5.3582   -5.8645   -5.4989 O.2       1 <0>         0.0000
     35 O4          1.2618    2.2088   -4.8384 O.3       1 <0>         0.0000
     36 O5         -1.4662    2.0030   -5.6583 O.3       1 <0>         0.0000
     37 S1          6.7043   -6.4026   -5.3117 S.o2      1 <0>         0.0000
     38 H1          8.5303   -4.1863   -0.2103 H         1 <0>         0.0000
     39 H2          6.4249   -2.8998   -0.0457 H         1 <0>         0.0000
     40 H3          3.7538   -3.2887   -3.6536 H         1 <0>         0.0000
     41 H4          4.2110   -3.0109    0.6184 H         1 <0>         0.0000
     42 H5          1.6444   -2.0390   -3.5065 H         1 <0>         0.0000
     43 H6          2.0950   -1.7534    0.7572 H         1 <0>         0.0000
     44 H7          8.7865   -5.9624   -1.9291 H         1 <0>         0.0000
     45 H8          4.7384   -5.3017   -3.2065 H         1 <0>         0.0000
     46 H9          1.8733    0.6640   -2.8551 H         1 <0>         0.0000
     47 H10        -2.8627    0.3339   -4.2706 H         1 <0>         0.0000
     48 H11        -3.2333   -1.4656   -2.6648 H         1 <0>         0.0000
     49 H12        -1.8149   -2.3319   -2.0961 H         1 <0>         0.0000
     50 H13        -3.2934   -0.0447   -0.7369 H         1 <0>         0.0000
     51 H14        -2.4973   -2.8415    0.2407 H         1 <0>         0.0000
     52 H15        -4.1033   -2.4156   -0.3845 H         1 <0>         0.0000
     53 H16        -3.5133   -1.6620    1.1071 H         1 <0>         0.0000
     54 H17         0.3894    1.3237    3.6422 H         1 <0>         0.0000
     55 H18        -1.0305    0.2970    3.9843 H         1 <0>         0.0000
     56 H19        -1.2490    1.8992    3.2594 H         1 <0>         0.0000
     57 H20         2.3071    2.5780   -6.5424 H         1 <0>         0.0000
     58 H21         0.7213    1.7966   -6.8239 H         1 <0>         0.0000
     59 H22         2.0928    0.8407   -6.1807 H         1 <0>         0.0000
     60 H23        -1.9360    3.8593   -6.3397 H         1 <0>         0.0000
     61 H24        -0.5122    3.8299   -5.2537 H         1 <0>         0.0000
     62 H25        -2.1613    3.6501   -4.5785 H         1 <0>         0.0000
     63 H26         7.7205   -4.7684   -6.6863 H         1 <0>         0.0000
     64 H27         7.6366   -4.2249   -4.9795 H         1 <0>         0.0000
     65 H28         8.8816   -5.4261   -5.4869 H         1 <0>         0.0000
     66 H29         7.6998   -7.3700   -3.5352 H         1 <0>         0.0000
     67 H30         0.2886   -0.1485    1.7297 H         1 <0>         0.0000
@<TRIPOS>BOND
     1    1    2 ar
     2    1    7 ar
     3    1   38 1
     4    2   12 ar
     5    2   39 1
     6    3    5 ar
     7    3   11 ar
     8    3   40 1
     9    4    6 ar
    10    4   11 ar
    11    4   41 1
    12    5   13 ar
    13    5   42 1
    14    6   13 ar
    15    6   43 1
    16    7   16 ar
    17    7   44 1
    18    8   12 ar
    19    8   16 ar
    20    8   45 1
    21    9   14 ar
    22    9   17 ar
    23    9   46 1
    24   10   15 ar
    25   10   18 ar
    26   10   47 1
    27   11   12 1
    28   13   19 1
    29   14   15 ar
    30   14   19 1
    31   15   21 1
    32   16   30 1
    33   17   18 ar
    34   17   35 1
    35   18   36 1
    36   19   28 2
    37   20   29 am
    38   20   31 am
    39   20   32 2
    40   21   22 1
    41   21   48 1
    42   21   49 1
    43   22   23 1
    44   22   29 1
    45   22   50 1
    46   23   51 1
    47   23   52 1
    48   23   53 1
    49   24   31 1
    50   24   54 1
    51   24   55 1
    52   24   56 1
    53   25   35 1
    54   25   57 1
    55   25   58 1
    56   25   59 1
    57   26   36 1
    58   26   60 1
    59   26   61 1
    60   26   62 1
    61   27   37 1
    62   27   63 1
    63   27   64 1
    64   27   65 1
    65   28   29 1
    66   30   37 1
    67   30   66 1
    68   31   67 1
    69   33   37 2
    70   34   37 2
