@<TRIPOS>MOLECULE
*****
   49    53     0     0     0
SMALL
NO_CHARGES

@<TRIPOS>ATOM
      1 C1         -2.6670   -1.2341    5.4058 C.ar      1 <0>         0.0000
      2 C2          2.7784   -0.0861    0.0787 C.ar      1 <0>         0.0000
      3 C3         -2.3926   -0.1315    4.5938 C.ar      1 <0>         0.0000
      4 C4          1.5129    0.3574    0.4611 C.ar      1 <0>         0.0000
      5 C5         -3.4820   -2.2721    4.9437 C.ar      1 <0>         0.0000
      6 C6          5.7335   -0.6991   -0.1283 C.ar      1 <0>         0.0000
      7 C7          1.4226   -1.5102    2.0027 C.ar      1 <0>         0.0000
      8 C8          4.9459   -2.9350   -0.3978 C.ar      1 <0>         0.0000
      9 C9         -3.7341   -1.0937    2.8280 C.ar      1 <0>         0.0000
     10 C10         6.9217   -1.1088   -0.7342 C.ar      1 <0>         0.0000
     11 C11         3.3918   -1.2273    0.6221 C.ar      1 <0>         0.0000
     12 C12         4.7030   -1.6323    0.0543 C.ar      1 <0>         0.0000
     13 C13         2.7049   -1.9515    1.6327 C.ar      1 <0>         0.0000
     14 C14        -2.9208   -0.0516    3.2955 C.ar      1 <0>         0.0000
     15 C15         0.8262   -0.3824    1.4347 C.ar      1 <0>         0.0000
     16 C16        -4.0110   -2.1817    3.6555 C.ar      1 <0>         0.0000
     17 C17         6.1698   -3.2597   -0.9878 C.ar      1 <0>         0.0000
     18 C18         3.2429   -3.1067    2.3608 C.2       1 <0>         0.0000
     19 C19        -1.2406    1.0387    1.6402 C.2       1 <0>         0.0000
     20 C20        -3.6726    1.8290    1.6620 C.3       1 <0>         0.0000
     21 C21        -2.9752    2.5012    2.8105 C.3       1 <0>         0.0000
     22 C22        -2.5630    1.0933    2.3959 C.3       1 <0>         0.0000
     23 C23         6.4670   -4.6764   -1.4165 C.3       1 <0>         0.0000
     24 N1          4.5454   -3.4354    2.4862 N.2       1 <0>         0.0000
     25 N2          7.1550   -2.3555   -1.1647 N.ar      1 <0>         0.0000
     26 N3          2.4478   -3.9520    3.0573 N.2       1 <0>         0.0000
     27 N4          4.5474   -4.5182    3.2796 N.2       1 <0>         0.0000
     28 N5          3.2925   -4.8296    3.6164 N.2       1 <0>         0.0000
     29 N6         -0.4725   -0.0547    1.9054 N.am      1 <0>         0.0000
     30 O1         -0.9305    1.9469    0.8634 O.2       1 <0>         0.0000
     31 Cl1        -5.0437   -3.4744    3.0561 Cl        1 <0>         0.0000
     32 H1         -2.2380   -1.2969    6.4020 H         1 <0>         0.0000
     33 H2          3.3020    0.4570   -0.7041 H         1 <0>         0.0000
     34 H3         -1.7524    0.6684    4.9562 H         1 <0>         0.0000
     35 H4          1.0639    1.2358    0.0186 H         1 <0>         0.0000
     36 H5         -3.6948   -3.1364    5.5644 H         1 <0>         0.0000
     37 H6          5.6221    0.3250    0.2179 H         1 <0>         0.0000
     38 H7          0.9094   -2.0793    2.7741 H         1 <0>         0.0000
     39 H8          4.1900   -3.7019   -0.2693 H         1 <0>         0.0000
     40 H9         -4.1391   -1.0562    1.8215 H         1 <0>         0.0000
     41 H10         7.7336   -0.3948   -0.8782 H         1 <0>         0.0000
     42 H11        -4.6856    1.4706    1.8184 H         1 <0>         0.0000
     43 H12        -3.4325    2.1756    0.6627 H         1 <0>         0.0000
     44 H13        -2.2726    3.2931    2.5739 H         1 <0>         0.0000
     45 H14        -3.5084    2.5933    3.7521 H         1 <0>         0.0000
     46 H15         7.1278   -4.6808   -2.2878 H         1 <0>         0.0000
     47 H16         6.9746   -5.2105   -0.6043 H         1 <0>         0.0000
     48 H17         5.5513   -5.2275   -1.6505 H         1 <0>         0.0000
     49 H18        -0.8476   -0.7174    2.5725 H         1 <0>         0.0000
@<TRIPOS>BOND
     1    1    3 ar
     2    1    5 ar
     3    1   32 1
     4    2    4 ar
     5    2   11 ar
     6    2   33 1
     7    3   14 ar
     8    3   34 1
     9    4   15 ar
    10    4   35 1
    11    5   16 ar
    12    5   36 1
    13    6   10 ar
    14    6   12 ar
    15    6   37 1
    16    7   13 ar
    17    7   15 ar
    18    7   38 1
    19    8   12 ar
    20    8   17 ar
    21    8   39 1
    22    9   14 ar
    23    9   16 ar
    24    9   40 1
    25   10   25 ar
    26   10   41 1
    27   11   12 1
    28   11   13 ar
    29   13   18 1
    30   14   22 1
    31   15   29 1
    32   16   31 1
    33   17   23 1
    34   17   25 ar
    35   18   24 1
    36   18   26 2
    37   19   22 1
    38   19   29 am
    39   19   30 2
    40   20   21 1
    41   20   22 1
    42   20   42 1
    43   20   43 1
    44   21   22 1
    45   21   44 1
    46   21   45 1
    47   23   46 1
    48   23   47 1
    49   23   48 1
    50   24   27 1
    51   26   28 1
    52   27   28 2
    53   29   49 1
