@<TRIPOS>MOLECULE
*****
   49    51     0     0     0
SMALL
NO_CHARGES

@<TRIPOS>ATOM
      1 C1         -3.5555   -0.5611    1.6929 C.ar      1 <0>         0.0000
      2 C2          2.6999   -2.4337   -0.6671 C.ar      1 <0>         0.0000
      3 C3         -2.1823   -0.3733    1.8451 C.ar      1 <0>         0.0000
      4 C4          1.8633   -1.7835    0.2375 C.ar      1 <0>         0.0000
      5 C5         -3.3435   -0.0880   -0.6524 C.ar      1 <0>         0.0000
      6 C6          1.5615    0.0364   -1.3621 C.ar      1 <0>         0.0000
      7 C7         -1.9621    0.1049   -0.5356 C.ar      1 <0>         0.0000
      8 C8         -4.1602   -0.4123    0.4397 C.ar      1 <0>         0.0000
      9 C9          2.9882   -1.8730   -1.9153 C.ar      1 <0>         0.0000
     10 C10         2.4005   -0.6429   -2.2645 C.ar      1 <0>         0.0000
     11 C11         1.3040   -0.5585   -0.1178 C.ar      1 <0>         0.0000
     12 C12        -1.3922   -0.0350    0.7446 C.ar      1 <0>         0.0000
     13 C13         1.0081    1.3909   -1.7321 C.2       1 <0>         0.0000
     14 C14        -1.1889    0.3293   -1.8171 C.3       1 <0>         0.0000
     15 C15        -5.6521   -0.5668    0.2690 C.3       1 <0>         0.0000
     16 C16         5.9289   -2.5756   -1.2282 C.3       1 <0>         0.0000
     17 C17         5.7088   -0.7132   -2.9279 C.3       1 <0>         0.0000
     18 C18         1.6184    0.0179   -4.4273 C.3       1 <0>         0.0000
     19 C19         3.9407   -2.5673   -2.8647 C.3       1 <0>         0.0000
     20 C20         5.4286   -2.1910   -2.6263 C.3       1 <0>         0.0000
     21 O1          1.7047    2.3407   -1.9850 O.2       1 <0>         0.0000
     22 O2          0.5877    1.7452    0.9766 O.2       1 <0>         0.0000
     23 O3          0.6128   -0.3552    2.4226 O.2       1 <0>         0.0000
     24 O4         -0.3512    1.4983   -1.8215 O.3       1 <0>         0.0000
     25 O5          3.7305   -3.9799   -2.7052 O.3       1 <0>         0.0000
     26 O6          2.7034   -0.1197   -3.4989 O.3       1 <0>         0.0000
     27 S1          0.3414    0.3085    1.1382 S.o2      1 <0>         0.0000
     28 H1         -4.1583   -0.8228    2.5591 H         1 <0>         0.0000
     29 H2          3.1346   -3.3942   -0.4153 H         1 <0>         0.0000
     30 H3         -1.7103   -0.4926    2.8148 H         1 <0>         0.0000
     31 H4          1.6623   -2.1966    1.2201 H         1 <0>         0.0000
     32 H5         -3.8003    0.0168   -1.6346 H         1 <0>         0.0000
     33 H6         -0.6009   -0.5608   -2.0578 H         1 <0>         0.0000
     34 H7         -1.8985    0.4875   -2.6313 H         1 <0>         0.0000
     35 H8         -6.1554    0.3985    0.3992 H         1 <0>         0.0000
     36 H9         -5.9062   -0.9381   -0.7279 H         1 <0>         0.0000
     37 H10        -6.0683   -1.2570    1.0080 H         1 <0>         0.0000
     38 H11         5.4744   -1.9447   -0.4578 H         1 <0>         0.0000
     39 H12         5.7049   -3.6197   -0.9899 H         1 <0>         0.0000
     40 H13         7.0136   -2.4388   -1.1676 H         1 <0>         0.0000
     41 H14         5.2022   -0.0578   -2.2127 H         1 <0>         0.0000
     42 H15         6.7832   -0.5145   -2.8568 H         1 <0>         0.0000
     43 H16         5.3719   -0.4299   -3.9288 H         1 <0>         0.0000
     44 H17         2.0764    0.2568   -5.3883 H         1 <0>         0.0000
     45 H18         0.9434    0.8322   -4.1493 H         1 <0>         0.0000
     46 H19         1.0606   -0.9230   -4.5097 H         1 <0>         0.0000
     47 H20         3.6863   -2.2699   -3.8886 H         1 <0>         0.0000
     48 H21         5.9894   -2.7886   -3.3627 H         1 <0>         0.0000
     49 H22         4.4010   -4.4359   -3.2382 H         1 <0>         0.0000
@<TRIPOS>BOND
     1    1    3 ar
     2    1    8 ar
     3    1   28 1
     4    2    4 ar
     5    2    9 ar
     6    2   29 1
     7    3   12 ar
     8    3   30 1
     9    4   11 ar
    10    4   31 1
    11    5    7 ar
    12    5    8 ar
    13    5   32 1
    14    6   10 ar
    15    6   11 ar
    16    6   13 1
    17    7   12 ar
    18    7   14 1
    19    8   15 1
    20    9   10 ar
    21    9   19 1
    22   10   26 1
    23   11   27 1
    24   12   27 1
    25   13   21 2
    26   13   24 1
    27   14   24 1
    28   14   33 1
    29   14   34 1
    30   15   35 1
    31   15   36 1
    32   15   37 1
    33   16   20 1
    34   16   38 1
    35   16   39 1
    36   16   40 1
    37   17   20 1
    38   17   41 1
    39   17   42 1
    40   17   43 1
    41   18   26 1
    42   18   44 1
    43   18   45 1
    44   18   46 1
    45   19   20 1
    46   19   25 1
    47   19   47 1
    48   20   48 1
    49   22   27 2
    50   23   27 2
    51   25   49 1
