@<TRIPOS>MOLECULE
*****
   20    21     0     0     0
SMALL
NO_CHARGES

@<TRIPOS>ATOM
      1 C1          5.9160    0.5410    0.8830 C.ar      1 <0>         0.0000
      2 C2          4.5780    0.9050    1.0180 C.ar      1 <0>         0.0000
      3 C3          6.2690   -0.5200    0.0510 C.ar      1 <0>         0.0000
      4 C4          3.5900    0.2150    0.3220 C.ar      1 <0>         0.0000
      5 C5          5.2900   -1.2140   -0.6500 C.ar      1 <0>         0.0000
      6 C6         -0.0210   -0.2440   -2.1960 C.2       1 <0>         0.0000
      7 C7         -0.0770   -1.4950   -2.6820 C.2       1 <0>         0.0000
      8 C8          3.9500   -0.8430   -0.5180 C.ar      1 <0>         0.0000
      9 C9          1.7520   -1.1860   -1.6840 C.2       1 <0>         0.0000
     10 N1          1.1610   -0.0440   -1.5530 N.2       1 <0>         0.0000
     11 N2          2.9980   -1.5910   -1.2420 N.pl3     1 <0>         0.0000
     12 O1          1.0570   -2.1150   -2.3630 O.3       1 <0>         0.0000
     13 H1          6.6650    1.0700    1.4150 H         1 <0>         0.0000
     14 H2          4.3100    1.7100    1.6530 H         1 <0>         0.0000
     15 H3          7.2880   -0.7950   -0.0480 H         1 <0>         0.0000
     16 H4          2.5750    0.4890    0.4400 H         1 <0>         0.0000
     17 H5          5.5590   -2.0180   -1.2840 H         1 <0>         0.0000
     18 H6         -0.7800    0.4890   -2.2940 H         1 <0>         0.0000
     19 H7         -0.8400   -1.9840   -3.2300 H         1 <0>         0.0000
     20 H8          3.2780   -2.5170   -1.5780 H         1 <0>         0.0000
@<TRIPOS>BOND
     1    1    2 ar
     2    1    3 ar
     3    1   13 1
     4    2    4 ar
     5    2   14 1
     6    3    5 ar
     7    3   15 1
     8    4    8 ar
     9    4   16 1
    10    5    8 ar
    11    5   17 1
    12    6    7 2
    13    6   10 1
    14    6   18 1
    15    7   12 1
    16    7   19 1
    17    8   11 1
    18    9   10 2
    19    9   11 1
    20    9   12 1
    21   11   20 1
