@<TRIPOS>MOLECULE
*****
   46    48     0     0     0
SMALL
NO_CHARGES

@<TRIPOS>ATOM
      1 C1          1.3064   -0.9817    4.7418 C.ar      1 <0>         0.0000
      2 C2          1.3118   -1.5274    3.4583 C.ar      1 <0>         0.0000
      3 C3          1.5223    0.6910    2.4313 C.ar      1 <0>         0.0000
      4 C4          1.4049    0.4059    4.8771 C.ar      1 <0>         0.0000
      5 C5          1.4191   -0.7090    2.3070 C.ar      1 <0>         0.0000
      6 C6          1.5091    1.1904    3.7232 C.ar      1 <0>         0.0000
      7 C7          1.5347    2.4388    5.5089 C.2       1 <0>         0.0000
      8 C8          1.6039   -2.5969    0.6789 C.2       1 <0>         0.0000
      9 C9         -0.1553   -2.4418   -4.0742 C.2       1 <0>         0.0000
     10 C10         1.9149    6.5052    5.6726 C.2       1 <0>         0.0000
     11 C11         1.3733   -0.4317   -0.1908 C.3       1 <0>         0.0000
     12 C12         1.1887   -1.4757   -1.3000 C.3       1 <0>         0.0000
     13 C13        -0.2345   -3.6581   -4.9778 C.3       1 <0>         0.0000
     14 C14         2.4613    9.6409    3.8905 C.3       1 <0>         0.0000
     15 C15         1.8286    5.1117    5.0789 C.3       1 <0>         0.0000
     16 C16        -0.2601   -1.5982   -1.7735 C.3       1 <0>         0.0000
     17 C17         2.2239    8.7976    5.1284 C.3       1 <0>         0.0000
     18 N1          1.4257    1.2440    5.9995 N.2       1 <0>         0.0000
     19 N2          1.3990   -1.2646    1.0049 N.am      1 <0>         0.0000
     20 N3         -0.4330   -2.6612   -2.7466 N.am      1 <0>         0.0000
     21 O1          1.7704   -3.5448    1.4141 O.2       1 <0>         0.0000
     22 O2          0.1160   -1.3210   -4.5048 O.2       1 <0>         0.0000
     23 O3          1.8094    6.7721    6.8524 O.2       1 <0>         0.0000
     24 O4          1.5938    2.5129    4.1211 O.3       1 <0>         0.0000
     25 O5          1.5911   -2.7229   -0.6873 O.3       1 <0>         0.0000
     26 O6          2.1240    7.4087    4.6962 O.3       1 <0>         0.0000
     27 S1          1.5961    3.9148    6.4462 S.3       1 <0>         0.0000
     28 H1          1.2253   -1.6229    5.6139 H         1 <0>         0.0000
     29 H2          1.2453   -2.5987    3.3317 H         1 <0>         0.0000
     30 H3          1.6132    1.3529    1.5790 H         1 <0>         0.0000
     31 H4          2.3077    0.1314   -0.3042 H         1 <0>         0.0000
     32 H5          0.5401    0.2778   -0.1600 H         1 <0>         0.0000
     33 H6          1.8443   -1.3038   -2.1542 H         1 <0>         0.0000
     34 H7         -0.9986   -3.4777   -5.7387 H         1 <0>         0.0000
     35 H8          0.7219   -3.7748   -5.4942 H         1 <0>         0.0000
     36 H9         -0.4726   -4.5838   -4.4471 H         1 <0>         0.0000
     37 H10         3.3881    9.3484    3.3886 H         1 <0>         0.0000
     38 H11         1.6343    9.5390    3.1819 H         1 <0>         0.0000
     39 H12         2.5420   10.6943    4.1766 H         1 <0>         0.0000
     40 H13         2.7430    4.8961    4.5222 H         1 <0>         0.0000
     41 H14         0.9928    5.0694    4.3773 H         1 <0>         0.0000
     42 H15        -0.5617   -0.6596   -2.2442 H         1 <0>         0.0000
     43 H16        -0.9139   -1.7873   -0.9154 H         1 <0>         0.0000
     44 H17         1.2966    9.0659    5.6415 H         1 <0>         0.0000
     45 H18         3.0437    8.8760    5.8471 H         1 <0>         0.0000
     46 H19        -0.4425   -3.6125   -2.4028 H         1 <0>         0.0000
@<TRIPOS>BOND
     1    1    2 ar
     2    1    4 ar
     3    1   28 1
     4    2    5 ar
     5    2   29 1
     6    3    5 ar
     7    3    6 ar
     8    3   30 1
     9    4    6 ar
    10    4   18 1
    11    5   19 1
    12    6   24 1
    13    7   18 2
    14    7   24 1
    15    7   27 1
    16    8   19 am
    17    8   21 2
    18    8   25 1
    19    9   13 1
    20    9   20 am
    21    9   22 2
    22   10   15 1
    23   10   23 2
    24   10   26 1
    25   11   12 1
    26   11   19 1
    27   11   31 1
    28   11   32 1
    29   12   16 1
    30   12   25 1
    31   12   33 1
    32   13   34 1
    33   13   35 1
    34   13   36 1
    35   14   17 1
    36   14   37 1
    37   14   38 1
    38   14   39 1
    39   15   27 1
    40   15   40 1
    41   15   41 1
    42   16   20 1
    43   16   42 1
    44   16   43 1
    45   17   26 1
    46   17   44 1
    47   17   45 1
    48   20   46 1
