@<TRIPOS>MOLECULE
*****
   46    48     0     0     0
SMALL
NO_CHARGES

@<TRIPOS>ATOM
      1 C1         -1.7317    1.9623   -1.7665 C.ar      1 <0>         0.0000
      2 C2         -2.7941    2.8451   -1.9194 C.ar      1 <0>         0.0000
      3 C3         -2.5272    2.2798    4.0384 C.2       1 <0>         0.0000
      4 C4         -1.7038    1.0900   -0.6757 C.ar      1 <0>         0.0000
      5 C5         -3.7754    2.0644    0.1761 C.ar      1 <0>         0.0000
      6 C6         -3.7955    2.9192   -0.9437 C.ar      1 <0>         0.0000
      7 C7         -2.7391    1.1125    0.2583 C.ar      1 <0>         0.0000
      8 C8          0.3531    1.4259    1.5736 C.2       1 <0>         0.0000
      9 C9          1.9382    0.0137    0.1265 C.2       1 <0>         0.0000
     10 C10        -0.5059    0.1969   -0.4644 C.2       1 <0>         0.0000
     11 C11         0.7861    0.5444    2.7230 C.3       1 <0>         0.0000
     12 C12         2.0356   -1.0566    1.1972 C.3       1 <0>         0.0000
     13 C13         0.9770   -0.9187    2.3013 C.3       1 <0>         0.0000
     14 C14         0.7049    0.9187    0.1550 C.3       1 <0>         0.0000
     15 C15        -4.4007    5.6803   -0.6518 C.3       1 <0>         0.0000
     16 C16        -4.9794    2.7558    3.4655 C.3       1 <0>         0.0000
     17 C17        -4.7606    3.2158    2.0333 C.3       1 <0>         0.0000
     18 N1         -1.9082    1.3040    4.6792 N.2       1 <0>         0.0000
     19 N2         -2.8826    0.4268    5.0533 N.2       1 <0>         0.0000
     20 N3         -4.0485    0.8383    4.6648 N.2       1 <0>         0.0000
     21 N4         -3.8497    2.0154    4.0193 N.pl3     1 <0>         0.0000
     22 O1         -0.2294    2.4892    1.7125 O.2       1 <0>         0.0000
     23 O2          2.7969    0.1898   -0.7186 O.2       1 <0>         0.0000
     24 O3         -0.4885   -0.9746   -0.7782 O.2       1 <0>         0.0000
     25 O4         -5.1826    4.2710   -2.7400 O.2       1 <0>         0.0000
     26 O5         -6.2986    3.8209   -0.4870 O.2       1 <0>         0.0000
     27 O6         -4.7007    2.0656    1.1754 O.3       1 <0>         0.0000
     28 S1         -5.1040    4.1344   -1.2799 S.o2      1 <0>         0.0000
     29 Cl1        -2.7326   -0.0188    1.5829 Cl        1 <0>         0.0000
     30 H1         -0.9320    1.9377   -2.5016 H         1 <0>         0.0000
     31 H2         -2.8629    3.4792   -2.7973 H         1 <0>         0.0000
     32 H3         -2.0437    3.1235    3.5679 H         1 <0>         0.0000
     33 H4          1.7379    0.9599    3.0881 H         1 <0>         0.0000
     34 H5          0.0615    0.6617    3.5333 H         1 <0>         0.0000
     35 H6          1.9592   -2.0244    0.6900 H         1 <0>         0.0000
     36 H7          3.0503   -0.9982    1.6069 H         1 <0>         0.0000
     37 H8          0.0215   -1.3275    1.9606 H         1 <0>         0.0000
     38 H9          1.2720   -1.5110    3.1717 H         1 <0>         0.0000
     39 H10         0.8939    1.8033   -0.4610 H         1 <0>         0.0000
     40 H11        -5.1312    6.4566   -0.8899 H         1 <0>         0.0000
     41 H12        -4.2559    5.6099    0.4260 H         1 <0>         0.0000
     42 H13        -3.4578    5.8719   -1.1651 H         1 <0>         0.0000
     43 H14        -5.8382    2.0856    3.5172 H         1 <0>         0.0000
     44 H15        -5.1842    3.6305    4.0921 H         1 <0>         0.0000
     45 H16        -5.6050    3.8406    1.7306 H         1 <0>         0.0000
     46 H17        -3.8339    3.7939    1.9441 H         1 <0>         0.0000
@<TRIPOS>BOND
     1    1    2 ar
     2    1    4 ar
     3    1   30 1
     4    2    6 ar
     5    2   31 1
     6    3   18 2
     7    3   21 1
     8    3   32 1
     9    4    7 ar
    10    4   10 1
    11    5    6 ar
    12    5    7 ar
    13    5   27 1
    14    6   28 1
    15    7   29 1
    16    8   11 1
    17    8   14 1
    18    8   22 2
    19    9   12 1
    20    9   14 1
    21    9   23 2
    22   10   14 1
    23   10   24 2
    24   11   13 1
    25   11   33 1
    26   11   34 1
    27   12   13 1
    28   12   35 1
    29   12   36 1
    30   13   37 1
    31   13   38 1
    32   14   39 1
    33   15   28 1
    34   15   40 1
    35   15   41 1
    36   15   42 1
    37   16   17 1
    38   16   21 1
    39   16   43 1
    40   16   44 1
    41   17   27 1
    42   17   45 1
    43   17   46 1
    44   18   19 1
    45   19   20 2
    46   20   21 1
    47   25   28 2
    48   26   28 2
