@<TRIPOS>MOLECULE
*****
   61    64     0     0     0
SMALL
NO_CHARGES

@<TRIPOS>ATOM
      1 C1         -9.1511   -1.3591    5.8955 C.ar      1 <0>         0.0000
      2 C2         -7.1238   -1.7893    4.6254 C.ar      1 <0>         0.0000
      3 C3         -8.4016   -0.8118    6.9284 C.ar      1 <0>         0.0000
      4 C4         -6.3754   -1.2375    5.6622 C.ar      1 <0>         0.0000
      5 C5        -10.0084   -3.6042    0.5282 C.ar      1 <0>         0.0000
      6 C6         -8.5278   -1.8554    4.7293 C.ar      1 <0>         0.0000
      7 C7         -7.0099   -0.7557    6.8075 C.ar      1 <0>         0.0000
      8 C8         -8.7445   -3.7158   -0.0260 C.ar      1 <0>         0.0000
      9 C9         -7.6327   -3.3572    0.7806 C.ar      1 <0>         0.0000
     10 C10        -9.1062   -2.8406    2.4649 C.ar      1 <0>         0.0000
     11 C11        -2.7113   -3.3499    1.4535 C.3       1 <0>         0.0000
     12 C12        -3.7953   -1.1900    2.1200 C.3       1 <0>         0.0000
     13 C13        -3.9327   -3.7235    0.6052 C.3       1 <0>         0.0000
     14 C14        -5.0106   -1.5535    1.2574 C.3       1 <0>         0.0000
     15 C15         1.1544   -1.7378    2.5626 C.3       1 <0>         0.0000
     16 C16        -0.0671   -0.0861    3.9660 C.3       1 <0>         0.0000
     17 C17        -0.0801   -1.8057    1.6610 C.3       1 <0>         0.0000
     18 C18        -1.2647   -0.2206    3.0209 C.3       1 <0>         0.0000
     19 C19        -2.5045   -1.8262    1.5785 C.3       1 <0>         0.0000
     20 C20        -5.1974   -3.0726    1.1643 C.3       1 <0>         0.0000
     21 C21         1.2429   -0.3751    3.2481 C.3       1 <0>         0.0000
     22 N1        -10.2194   -3.1657    1.7776 N.ar      1 <0>         0.0000
     23 N2         -7.8442   -2.9201    2.0369 N.ar      1 <0>         0.0000
     24 N3         -1.3156   -1.5582    2.4151 N.3       1 <0>         0.0000
     25 N4         -5.7322   -1.3772    9.1515 N.pl3     1 <0>         0.0000
     26 N5         -9.3644   -2.3784    3.7425 N.pl3     1 <0>         0.0000
     27 N6         -6.3542   -3.4444    0.3488 N.pl3     1 <0>         0.0000
     28 O1         -4.7474    0.3575    7.5594 O.2       1 <0>         0.0000
     29 O2         -6.8942    0.8635    8.8867 O.2       1 <0>         0.0000
     30 O3          2.2961   -0.3130    4.2182 O.3       1 <0>         0.0000
     31 S1         -6.0377   -0.0524    8.1252 S.o2      1 <0>         0.0000
     32 Br1        -8.5032   -4.3403   -1.8211 Br        1 <0>         0.0000
     33 H1        -10.2348   -1.3945    5.9818 H         1 <0>         0.0000
     34 H2         -6.6410   -2.1615    3.7356 H         1 <0>         0.0000
     35 H3         -8.8881   -0.4115    7.8119 H         1 <0>         0.0000
     36 H4         -5.2958   -1.1650    5.5738 H         1 <0>         0.0000
     37 H5        -10.8888   -3.8740   -0.0515 H         1 <0>         0.0000
     38 H6         -2.8242   -3.7534    2.4670 H         1 <0>         0.0000
     39 H7         -1.8272   -3.8292    1.0257 H         1 <0>         0.0000
     40 H8         -3.7098   -0.1012    2.1495 H         1 <0>         0.0000
     41 H9         -3.9590   -1.5266    3.1528 H         1 <0>         0.0000
     42 H10        -3.7812   -3.3892   -0.4315 H         1 <0>         0.0000
     43 H11        -4.0519   -4.8126    0.5784 H         1 <0>         0.0000
     44 H12        -5.9130   -1.0950    1.6701 H         1 <0>         0.0000
     45 H13        -4.8811   -1.1537    0.2429 H         1 <0>         0.0000
     46 H14         1.0925   -2.5163    3.3308 H         1 <0>         0.0000
     47 H15         2.0537   -1.9271    1.9611 H         1 <0>         0.0000
     48 H16        -0.0455    0.9217    4.3933 H         1 <0>         0.0000
     49 H17        -0.1755   -0.7966    4.7928 H         1 <0>         0.0000
     50 H18         0.0248   -1.0736    0.8340 H         1 <0>         0.0000
     51 H19        -0.1272   -2.7936    1.1990 H         1 <0>         0.0000
     52 H20        -2.1705   -0.0512    3.6031 H         1 <0>         0.0000
     53 H21        -1.2192    0.5728    2.2475 H         1 <0>         0.0000
     54 H22        -2.3477   -1.4112    0.5619 H         1 <0>         0.0000
     55 H23        -5.3764   -3.4648    2.1713 H         1 <0>         0.0000
     56 H24         1.4037    0.3982    2.4782 H         1 <0>         0.0000
     57 H25        -4.7307   -1.5671    9.1636 H         1 <0>         0.0000
     58 H26        -6.0692   -1.1518   10.0868 H         1 <0>         0.0000
     59 H27       -10.3585   -2.3565    3.9367 H         1 <0>         0.0000
     60 H28        -6.2047   -3.7386   -0.6079 H         1 <0>         0.0000
     61 H29         3.1311   -0.5154    3.7672 H         1 <0>         0.0000
@<TRIPOS>BOND
     1    1    3 ar
     2    1    6 ar
     3    1   33 1
     4    2    4 ar
     5    2    6 ar
     6    2   34 1
     7    3    7 ar
     8    3   35 1
     9    4    7 ar
    10    4   36 1
    11    5    8 ar
    12    5   22 ar
    13    5   37 1
    14    6   26 1
    15    7   31 1
    16    8    9 ar
    17    8   32 1
    18    9   23 ar
    19    9   27 1
    20   10   22 ar
    21   10   23 ar
    22   10   26 1
    23   11   13 1
    24   11   19 1
    25   11   38 1
    26   11   39 1
    27   12   14 1
    28   12   19 1
    29   12   40 1
    30   12   41 1
    31   13   20 1
    32   13   42 1
    33   13   43 1
    34   14   20 1
    35   14   44 1
    36   14   45 1
    37   15   17 1
    38   15   21 1
    39   15   46 1
    40   15   47 1
    41   16   18 1
    42   16   21 1
    43   16   48 1
    44   16   49 1
    45   17   24 1
    46   17   50 1
    47   17   51 1
    48   18   24 1
    49   18   52 1
    50   18   53 1
    51   19   24 1
    52   19   54 1
    53   20   27 1
    54   20   55 1
    55   21   30 1
    56   21   56 1
    57   25   31 1
    58   25   57 1
    59   25   58 1
    60   26   59 1
    61   27   60 1
    62   28   31 2
    63   29   31 2
    64   30   61 1
