@<TRIPOS>MOLECULE
*****
   47    50     0     0     0
SMALL
NO_CHARGES

@<TRIPOS>ATOM
      1 C1         -0.2452    3.2287    4.2531 C.ar      1 <0>         0.0000
      2 C2         -1.5053    3.8182    4.2249 C.ar      1 <0>         0.0000
      3 C3         -0.9647    2.2180   -0.3587 C.ar      1 <0>         0.0000
      4 C4         -0.0209    2.0193    3.5832 C.ar      1 <0>         0.0000
      5 C5         -1.8126    2.7374   -1.3322 C.ar      1 <0>         0.0000
      6 C6         -3.4147    1.4740    2.0074 C.2       1 <0>         0.0000
      7 C7         -4.5978    2.1144    2.0064 C.2       1 <0>         0.0000
      8 C8         -2.5376    3.2051    3.5009 C.ar      1 <0>         0.0000
      9 C9         -2.3166    2.0013    2.7879 C.ar      1 <0>         0.0000
     10 C10        -0.8380    0.8339   -0.1893 C.ar      1 <0>         0.0000
     11 C11        -1.5552   -0.0641   -0.9931 C.ar      1 <0>         0.0000
     12 C12        -1.0359    1.3958    2.8538 C.ar      1 <0>         0.0000
     13 C13        -2.3682    0.4639   -2.0156 C.ar      1 <0>         0.0000
     14 C14        -2.5046    1.8534   -2.1549 C.ar      1 <0>         0.0000
     15 C15        -3.8570    3.8632    3.4813 C.2       1 <0>         0.0000
     16 C16        -0.4047   -2.0475    0.1984 C.3       1 <0>         0.0000
     17 C17        -1.4434   -1.5764   -0.8484 C.3       1 <0>         0.0000
     18 C18         0.0286    0.3115    0.9371 C.3       1 <0>         0.0000
     19 C19         0.6784   -1.0205    0.5038 C.3       1 <0>         0.0000
     20 C20        -2.7999   -2.2302   -0.5094 C.3       1 <0>         0.0000
     21 C21         1.6535   -1.5644    1.5748 C.3       1 <0>         0.0000
     22 N1         -0.7392    0.1712    2.1955 N.pl3     1 <0>         0.0000
     23 O1         -4.1503    4.8831    4.0668 O.2       1 <0>         0.0000
     24 O2         -4.8479    3.2499    2.7178 O.3       1 <0>         0.0000
     25 O3         -2.9914   -0.4102   -2.8615 O.3       1 <0>         0.0000
     26 O4          1.4274   -0.8244   -0.6898 O.3       1 <0>         0.0000
     27 F1          2.3622   -2.6095    1.0952 F         1 <0>         0.0000
     28 F2          2.5566   -0.5994    1.9216 F         1 <0>         0.0000
     29 F3          1.0538   -1.9802    2.7064 F         1 <0>         0.0000
     30 Cl1        -3.5560    2.4754   -3.4277 Cl        1 <0>         0.0000
     31 H1          0.5616    3.6898    4.8158 H         1 <0>         0.0000
     32 H2         -1.7145    4.7431    4.7519 H         1 <0>         0.0000
     33 H3         -0.4085    2.8945    0.2837 H         1 <0>         0.0000
     34 H4          0.9492    1.5322    3.6377 H         1 <0>         0.0000
     35 H5         -1.9331    3.8078   -1.4626 H         1 <0>         0.0000
     36 H6         -3.3092    0.6003    1.3766 H         1 <0>         0.0000
     37 H7         -5.4663    1.8055    1.4357 H         1 <0>         0.0000
     38 H8         -0.9056   -2.2938    1.1387 H         1 <0>         0.0000
     39 H9          0.0669   -2.9689   -0.1520 H         1 <0>         0.0000
     40 H10        -1.1306   -1.9520   -1.8280 H         1 <0>         0.0000
     41 H11         0.8252    1.0318    1.1402 H         1 <0>         0.0000
     42 H12        -3.1766   -1.8625    0.4532 H         1 <0>         0.0000
     43 H13        -2.6811   -3.3158   -0.4241 H         1 <0>         0.0000
     44 H14        -3.5503   -2.0268   -1.2731 H         1 <0>         0.0000
     45 H15        -1.5881   -0.3555    2.0173 H         1 <0>         0.0000
     46 H16        -3.4802    0.0984   -3.5337 H         1 <0>         0.0000
     47 H17         2.0314   -0.0726   -0.5694 H         1 <0>         0.0000
@<TRIPOS>BOND
     1    1    2 ar
     2    1    4 ar
     3    1   31 1
     4    2    8 ar
     5    2   32 1
     6    3    5 ar
     7    3   10 ar
     8    3   33 1
     9    4   12 ar
    10    4   34 1
    11    5   14 ar
    12    5   35 1
    13    6    9 1
    14    6    7 2
    15    6   36 1
    16    7   24 1
    17    7   37 1
    18    8    9 ar
    19    8   15 1
    20    9   12 ar
    21   10   11 ar
    22   10   18 1
    23   11   13 ar
    24   11   17 1
    25   12   22 1
    26   13   14 ar
    27   13   25 1
    28   14   30 1
    29   15   23 2
    30   15   24 1
    31   16   17 1
    32   16   19 1
    33   16   38 1
    34   16   39 1
    35   17   20 1
    36   17   40 1
    37   18   19 1
    38   18   22 1
    39   18   41 1
    40   19   21 1
    41   19   26 1
    42   20   42 1
    43   20   43 1
    44   20   44 1
    45   21   27 1
    46   21   28 1
    47   21   29 1
    48   22   45 1
    49   25   46 1
    50   26   47 1
