@<TRIPOS>MOLECULE
*****
   43    46     0     0     0
SMALL
NO_CHARGES

@<TRIPOS>ATOM
      1 C1          3.7850   -3.8516    0.1201 C.ar      1 <0>         0.0000
      2 C2          4.5923   -3.0589   -0.6955 C.ar      1 <0>         0.0000
      3 C3          2.8857   -1.8159    1.0520 C.ar      1 <0>         0.0000
      4 C4          2.9183   -3.2119    1.0078 C.ar      1 <0>         0.0000
      5 C5          4.4941   -1.6661   -0.5964 C.ar      1 <0>         0.0000
      6 C6          5.2966    1.8673    0.7521 C.2       1 <0>         0.0000
      7 C7          4.1139    1.3530   -1.0878 C.2       1 <0>         0.0000
      8 C8          1.9466    1.9747    0.9994 C.2       1 <0>         0.0000
      9 C9          5.6581    2.6295    1.9857 C.3       1 <0>         0.0000
     10 C10         4.4033    3.2070    2.6632 C.3       1 <0>         0.0000
     11 C11         3.4903    3.8974    1.6373 C.3       1 <0>         0.0000
     12 C12        -0.2826    1.0315    0.8253 C.3       1 <0>         0.0000
     13 C13        -1.5536    1.3668    0.0538 C.3       1 <0>         0.0000
     14 C14         0.4978    2.5632   -0.9771 C.3       1 <0>         0.0000
     15 C15         3.0299    2.9604    0.5029 C.3       1 <0>         0.0000
     16 C16         5.3300   -0.7408   -1.4772 C.3       1 <0>         0.0000
     17 N1          3.6570   -1.0703    0.2578 N.ar      1 <0>         0.0000
     18 N2          5.9772    0.9121    0.1919 N.2       1 <0>         0.0000
     19 N3          4.1785    2.2102    0.0099 N.am      1 <0>         0.0000
     20 N4          5.2882    0.6222   -0.9944 N.am      1 <0>         0.0000
     21 N5          0.7569    1.9527    0.3394 N.am      1 <0>         0.0000
     22 O1          3.2326    1.2963   -1.9440 O.2       1 <0>         0.0000
     23 O2          2.1485    1.2726    1.9952 O.2       1 <0>         0.0000
     24 S1         -0.9770    1.7106   -1.6497 S.3       1 <0>         0.0000
     25 Cl1         1.8804   -4.1465    2.0675 Cl        1 <0>         0.0000
     26 H1          3.8286   -4.9356    0.0744 H         1 <0>         0.0000
     27 H2          5.2868   -3.5185   -1.3945 H         1 <0>         0.0000
     28 H3          2.2370   -1.2799    1.7416 H         1 <0>         0.0000
     29 H4          6.2176    1.9738    2.6570 H         1 <0>         0.0000
     30 H5          6.3321    3.4471    1.6977 H         1 <0>         0.0000
     31 H6          3.8493    2.4084    3.1584 H         1 <0>         0.0000
     32 H7          4.7051    3.9339    3.4241 H         1 <0>         0.0000
     33 H8          2.6045    4.3086    2.1308 H         1 <0>         0.0000
     34 H9          4.0239    4.7383    1.1775 H         1 <0>         0.0000
     35 H10        -0.4057    1.1616    1.9033 H         1 <0>         0.0000
     36 H11         0.0277   -0.0025    0.6396 H         1 <0>         0.0000
     37 H12        -2.2511    0.5275    0.0327 H         1 <0>         0.0000
     38 H13        -2.0585    2.2431    0.4715 H         1 <0>         0.0000
     39 H14         0.2940    3.6344   -0.8718 H         1 <0>         0.0000
     40 H15         1.3317    2.3877   -1.6581 H         1 <0>         0.0000
     41 H16         2.6492    3.5611   -0.3242 H         1 <0>         0.0000
     42 H17         6.3720   -1.0675   -1.5078 H         1 <0>         0.0000
     43 H18         4.9366   -0.7430   -2.4979 H         1 <0>         0.0000
@<TRIPOS>BOND
     1    1    2 ar
     2    1    4 ar
     3    1   26 1
     4    2    5 ar
     5    2   27 1
     6    3    4 ar
     7    3   17 ar
     8    3   28 1
     9    4   25 1
    10    5   16 1
    11    5   17 ar
    12    6    9 1
    13    6   18 2
    14    6   19 1
    15    7   19 am
    16    7   20 am
    17    7   22 2
    18    8   15 1
    19    8   21 am
    20    8   23 2
    21    9   10 1
    22    9   29 1
    23    9   30 1
    24   10   11 1
    25   10   31 1
    26   10   32 1
    27   11   15 1
    28   11   33 1
    29   11   34 1
    30   12   13 1
    31   12   21 1
    32   12   35 1
    33   12   36 1
    34   13   24 1
    35   13   37 1
    36   13   38 1
    37   14   21 1
    38   14   24 1
    39   14   39 1
    40   14   40 1
    41   15   19 1
    42   15   41 1
    43   16   20 1
    44   16   42 1
    45   16   43 1
    46   18   20 1
