@<TRIPOS>MOLECULE
*****
    9     8     0     0     0
SMALL
NO_CHARGES

@<TRIPOS>ATOM
      1 C1          0.2749   -0.2883   -0.0478 C.2       1 <0>         0.0000
      2 C2          0.1410    0.9113   -0.9365 C.3       1 <0>         0.0000
      3 O1          1.2813   -0.9812    0.0193 O.2       1 <0>         0.0000
      4 O2         -0.6847   -1.6398    1.4870 O.3       1 <0>         0.0000
      5 O3         -0.8832   -0.4673    0.6508 O.3       1 <0>         0.0000
      6 H1         -0.2546    0.6008   -1.9078 H         1 <0>         0.0000
      7 H2         -0.5539    1.6276   -0.4911 H         1 <0>         0.0000
      8 H3          1.1210    1.3698   -1.0906 H         1 <0>         0.0000
      9 H4         -0.5181   -2.2579    0.7547 H         1 <0>         0.0000
@<TRIPOS>BOND
     1    1    2 1
     2    1    3 2
     3    1    5 1
     4    2    6 1
     5    2    7 1
     6    2    8 1
     7    4    5 1
     8    4    9 1
