@<TRIPOS>MOLECULE
*****
   40    40     0     0     0
SMALL
NO_CHARGES

@<TRIPOS>ATOM
      1 C1          9.0244   -1.8738   -1.0612 C.2       1 <0>         0.0000
      2 C2          7.3346   -1.4877    0.5188 C.2       1 <0>         0.0000
      3 C3         10.1002   -1.8169   -2.1050 C.2       1 <0>         0.0000
      4 C4          7.0067   -0.8096    8.2487 C.3       1 <0>         0.0000
      5 C5          9.5607   -4.6254   -6.4719 C.3       1 <0>         0.0000
      6 C6          6.2365   -0.5506    6.9494 C.3       1 <0>         0.0000
      7 C7         10.1291   -4.5217   -5.0522 C.3       1 <0>         0.0000
      8 C8          6.9975   -1.0207    5.7038 C.3       1 <0>         0.0000
      9 C9         11.0371   -3.3012   -4.8665 C.3       1 <0>         0.0000
     10 C10         6.2297   -0.7546    4.4016 C.3       1 <0>         0.0000
     11 C11        11.6373   -3.1843   -3.4596 C.3       1 <0>         0.0000
     12 C12         7.0080   -1.2382    3.1812 C.3       1 <0>         0.0000
     13 N1          8.5769   -2.9852   -0.5303 N.2       1 <0>         0.0000
     14 N2          7.5853   -2.7618    0.3871 N.2       1 <0>         0.0000
     15 N3         10.6295   -3.0245   -2.4133 N.am      1 <0>         0.0000
     16 O1         10.4392   -0.7390   -2.5960 O.2       1 <0>         0.0000
     17 O2          6.1341    0.6819    1.4697 O.2       1 <0>         0.0000
     18 S1          8.2692   -0.4177   -0.4837 S.3       1 <0>         0.0000
     19 S2          6.0680   -0.8229    1.6420 S.o       1 <0>         0.0000
     20 H1          7.2089   -1.8786    8.3826 H         1 <0>         0.0000
     21 H2          7.9704   -0.2875    8.2479 H         1 <0>         0.0000
     22 H3          6.4419   -0.4653    9.1214 H         1 <0>         0.0000
     23 H4         10.3631   -4.7077   -7.2140 H         1 <0>         0.0000
     24 H5          8.9141   -5.5025   -6.5796 H         1 <0>         0.0000
     25 H6          8.9671   -3.7391   -6.7230 H         1 <0>         0.0000
     26 H7          6.0206    0.5214    6.8568 H         1 <0>         0.0000
     27 H8          5.2636   -1.0572    6.9916 H         1 <0>         0.0000
     28 H9          9.3007   -4.4734   -4.3344 H         1 <0>         0.0000
     29 H10        10.6930   -5.4346   -4.8154 H         1 <0>         0.0000
     30 H11         7.2121   -2.0943    5.7919 H         1 <0>         0.0000
     31 H12         7.9709   -0.5143    5.6604 H         1 <0>         0.0000
     32 H13        11.8675   -3.3462   -5.5834 H         1 <0>         0.0000
     33 H14        10.4823   -2.3821   -5.0871 H         1 <0>         0.0000
     34 H15         6.0341    0.3186    4.3015 H         1 <0>         0.0000
     35 H16         5.2549   -1.2570    4.4408 H         1 <0>         0.0000
     36 H17        12.3018   -2.3186   -3.4081 H         1 <0>         0.0000
     37 H18        12.2242   -4.0762   -3.2167 H         1 <0>         0.0000
     38 H19         7.1495   -2.3234    3.1706 H         1 <0>         0.0000
     39 H20         7.9783   -0.7398    3.0915 H         1 <0>         0.0000
     40 H21        10.2148   -3.8357   -1.9687 H         1 <0>         0.0000
@<TRIPOS>BOND
     1    1    3 1
     2    1   13 2
     3    1   18 1
     4    2   14 2
     5    2   18 1
     6    2   19 1
     7    3   15 am
     8    3   16 2
     9    4    6 1
    10    4   20 1
    11    4   21 1
    12    4   22 1
    13    5    7 1
    14    5   23 1
    15    5   24 1
    16    5   25 1
    17    6    8 1
    18    6   26 1
    19    6   27 1
    20    7    9 1
    21    7   28 1
    22    7   29 1
    23    8   10 1
    24    8   30 1
    25    8   31 1
    26    9   11 1
    27    9   32 1
    28    9   33 1
    29   10   12 1
    30   10   34 1
    31   10   35 1
    32   11   15 1
    33   11   36 1
    34   11   37 1
    35   12   19 1
    36   12   38 1
    37   12   39 1
    38   13   14 1
    39   15   40 1
    40   17   19 2
