@<TRIPOS>MOLECULE
*****
   40    40     0     0     0
SMALL
NO_CHARGES

@<TRIPOS>ATOM
      1 C1          8.9119   -1.2545   -1.3428 C.2       1 <0>         0.0000
      2 C2          7.4183   -0.8080    0.4332 C.2       1 <0>         0.0000
      3 C3          9.9568   -1.3053   -2.4316 C.2       1 <0>         0.0000
      4 C4          7.3819   -1.9585    8.1250 C.3       1 <0>         0.0000
      5 C5          8.6111   -0.6043   -7.3657 C.3       1 <0>         0.0000
      6 C6          6.7284   -1.1730    6.9829 C.3       1 <0>         0.0000
      7 C7          9.1398    0.0101   -6.0647 C.3       1 <0>         0.0000
      8 C8          7.2880   -1.5494    5.6056 C.3       1 <0>         0.0000
      9 C9         10.4195   -0.6712   -5.5670 C.3       1 <0>         0.0000
     10 C10         6.6350   -0.7578    4.4642 C.3       1 <0>         0.0000
     11 C11        10.9940   -0.0546   -4.2854 C.3       1 <0>         0.0000
     12 C12         7.2112   -1.1463    3.1052 C.3       1 <0>         0.0000
     13 N1          8.1427   -2.2760   -1.0667 N.2       1 <0>         0.0000
     14 N2          7.2710   -2.0091   -0.0428 N.2       1 <0>         0.0000
     15 N3         10.0881   -0.1418   -3.1372 N.am      1 <0>         0.0000
     16 O1         10.6347   -2.3071   -2.6185 O.2       1 <0>         0.0000
     17 O2          6.9510    1.3051    1.9649 O.2       1 <0>         0.0000
     18 S1          8.6448    0.1576   -0.3380 S.3       1 <0>         0.0000
     19 S2          6.4290   -0.1084    1.7891 S.o       1 <0>         0.0000
     20 H1          7.2280   -3.0368    8.0026 H         1 <0>         0.0000
     21 H2          8.4626   -1.7798    8.1602 H         1 <0>         0.0000
     22 H3          6.9645   -1.6703    9.0955 H         1 <0>         0.0000
     23 H4          8.3836   -1.6678   -7.2328 H         1 <0>         0.0000
     24 H5          7.6954   -0.1050   -7.6993 H         1 <0>         0.0000
     25 H6          9.3504   -0.5209   -8.1704 H         1 <0>         0.0000
     26 H7          6.8701   -0.0972    7.1477 H         1 <0>         0.0000
     27 H8          5.6442   -1.3446    6.9921 H         1 <0>         0.0000
     28 H9          9.3306    1.0817   -6.2159 H         1 <0>         0.0000
     29 H10         8.3612   -0.0626   -5.2943 H         1 <0>         0.0000
     30 H11         7.1466   -2.6252    5.4360 H         1 <0>         0.0000
     31 H12         8.3722   -1.3752    5.5941 H         1 <0>         0.0000
     32 H13        10.2350   -1.7365   -5.3906 H         1 <0>         0.0000
     33 H14        11.1935   -0.6102   -6.3431 H         1 <0>         0.0000
     34 H15         6.7876    0.3150    4.6253 H         1 <0>         0.0000
     35 H16         5.5517   -0.9327    4.4696 H         1 <0>         0.0000
     36 H17        11.2265    1.0047   -4.4362 H         1 <0>         0.0000
     37 H18        11.9174   -0.5659   -4.0055 H         1 <0>         0.0000
     38 H19         7.0049   -2.1873    2.8370 H         1 <0>         0.0000
     39 H20         8.2878   -0.9584    3.0478 H         1 <0>         0.0000
     40 H21         9.3551    0.5511   -3.0569 H         1 <0>         0.0000
@<TRIPOS>BOND
     1    1    3 1
     2    1   13 2
     3    1   18 1
     4    2   14 2
     5    2   18 1
     6    2   19 1
     7    3   15 am
     8    3   16 2
     9    4    6 1
    10    4   20 1
    11    4   21 1
    12    4   22 1
    13    5    7 1
    14    5   23 1
    15    5   24 1
    16    5   25 1
    17    6    8 1
    18    6   26 1
    19    6   27 1
    20    7    9 1
    21    7   28 1
    22    7   29 1
    23    8   10 1
    24    8   30 1
    25    8   31 1
    26    9   11 1
    27    9   32 1
    28    9   33 1
    29   10   12 1
    30   10   34 1
    31   10   35 1
    32   11   15 1
    33   11   36 1
    34   11   37 1
    35   12   19 1
    36   12   38 1
    37   12   39 1
    38   13   14 1
    39   15   40 1
    40   17   19 2
