@<TRIPOS>MOLECULE
*****
   34    35     0     0     0
SMALL
NO_CHARGES

@<TRIPOS>ATOM
      1 C1          0.2782    0.8271   -0.8875 C.ar      1 <0>         0.0000
      2 C2         -1.1119    0.7344   -1.0103 C.ar      1 <0>         0.0000
      3 C3          0.2875    2.8911   -2.1787 C.ar      1 <0>         0.0000
      4 C4          0.9856    1.8972   -1.4665 C.ar      1 <0>         0.0000
      5 C5         -1.7875    1.7303   -1.7148 C.ar      1 <0>         0.0000
      6 C6         -1.0944    2.8037   -2.2956 C.ar      1 <0>         0.0000
      7 C7          2.4742    2.0232   -1.3514 C.2       1 <0>         0.0000
      8 C8         -3.9116   -0.4284   -2.8265 C.2       1 <0>         0.0000
      9 C9         -2.0540    3.7335   -3.0115 C.3       1 <0>         0.0000
     10 C10        -3.4375    3.2980   -2.4640 C.3       1 <0>         0.0000
     11 C11        -3.2737    1.8252   -2.0181 C.3       1 <0>         0.0000
     12 C12         3.2405    0.9727   -0.5654 C.3       1 <0>         0.0000
     13 C13        -5.2316   -2.3430   -3.8376 C.3       1 <0>         0.0000
     14 C14        -4.1223   -1.3087   -4.0540 C.3       1 <0>         0.0000
     15 N1         -3.6701    0.8948   -3.0835 N.am      1 <0>         0.0000
     16 O1          3.0681    2.9569   -1.8816 O.2       1 <0>         0.0000
     17 O2         -3.9541   -0.8764   -1.6796 O.2       1 <0>         0.0000
     18 H1          0.8091    0.0594   -0.3334 H         1 <0>         0.0000
     19 H2         -1.6613   -0.0942   -0.5734 H         1 <0>         0.0000
     20 H3          0.8533    3.7095   -2.6148 H         1 <0>         0.0000
     21 H4         -1.8433    4.7896   -2.8194 H         1 <0>         0.0000
     22 H5         -1.9838    3.5911   -4.0981 H         1 <0>         0.0000
     23 H6         -3.6798    3.8986   -1.5825 H         1 <0>         0.0000
     24 H7         -4.2540    3.4233   -3.1807 H         1 <0>         0.0000
     25 H8         -3.8882    1.5754   -1.1520 H         1 <0>         0.0000
     26 H9          3.0972   -0.0226   -0.9994 H         1 <0>         0.0000
     27 H10         2.8938    0.9301    0.4726 H         1 <0>         0.0000
     28 H11         4.3014    1.2246   -0.5826 H         1 <0>         0.0000
     29 H12        -5.0293   -2.9326   -2.9407 H         1 <0>         0.0000
     30 H13        -6.2030   -1.8552   -3.7071 H         1 <0>         0.0000
     31 H14        -5.3007   -3.0184   -4.6960 H         1 <0>         0.0000
     32 H15        -4.3295   -0.6962   -4.9392 H         1 <0>         0.0000
     33 H16        -3.1698   -1.8212   -4.2389 H         1 <0>         0.0000
     34 H17        -3.4823    1.1677   -4.0403 H         1 <0>         0.0000
@<TRIPOS>BOND
     1    1    2 ar
     2    1    4 ar
     3    1   18 1
     4    2    5 ar
     5    2   19 1
     6    3    4 ar
     7    3    6 ar
     8    3   20 1
     9    4    7 1
    10    5    6 ar
    11    5   11 1
    12    6    9 1
    13    7   12 1
    14    7   16 2
    15    8   14 1
    16    8   15 am
    17    8   17 2
    18    9   10 1
    19    9   21 1
    20    9   22 1
    21   10   11 1
    22   10   23 1
    23   10   24 1
    24   11   15 1
    25   11   25 1
    26   12   26 1
    27   12   27 1
    28   12   28 1
    29   13   14 1
    30   13   29 1
    31   13   30 1
    32   13   31 1
    33   14   32 1
    34   14   33 1
    35   15   34 1
