@<TRIPOS>MOLECULE
*****
   40    40     0     0     0
SMALL
NO_CHARGES

@<TRIPOS>ATOM
      1 C1          9.0972   -1.1717   -1.8103 C.2       1 <0>         0.0000
      2 C2          7.5803   -1.5581   -0.0397 C.2       1 <0>         0.0000
      3 C3          9.9149   -0.7282   -2.9995 C.2       1 <0>         0.0000
      4 C4          7.3757   -0.3150    7.6253 C.3       1 <0>         0.0000
      5 C5         14.3303    1.8395   -2.3892 C.3       1 <0>         0.0000
      6 C6          6.5141   -0.6371    6.3995 C.3       1 <0>         0.0000
      7 C7         12.8176    1.9016   -2.6285 C.3       1 <0>         0.0000
      8 C8          7.3399   -0.7906    5.1166 C.3       1 <0>         0.0000
      9 C9         12.3874    1.1401   -3.8870 C.3       1 <0>         0.0000
     10 C10         6.4763   -1.1044    3.8872 C.3       1 <0>         0.0000
     11 C11        10.8823    1.2110   -4.1732 C.3       1 <0>         0.0000
     12 C12         7.3240   -1.2461    2.6260 C.3       1 <0>         0.0000
     13 N1          9.3693   -2.2661   -1.1473 N.2       1 <0>         0.0000
     14 N2          8.4840   -2.4893   -0.1252 N.2       1 <0>         0.0000
     15 N3         10.0557    0.6269   -3.1137 N.am      1 <0>         0.0000
     16 O1         10.3711   -1.5373   -3.7962 O.2       1 <0>         0.0000
     17 O2          5.4756   -0.2502    0.9016 O.2       1 <0>         0.0000
     18 S1          7.6944   -0.2932   -1.2298 S.3       1 <0>         0.0000
     19 S2          6.2214   -1.5434    1.1702 S.o       1 <0>         0.0000
     20 H1          8.1113   -1.1061    7.8110 H         1 <0>         0.0000
     21 H2          7.9254    0.6230    7.4866 H         1 <0>         0.0000
     22 H3          6.7624   -0.2118    8.5265 H         1 <0>         0.0000
     23 H4         14.8810    2.2755   -3.2304 H         1 <0>         0.0000
     24 H5         14.6143    2.3862   -1.4839 H         1 <0>         0.0000
     25 H6         14.6666    0.8030   -2.2743 H         1 <0>         0.0000
     26 H7          5.7680    0.1548    6.2555 H         1 <0>         0.0000
     27 H8          5.9498   -1.5613    6.5794 H         1 <0>         0.0000
     28 H9         12.3006    1.4861   -1.7537 H         1 <0>         0.0000
     29 H10        12.5013    2.9510   -2.7090 H         1 <0>         0.0000
     30 H11         8.0851   -1.5853    5.2557 H         1 <0>         0.0000
     31 H12         7.9048    0.1338    4.9362 H         1 <0>         0.0000
     32 H13        12.9127    1.5478   -4.7605 H         1 <0>         0.0000
     33 H14        12.6793    0.0873   -3.8083 H         1 <0>         0.0000
     34 H15         5.7418   -0.3052    3.7389 H         1 <0>         0.0000
     35 H16         5.9134   -2.0304    4.0602 H         1 <0>         0.0000
     36 H17        10.6516    0.6727   -5.0951 H         1 <0>         0.0000
     37 H18        10.5607    2.2500   -4.2996 H         1 <0>         0.0000
     38 H19         8.0116   -2.0965    2.6681 H         1 <0>         0.0000
     39 H20         7.8836   -0.3318    2.4055 H         1 <0>         0.0000
     40 H21         9.8313    1.2028   -2.3127 H         1 <0>         0.0000
@<TRIPOS>BOND
     1    1    3 1
     2    1   13 2
     3    1   18 1
     4    2   14 2
     5    2   18 1
     6    2   19 1
     7    3   15 am
     8    3   16 2
     9    4    6 1
    10    4   20 1
    11    4   21 1
    12    4   22 1
    13    5    7 1
    14    5   23 1
    15    5   24 1
    16    5   25 1
    17    6    8 1
    18    6   26 1
    19    6   27 1
    20    7    9 1
    21    7   28 1
    22    7   29 1
    23    8   10 1
    24    8   30 1
    25    8   31 1
    26    9   11 1
    27    9   32 1
    28    9   33 1
    29   10   12 1
    30   10   34 1
    31   10   35 1
    32   11   15 1
    33   11   36 1
    34   11   37 1
    35   12   19 1
    36   12   38 1
    37   12   39 1
    38   13   14 1
    39   15   40 1
    40   17   19 2
