@<TRIPOS>MOLECULE
*****
   39    41     0     0     0
SMALL
NO_CHARGES

@<TRIPOS>ATOM
      1 C1          1.0671    1.4120   -6.5689 C.ar      1 <0>         0.0000
      2 C2          2.0240    1.9212   -5.6833 C.ar      1 <0>         0.0000
      3 C3         -0.2214    1.1007   -6.1199 C.ar      1 <0>         0.0000
      4 C4          1.6996    2.1155   -4.3384 C.ar      1 <0>         0.0000
      5 C5         -0.5597    1.2899   -4.7775 C.ar      1 <0>         0.0000
      6 C6         -2.7762   -1.2895    0.6985 C.2       1 <0>         0.0000
      7 C7         -2.2891    0.7558    0.5586 C.2       1 <0>         0.0000
      8 C8          0.4116    1.7895   -3.9066 C.ar      1 <0>         0.0000
      9 C9          1.1878   -0.4920    0.8203 C.2       1 <0>         0.0000
     10 C10         1.4163   -1.9835    2.8529 C.3       1 <0>         0.0000
     11 C11         2.4222   -0.8895    2.9912 C.3       1 <0>         0.0000
     12 C12         1.0790   -0.5938    2.3068 C.3       1 <0>         0.0000
     13 C13         0.0625    0.2327    3.0758 C.3       1 <0>         0.0000
     14 C14         0.4834    0.4140   -1.4424 C.3       1 <0>         0.0000
     15 C15         0.1908    0.4263    0.0609 C.3       1 <0>         0.0000
     16 N1         -3.3233   -0.0396    0.7898 N.2       1 <0>         0.0000
     17 N2         -1.4761   -1.3131    0.4307 N.2       1 <0>         0.0000
     18 N3         -1.1727    0.0162    0.3500 N.pl3     1 <0>         0.0000
     19 O1          2.0619   -1.0675    0.1896 O.2       1 <0>         0.0000
     20 O2          0.8815    3.0252   -1.5913 O.2       1 <0>         0.0000
     21 O3         -1.4689    2.1399   -2.0571 O.2       1 <0>         0.0000
     22 S1         -0.0063    2.0029   -2.1762 S.o2      1 <0>         0.0000
     23 H1          1.3244    1.2643   -7.6144 H         1 <0>         0.0000
     24 H2          3.0187    2.1732   -6.0400 H         1 <0>         0.0000
     25 H3         -0.9639    0.7177   -6.8143 H         1 <0>         0.0000
     26 H4          2.4180    2.5296   -3.6374 H         1 <0>         0.0000
     27 H5         -1.5587    1.0759   -4.4097 H         1 <0>         0.0000
     28 H6         -3.3451   -2.2006    0.8323 H         1 <0>         0.0000
     29 H7         -2.2982    1.8358    0.5092 H         1 <0>         0.0000
     30 H8          1.6045   -2.7543    2.1136 H         1 <0>         0.0000
     31 H9          0.8502   -2.2940    3.7260 H         1 <0>         0.0000
     32 H10         2.5666   -0.4283    3.9635 H         1 <0>         0.0000
     33 H11         3.2940   -0.9238    2.3471 H         1 <0>         0.0000
     34 H12         0.2589    0.1479    4.1485 H         1 <0>         0.0000
     35 H13        -0.9608   -0.1087    2.9038 H         1 <0>         0.0000
     36 H14         0.1216    1.2977    2.8260 H         1 <0>         0.0000
     37 H15        -0.0612   -0.3875   -1.9438 H         1 <0>         0.0000
     38 H16         1.5525    0.2988   -1.6226 H         1 <0>         0.0000
     39 H17         0.3238    1.4395    0.4565 H         1 <0>         0.0000
@<TRIPOS>BOND
     1    1    3 ar
     2    1    2 ar
     3    1   23 1
     4    2    4 ar
     5    2   24 1
     6    3    5 ar
     7    3   25 1
     8    4    8 ar
     9    4   26 1
    10    5    8 ar
    11    5   27 1
    12    6   16 1
    13    6   17 2
    14    6   28 1
    15    7   16 2
    16    7   18 1
    17    7   29 1
    18    8   22 1
    19    9   12 1
    20    9   15 1
    21    9   19 2
    22   10   11 1
    23   10   12 1
    24   10   30 1
    25   10   31 1
    26   11   12 1
    27   11   32 1
    28   11   33 1
    29   12   13 1
    30   13   34 1
    31   13   35 1
    32   13   36 1
    33   14   15 1
    34   14   22 1
    35   14   37 1
    36   14   38 1
    37   15   18 1
    38   15   39 1
    39   17   18 1
    40   20   22 2
    41   21   22 2
