@<TRIPOS>MOLECULE
*****
   22    22     0     0     0
SMALL
NO_CHARGES

@<TRIPOS>ATOM
      1 C1         -1.0695   -0.6958   -0.3573 C.2       1 <0>         0.0000
      2 C2          0.4265   -0.5138   -0.3098 C.3       1 <0>         0.0000
      3 C3          0.5075    0.7864    0.5044 C.3       1 <0>         0.0000
      4 C4          1.1170   -1.7085    0.3485 C.3       1 <0>         0.0000
      5 C5          0.8976   -0.3809   -1.7674 C.3       1 <0>         0.0000
      6 C6          1.7461    1.6382    0.2159 C.3       1 <0>         0.0000
      7 C7          0.3648    0.6213    2.0263 C.3       1 <0>         0.0000
      8 O1         -1.6595   -1.7341   -0.6163 O.2       1 <0>         0.0000
      9 O2         -1.6931    0.4863   -0.0709 O.3       1 <0>         0.0000
     10 O3         -0.6373    1.5008    0.0267 O.3       1 <0>         0.0000
     11 H1          2.1890   -1.5397    0.3634 H         1 <0>         0.0000
     12 H2          0.8972   -2.6072   -0.2190 H         1 <0>         0.0000
     13 H3          0.7509   -1.8196    1.3641 H         1 <0>         0.0000
     14 H4          1.9771   -0.2464   -1.7939 H         1 <0>         0.0000
     15 H5          0.4183    0.4789   -2.2315 H         1 <0>         0.0000
     16 H6          0.6350   -1.2798   -2.3218 H         1 <0>         0.0000
     17 H7          1.7191    2.5311    0.8323 H         1 <0>         0.0000
     18 H8          1.7523    1.9189   -0.8325 H         1 <0>         0.0000
     19 H9          2.6380    1.0636    0.4450 H         1 <0>         0.0000
     20 H10         0.4358    1.5939    2.5080 H         1 <0>         0.0000
     21 H11         1.1570   -0.0234    2.4001 H         1 <0>         0.0000
     22 H12        -0.6002    0.1757    2.2570 H         1 <0>         0.0000
@<TRIPOS>BOND
     1    1    2 1
     2    1    8 2
     3    1    9 1
     4    2    3 1
     5    2    4 1
     6    2    5 1
     7    3    6 1
     8    3    7 1
     9    3   10 1
    10    4   11 1
    11    4   12 1
    12    4   13 1
    13    5   14 1
    14    5   15 1
    15    5   16 1
    16    6   17 1
    17    6   18 1
    18    6   19 1
    19    7   20 1
    20    7   21 1
    21    7   22 1
    22    9   10 1
