@<TRIPOS>MOLECULE
*****
   30    31     0     0     0
SMALL
NO_CHARGES

@<TRIPOS>ATOM
      1 C1          6.0318   -0.2634    0.5786 C.ar      1 <0>         0.0000
      2 C2          2.5939   -0.6374    2.6402 C.ar      1 <0>         0.0000
      3 C3          0.9335   -1.5195    1.0927 C.ar      1 <0>         0.0000
      4 C4          6.4985    1.0369    0.4297 C.ar      1 <0>         0.0000
      5 C5          1.6080    0.1188    3.2675 C.ar      1 <0>         0.0000
      6 C6         -0.0501   -0.7399    1.6989 C.ar      1 <0>         0.0000
      7 C7          3.8105    0.4350   -0.1017 C.ar      1 <0>         0.0000
      8 C8          2.2600   -1.4429    1.5388 C.ar      1 <0>         0.0000
      9 C9          4.6792   -0.5676    0.3575 C.ar      1 <0>         0.0000
     10 C10         5.6364    2.0527   -0.0074 C.ar      1 <0>         0.0000
     11 C11         0.2977    0.0682    2.7836 C.ar      1 <0>         0.0000
     12 C12         4.2966    1.7223   -0.2886 C.ar      1 <0>         0.0000
     13 N1          3.2150   -2.3296    0.9443 N.2       1 <0>         0.0000
     14 N2          4.3215   -1.9461    0.4962 N.2       1 <0>         0.0000
     15 N3         -1.5579    0.0218    4.7918 N.pl3     1 <0>         0.0000
     16 O1         -0.3000    2.1681    4.2640 O.2       1 <0>         0.0000
     17 O2         -2.0526    1.2514    2.6162 O.2       1 <0>         0.0000
     18 O3          6.1431    3.3030   -0.1603 O.3       1 <0>         0.0000
     19 S1         -0.9661    1.0555    3.5805 S.o2      1 <0>         0.0000
     20 Cl1         3.2269    2.9855   -0.8861 Cl        1 <0>         0.0000
     21 H1          6.7026   -1.0616    0.8817 H         1 <0>         0.0000
     22 H2          3.6195   -0.6003    2.9934 H         1 <0>         0.0000
     23 H3          0.6903   -2.1750    0.2615 H         1 <0>         0.0000
     24 H4          7.5359    1.2918    0.6230 H         1 <0>         0.0000
     25 H5          1.8517    0.7621    4.1070 H         1 <0>         0.0000
     26 H6         -1.0728   -0.7512    1.3357 H         1 <0>         0.0000
     27 H7          2.7738    0.2210   -0.3304 H         1 <0>         0.0000
     28 H8         -1.4195    0.4566    5.7032 H         1 <0>         0.0000
     29 H9         -2.5446   -0.1694    4.6221 H         1 <0>         0.0000
     30 H10         5.4394    3.8981   -0.4767 H         1 <0>         0.0000
@<TRIPOS>BOND
     1    1    4 ar
     2    1    9 ar
     3    1   21 1
     4    2    5 ar
     5    2    8 ar
     6    2   22 1
     7    3    6 ar
     8    3    8 ar
     9    3   23 1
    10    4   10 ar
    11    4   24 1
    12    5   11 ar
    13    5   25 1
    14    6   11 ar
    15    6   26 1
    16    7    9 ar
    17    7   12 ar
    18    7   27 1
    19    8   13 1
    20    9   14 1
    21   10   12 ar
    22   10   18 1
    23   11   19 1
    24   12   20 1
    25   13   14 2
    26   15   19 1
    27   15   28 1
    28   15   29 1
    29   16   19 2
    30   17   19 2
    31   18   30 1
