@<TRIPOS>MOLECULE
*****
   30    32     0     0     0
SMALL
NO_CHARGES

@<TRIPOS>ATOM
      1 C1          1.7257   -5.9389    5.3617 C.ar      1 <0>         0.0000
      2 C2          0.8801   -6.8867    4.7713 C.ar      1 <0>         0.0000
      3 C3          2.0207   -4.7541    4.6808 C.ar      1 <0>         0.0000
      4 C4         -0.2044   -1.1317    0.1899 C.ar      1 <0>         0.0000
      5 C5          0.3349   -6.6517    3.5099 C.ar      1 <0>         0.0000
      6 C6          1.4670   -4.5134    3.4214 C.ar      1 <0>         0.0000
      7 C7          0.3548   -2.0821   -0.6589 C.ar      1 <0>         0.0000
      8 C8         -0.7664   -1.5144    1.4130 C.ar      1 <0>         0.0000
      9 C9          0.6186   -5.4590    2.8245 C.ar      1 <0>         0.0000
     10 C10        -0.1068   -3.8435    0.9759 C.ar      1 <0>         0.0000
     11 C11         0.3852   -3.4368   -0.2859 C.ar      1 <0>         0.0000
     12 C12        -0.7057   -2.8527    1.7694 C.ar      1 <0>         0.0000
     13 C13         0.0610   -5.2437    1.4605 C.2       1 <0>         0.0000
     14 C14         0.3979   -5.5998   -1.5304 C.2       1 <0>         0.0000
     15 C15        -0.7090   -6.0918   -0.6030 C.3       1 <0>         0.0000
     16 N1         -0.1934   -6.2812    0.7434 N.2       1 <0>         0.0000
     17 N2          0.9475   -4.3685   -1.1762 N.am      1 <0>         0.0000
     18 O1          0.8015   -6.2086   -2.5077 O.2       1 <0>         0.0000
     19 F1         -1.2602   -3.2204    2.9472 F         1 <0>         0.0000
     20 H1          2.1508   -6.1235    6.3449 H         1 <0>         0.0000
     21 H2          0.6465   -7.8088    5.2974 H         1 <0>         0.0000
     22 H3          2.6827   -4.0178    5.1292 H         1 <0>         0.0000
     23 H4         -0.2304   -0.0886   -0.1118 H         1 <0>         0.0000
     24 H5         -0.3136   -7.3824    3.0375 H         1 <0>         0.0000
     25 H6          1.7101   -3.5934    2.8971 H         1 <0>         0.0000
     26 H7          0.7517   -1.7874   -1.6268 H         1 <0>         0.0000
     27 H8         -1.2475   -0.8032    2.0764 H         1 <0>         0.0000
     28 H9         -1.5365   -5.3659   -0.6385 H         1 <0>         0.0000
     29 H10        -1.0568   -7.0461   -0.9976 H         1 <0>         0.0000
     30 H11         1.5731   -4.0021   -1.8873 H         1 <0>         0.0000
@<TRIPOS>BOND
     1    1    3 ar
     2    1    2 ar
     3    1   20 1
     4    2    5 ar
     5    2   21 1
     6    3    6 ar
     7    3   22 1
     8    4    7 ar
     9    4    8 ar
    10    4   23 1
    11    5    9 ar
    12    5   24 1
    13    6    9 ar
    14    6   25 1
    15    7   11 ar
    16    7   26 1
    17    8   12 ar
    18    8   27 1
    19    9   13 1
    20   10   11 ar
    21   10   12 ar
    22   10   13 1
    23   11   17 1
    24   12   19 1
    25   13   16 2
    26   14   15 1
    27   14   17 am
    28   14   18 2
    29   15   16 1
    30   15   28 1
    31   15   29 1
    32   17   30 1
