@<TRIPOS>MOLECULE
*****
   64    66     0     0     0
SMALL
NO_CHARGES

@<TRIPOS>ATOM
      1 C1          1.4302    5.7925    1.5641 C.ar      1 <0>         0.0000
      2 C2          1.6868    5.9384    3.9604 C.ar      1 <0>         0.0000
      3 C3          1.9736    7.0709    1.4164 C.ar      1 <0>         0.0000
      4 C4          2.2366    7.2169    3.8332 C.ar      1 <0>         0.0000
      5 C5          1.2863    5.2089    2.8317 C.ar      1 <0>         0.0000
      6 C6          0.7388    3.8283    3.0020 C.ar      1 <0>         0.0000
      7 C7          1.5302    2.7070    2.6882 C.ar      1 <0>         0.0000
      8 C8         -0.5482    3.6472    3.5424 C.ar      1 <0>         0.0000
      9 C9          2.3733    7.7570    2.5597 C.ar      1 <0>         0.0000
     10 C10         1.0013    1.4316    2.9719 C.ar      1 <0>         0.0000
     11 C11        -0.9830    2.3314    3.7886 C.ar      1 <0>         0.0000
     12 C12         6.3472    4.5460    5.3460 C.3       1 <0>         0.0000
     13 C13         6.2059    3.0174    5.2982 C.3       1 <0>         0.0000
     14 C14         5.3155    5.2265    4.4354 C.3       1 <0>         0.0000
     15 C15         6.2969    2.4970    3.8562 C.3       1 <0>         0.0000
     16 C16         5.3951    4.6988    2.9946 C.3       1 <0>         0.0000
     17 C17         5.2639    3.1592    2.9291 C.3       1 <0>         0.0000
     18 C18         0.9944   -0.8156    1.8378 C.3       1 <0>         0.0000
     19 C19         2.0965   -0.5108    4.1076 C.3       1 <0>         0.0000
     20 C20        -2.0710    1.3854    5.8317 C.3       1 <0>         0.0000
     21 C21        -3.1435    1.0577    3.5509 C.3       1 <0>         0.0000
     22 C22         2.9390    2.8747    2.1639 C.3       1 <0>         0.0000
     23 C23        -1.4144    4.8356    3.8723 C.3       1 <0>         0.0000
     24 C24         1.7775    0.1424    2.7508 C.3       1 <0>         0.0000
     25 C25        -2.3164    1.9994    4.4413 C.3       1 <0>         0.0000
     26 N1         -0.2175    1.2717    3.5021 N.ar      1 <0>         0.0000
     27 N2          3.9117    2.6615    3.2464 N.3       1 <0>         0.0000
     28 O1         -1.3142    5.0922    5.2876 O.3       1 <0>         0.0000
     29 F1          2.9116    8.9975    2.4253 F         1 <0>         0.0000
     30 H1          1.1142    5.2401    0.6832 H         1 <0>         0.0000
     31 H2          1.5563    5.5041    4.9468 H         1 <0>         0.0000
     32 H3          2.0915    7.5313    0.4402 H         1 <0>         0.0000
     33 H4          2.5595    7.7855    4.6998 H         1 <0>         0.0000
     34 H5          7.3580    4.8239    5.0159 H         1 <0>         0.0000
     35 H6          6.2424    4.9078    6.3759 H         1 <0>         0.0000
     36 H7          6.9793    2.5444    5.9144 H         1 <0>         0.0000
     37 H8          5.2429    2.7217    5.7361 H         1 <0>         0.0000
     38 H9          4.3080    5.0547    4.8367 H         1 <0>         0.0000
     39 H10         5.4537    6.3138    4.4384 H         1 <0>         0.0000
     40 H11         7.3023    2.7061    3.4659 H         1 <0>         0.0000
     41 H12         6.1522    1.4123    3.8279 H         1 <0>         0.0000
     42 H13         4.6242    5.1750    2.3782 H         1 <0>         0.0000
     43 H14         6.3625    4.9866    2.5613 H         1 <0>         0.0000
     44 H15         5.4716    2.8336    1.9022 H         1 <0>         0.0000
     45 H16         0.0332   -1.0748    2.2901 H         1 <0>         0.0000
     46 H17         1.5633   -1.7378    1.6755 H         1 <0>         0.0000
     47 H18         0.7972   -0.3614    0.8601 H         1 <0>         0.0000
     48 H19         1.1733   -0.7471    4.6454 H         1 <0>         0.0000
     49 H20         2.7008    0.1615    4.7243 H         1 <0>         0.0000
     50 H21         2.6609   -1.4384    3.9600 H         1 <0>         0.0000
     51 H22        -1.4915    0.4619    5.7419 H         1 <0>         0.0000
     52 H23        -3.0241    1.1525    6.3197 H         1 <0>         0.0000
     53 H24        -1.5188    2.0817    6.4706 H         1 <0>         0.0000
     54 H25        -2.6046    0.1210    3.3843 H         1 <0>         0.0000
     55 H26        -3.3460    1.5098    2.5734 H         1 <0>         0.0000
     56 H27        -4.1040    0.8280    4.0254 H         1 <0>         0.0000
     57 H28         3.1419    2.1439    1.3730 H         1 <0>         0.0000
     58 H29         3.0412    3.8626    1.7008 H         1 <0>         0.0000
     59 H30        -1.0811    5.7107    3.3048 H         1 <0>         0.0000
     60 H31        -2.4576    4.6375    3.5959 H         1 <0>         0.0000
     61 H32         2.7309    0.3792    2.2762 H         1 <0>         0.0000
     62 H33        -2.8818    2.9217    4.5902 H         1 <0>         0.0000
     63 H34         3.5629    3.1244    4.0830 H         1 <0>         0.0000
     64 H35        -1.8616    5.8685    5.4879 H         1 <0>         0.0000
@<TRIPOS>BOND
     1    1    3 ar
     2    1    5 ar
     3    1   30 1
     4    2    4 ar
     5    2    5 ar
     6    2   31 1
     7    3    9 ar
     8    3   32 1
     9    4    9 ar
    10    4   33 1
    11    5    6 1
    12    6    7 ar
    13    6    8 ar
    14    7   10 ar
    15    7   22 1
    16    8   11 ar
    17    8   23 1
    18    9   29 1
    19   10   24 1
    20   10   26 ar
    21   11   25 1
    22   11   26 ar
    23   12   14 1
    24   12   13 1
    25   12   34 1
    26   12   35 1
    27   13   15 1
    28   13   36 1
    29   13   37 1
    30   14   16 1
    31   14   38 1
    32   14   39 1
    33   15   17 1
    34   15   40 1
    35   15   41 1
    36   16   17 1
    37   16   42 1
    38   16   43 1
    39   17   27 1
    40   17   44 1
    41   18   24 1
    42   18   45 1
    43   18   46 1
    44   18   47 1
    45   19   24 1
    46   19   48 1
    47   19   49 1
    48   19   50 1
    49   20   25 1
    50   20   51 1
    51   20   52 1
    52   20   53 1
    53   21   25 1
    54   21   54 1
    55   21   55 1
    56   21   56 1
    57   22   27 1
    58   22   57 1
    59   22   58 1
    60   23   28 1
    61   23   59 1
    62   23   60 1
    63   24   61 1
    64   25   62 1
    65   27   63 1
    66   28   64 1
