@<TRIPOS>MOLECULE
*****
   55    58     0     0     0
SMALL
NO_CHARGES

@<TRIPOS>ATOM
      1 C1         -7.3288    1.6261    0.8329 C.ar      1 <0>         0.0000
      2 C2         -7.9565    1.7278   -0.4086 C.ar      1 <0>         0.0000
      3 C3         -6.7461    0.4204    1.2232 C.ar      1 <0>         0.0000
      4 C4         -8.0013    0.6238   -1.2599 C.ar      1 <0>         0.0000
      5 C5         -6.7910   -0.6836    0.3719 C.ar      1 <0>         0.0000
      6 C6         -2.9747   -0.9563   -1.2663 C.2       1 <0>         0.0000
      7 C7         -7.4186   -0.5820   -0.8697 C.ar      1 <0>         0.0000
      8 C8         -1.9552    0.0143   -1.0325 C.2       1 <0>         0.0000
      9 C9         -0.9006   -0.5079   -0.3150 C.2       1 <0>         0.0000
     10 C10        -4.2205   -0.7876   -1.9742 C.2       1 <0>         0.0000
     11 C11        -2.6523   -2.1699   -0.7178 C.2       1 <0>         0.0000
     12 C12        -4.6781   -3.2366   -1.4491 C.2       1 <0>         0.0000
     13 C13         0.3441    2.6028    0.8663 C.2       1 <0>         0.0000
     14 C14        -0.2819    2.8589    2.2533 C.3       1 <0>         0.0000
     15 C15        -0.5237    1.3340    2.2959 C.3       1 <0>         0.0000
     16 C16        -2.0047    1.4235   -1.4976 C.3       1 <0>         0.0000
     17 C17        -4.7814   -4.1318    3.0457 C.3       1 <0>         0.0000
     18 C18        -7.4673   -1.7759   -1.7913 C.3       1 <0>         0.0000
     19 C19         0.3438    0.1580    0.1309 C.3       1 <0>         0.0000
     20 C20        -6.2706   -1.8476   -2.7366 C.3       1 <0>         0.0000
     21 C21        -2.9944   -4.5651   -0.1463 C.3       1 <0>         0.0000
     22 C22        -3.1840   -4.4776    1.3570 C.3       1 <0>         0.0000
     23 N1         -5.0011   -1.9672   -2.0254 N.am      1 <0>         0.0000
     24 N2         -3.4360   -3.3180   -0.7700 N.am      1 <0>         0.0000
     25 N3          0.0937    1.2915    0.9920 N.am      1 <0>         0.0000
     26 O1         -4.5488    0.2861   -2.4728 O.2       1 <0>         0.0000
     27 O2         -5.4396   -4.2070   -1.5375 O.2       1 <0>         0.0000
     28 O3          0.8557    3.2752    0.0013 O.2       1 <0>         0.0000
     29 O4         -4.5537   -4.2286    1.6465 O.3       1 <0>         0.0000
     30 S1         -1.1477   -2.1575    0.0701 S.3       1 <0>         0.0000
     31 H1         -7.2950    2.4853    1.4965 H         1 <0>         0.0000
     32 H2         -8.4112    2.6661   -0.7123 H         1 <0>         0.0000
     33 H3         -6.2584    0.3407    2.1903 H         1 <0>         0.0000
     34 H4         -8.4923    0.7123   -2.2254 H         1 <0>         0.0000
     35 H5         -6.3342   -1.6190    0.6842 H         1 <0>         0.0000
     36 H6          0.4234    3.2425    2.9945 H         1 <0>         0.0000
     37 H7         -1.1836    3.4755    2.2259 H         1 <0>         0.0000
     38 H8          0.0376    0.7919    3.0612 H         1 <0>         0.0000
     39 H9         -1.5720    1.0253    2.2917 H         1 <0>         0.0000
     40 H10        -2.4791    2.0656   -0.7420 H         1 <0>         0.0000
     41 H11        -0.9982    1.8189   -1.7000 H         1 <0>         0.0000
     42 H12        -2.5725    1.5208   -2.4351 H         1 <0>         0.0000
     43 H13        -5.8412   -3.9407    3.2309 H         1 <0>         0.0000
     44 H14        -4.1763   -3.3209    3.4590 H         1 <0>         0.0000
     45 H15        -4.4955   -5.0745    3.5184 H         1 <0>         0.0000
     46 H16        -8.3918   -1.7235   -2.3801 H         1 <0>         0.0000
     47 H17        -7.5376   -2.6981   -1.2004 H         1 <0>         0.0000
     48 H18         0.9974   -0.5325    0.6903 H         1 <0>         0.0000
     49 H19         0.9426    0.5284   -0.7180 H         1 <0>         0.0000
     50 H20        -6.3561   -2.7289   -3.3802 H         1 <0>         0.0000
     51 H21        -6.2081   -0.9619   -3.3773 H         1 <0>         0.0000
     52 H22        -1.9428   -4.7243   -0.4050 H         1 <0>         0.0000
     53 H23        -3.5926   -5.3832   -0.5587 H         1 <0>         0.0000
     54 H24        -2.5969   -3.6470    1.7610 H         1 <0>         0.0000
     55 H25        -2.8816   -5.4043    1.8555 H         1 <0>         0.0000
@<TRIPOS>BOND
     1    1    3 ar
     2    1    2 ar
     3    1   31 1
     4    2    4 ar
     5    2   32 1
     6    3    5 ar
     7    3   33 1
     8    4    7 ar
     9    4   34 1
    10    5    7 ar
    11    5   35 1
    12    6    8 1
    13    6   11 2
    14    6   10 1
    15    7   18 1
    16    8    9 2
    17    8   16 1
    18    9   19 1
    19    9   30 1
    20   10   23 am
    21   10   26 2
    22   11   24 1
    23   11   30 1
    24   12   24 am
    25   12   23 am
    26   12   27 2
    27   13   14 1
    28   13   25 am
    29   13   28 2
    30   14   15 1
    31   14   36 1
    32   14   37 1
    33   15   25 1
    34   15   38 1
    35   15   39 1
    36   16   40 1
    37   16   41 1
    38   16   42 1
    39   17   29 1
    40   17   43 1
    41   17   44 1
    42   17   45 1
    43   18   20 1
    44   18   46 1
    45   18   47 1
    46   19   25 1
    47   19   48 1
    48   19   49 1
    49   20   23 1
    50   20   50 1
    51   20   51 1
    52   21   22 1
    53   21   24 1
    54   21   52 1
    55   21   53 1
    56   22   29 1
    57   22   54 1
    58   22   55 1
