@<TRIPOS>MOLECULE
*****
   28    29     0     0     0
SMALL
NO_CHARGES

@<TRIPOS>ATOM
      1 C1          0.5462    0.9229    0.0673 C.ar      1 <0>         0.0000
      2 C2         -0.3406    1.9999    0.1782 C.ar      1 <0>         0.0000
      3 C3          1.9134    1.1225   -0.1603 C.ar      1 <0>         0.0000
      4 C4          1.5376    3.5077   -0.1777 C.ar      1 <0>         0.0000
      5 C5          0.1728    3.2896    0.0539 C.ar      1 <0>         0.0000
      6 C6          2.4269    2.4206   -0.2845 C.ar      1 <0>         0.0000
      7 C7          1.8191    4.9550   -0.2771 C.2       1 <0>         0.0000
      8 C8          0.5341    6.8100    0.8535 C.2       1 <0>         0.0000
      9 C9         -0.5881    4.5947    0.1582 C.3       1 <0>         0.0000
     10 C10         0.4536    5.6919   -0.1651 C.3       1 <0>         0.0000
     11 C11         1.3144    6.5409    4.4101 C.3       1 <0>         0.0000
     12 C12         0.9668    7.2980    3.1421 C.3       1 <0>         0.0000
     13 O1          2.8878    5.5152   -0.4330 O.2       1 <0>         0.0000
     14 O2          0.3856    7.9903    0.6102 O.2       1 <0>         0.0000
     15 O3          3.7445    2.6699   -0.5069 O.3       1 <0>         0.0000
     16 O4          0.8028    6.3172    2.0844 O.3       1 <0>         0.0000
     17 H1          0.1738   -0.0942    0.1591 H         1 <0>         0.0000
     18 H2         -1.3988    1.8303    0.3576 H         1 <0>         0.0000
     19 H3          2.5802    0.2657   -0.2426 H         1 <0>         0.0000
     20 H4         -1.4338    4.6224   -0.5354 H         1 <0>         0.0000
     21 H5         -0.9912    4.7121    1.1684 H         1 <0>         0.0000
     22 H6          0.2563    6.1638   -1.1300 H         1 <0>         0.0000
     23 H7          0.5159    5.8442    4.6827 H         1 <0>         0.0000
     24 H8          2.2410    5.9739    4.2823 H         1 <0>         0.0000
     25 H9          1.4519    7.2475    5.2350 H         1 <0>         0.0000
     26 H10         1.7564    7.9942    2.8475 H         1 <0>         0.0000
     27 H11         0.0362    7.8644    3.2406 H         1 <0>         0.0000
     28 H12         4.2211    1.8253   -0.5615 H         1 <0>         0.0000
@<TRIPOS>BOND
     1    1    2 ar
     2    1    3 ar
     3    1   17 1
     4    2    5 ar
     5    2   18 1
     6    3    6 ar
     7    3   19 1
     8    4    5 ar
     9    4    6 ar
    10    4    7 1
    11    5    9 1
    12    6   15 1
    13    7   10 1
    14    7   13 2
    15    8   10 1
    16    8   14 2
    17    8   16 1
    18    9   10 1
    19    9   20 1
    20    9   21 1
    21   10   22 1
    22   11   12 1
    23   11   23 1
    24   11   24 1
    25   11   25 1
    26   12   16 1
    27   12   26 1
    28   12   27 1
    29   15   28 1
