@<TRIPOS>MOLECULE
*****
   61    63     0     0     0
SMALL
NO_CHARGES

@<TRIPOS>ATOM
      1 C1          8.7805   -6.3331   -0.0674 C.ar      1 <0>         0.0000
      2 C2          9.9999   -5.7525   -2.0812 C.ar      1 <0>         0.0000
      3 C3          9.7319   -7.3217    0.2132 C.ar      1 <0>         0.0000
      4 C4         10.9447   -6.7351   -1.8013 C.ar      1 <0>         0.0000
      5 C5          8.9113   -5.5433   -1.2183 C.ar      1 <0>         0.0000
      6 C6         10.8057   -7.5183   -0.6504 C.ar      1 <0>         0.0000
      7 C7          3.2245    2.0999    0.4649 C.3       1 <0>         0.0000
      8 C8          2.6615    2.4381    1.8492 C.3       1 <0>         0.0000
      9 C9          2.5164    0.8859   -0.1391 C.3       1 <0>         0.0000
     10 C10         1.9456    0.0554    2.0563 C.3       1 <0>         0.0000
     11 C11         2.4573   -3.4548   -1.3177 C.3       1 <0>         0.0000
     12 C12         2.7284   -1.9659   -1.0709 C.3       1 <0>         0.0000
     13 C13         2.6464    1.2148    2.7904 C.3       1 <0>         0.0000
     14 C14         4.8800   -2.8379   -0.4216 C.3       1 <0>         0.0000
     15 C15         4.0765    0.7997    3.1804 C.3       1 <0>         0.0000
     16 C16         1.8509    1.5513    4.0606 C.3       1 <0>         0.0000
     17 C17         5.2543   -2.4205    1.0054 C.3       1 <0>         0.0000
     18 C18         5.6362   -3.5601   -2.7531 C.3       1 <0>         0.0000
     19 C19         6.9898   -1.8835   -1.4787 C.3       1 <0>         0.0000
     20 C20         2.0196   -1.4751    0.2063 C.3       1 <0>         0.0000
     21 C21         6.9315   -4.2840   -0.7265 C.3       1 <0>         0.0000
     22 C22         6.1083   -3.1448   -1.3474 C.3       1 <0>         0.0000
     23 N1          2.5757   -0.2576    0.7732 N.3       1 <0>         0.0000
     24 O1          4.1450   -1.7979   -1.0623 O.3       1 <0>         0.0000
     25 O2          8.0430   -4.5566   -1.5857 O.3       1 <0>         0.0000
     26 S1          3.6977   -4.3092   -0.2884 S.3       1 <0>         0.0000
     27 Cl1        11.9991   -8.7618   -0.2946 Cl        1 <0>         0.0000
     28 H1          7.9504   -6.1980    0.6157 H         1 <0>         0.0000
     29 H2         10.0888   -5.1333   -2.9689 H         1 <0>         0.0000
     30 H3          9.6304   -7.9343    1.1036 H         1 <0>         0.0000
     31 H4         11.7848   -6.8942   -2.4702 H         1 <0>         0.0000
     32 H5          3.1094    2.9564   -0.2094 H         1 <0>         0.0000
     33 H6          4.2963    1.8856    0.5299 H         1 <0>         0.0000
     34 H7          3.2322    3.2549    2.3080 H         1 <0>         0.0000
     35 H8          1.6308    2.8015    1.7337 H         1 <0>         0.0000
     36 H9          1.4634    1.1470   -0.3756 H         1 <0>         0.0000
     37 H10         3.0062    0.6139   -1.0768 H         1 <0>         0.0000
     38 H11         1.9798   -0.8439    2.6833 H         1 <0>         0.0000
     39 H12         0.8745    0.3115    1.9209 H         1 <0>         0.0000
     40 H13         1.4567   -3.7506   -0.9923 H         1 <0>         0.0000
     41 H14         2.5870   -3.7110   -2.3716 H         1 <0>         0.0000
     42 H15         2.3871   -1.3815   -1.9306 H         1 <0>         0.0000
     43 H16         4.0545   -0.0345    3.8916 H         1 <0>         0.0000
     44 H17         4.6057    1.6321    3.6586 H         1 <0>         0.0000
     45 H18         4.6522    0.4756    2.3112 H         1 <0>         0.0000
     46 H19         1.8085    0.6929    4.7416 H         1 <0>         0.0000
     47 H20         0.8217    1.8436    3.8220 H         1 <0>         0.0000
     48 H21         2.3175    2.3821    4.6020 H         1 <0>         0.0000
     49 H22         4.3657   -2.0696    1.5268 H         1 <0>         0.0000
     50 H23         5.9735   -1.5983    0.9905 H         1 <0>         0.0000
     51 H24         5.6827   -3.2540    1.5689 H         1 <0>         0.0000
     52 H25         6.5006   -3.7570   -3.3906 H         1 <0>         0.0000
     53 H26         5.0279   -4.4682   -2.7189 H         1 <0>         0.0000
     54 H27         5.0481   -2.7585   -3.2058 H         1 <0>         0.0000
     55 H28         7.7765   -2.0619   -2.2155 H         1 <0>         0.0000
     56 H29         7.4791   -1.6192   -0.5369 H         1 <0>         0.0000
     57 H30         6.3893   -1.0324   -1.8081 H         1 <0>         0.0000
     58 H31         2.0818   -2.2582    0.9689 H         1 <0>         0.0000
     59 H32         0.9452   -1.3645   -0.0509 H         1 <0>         0.0000
     60 H33         6.3151   -5.1859   -0.6256 H         1 <0>         0.0000
     61 H34         7.3098   -4.0001    0.2624 H         1 <0>         0.0000
@<TRIPOS>BOND
     1    1    3 ar
     2    1    5 ar
     3    1   28 1
     4    2    4 ar
     5    2    5 ar
     6    2   29 1
     7    3    6 ar
     8    3   30 1
     9    4    6 ar
    10    4   31 1
    11    5   25 1
    12    6   27 1
    13    7    8 1
    14    7    9 1
    15    7   32 1
    16    7   33 1
    17    8   13 1
    18    8   34 1
    19    8   35 1
    20    9   23 1
    21    9   36 1
    22    9   37 1
    23   10   13 1
    24   10   23 1
    25   10   38 1
    26   10   39 1
    27   11   12 1
    28   11   26 1
    29   11   40 1
    30   11   41 1
    31   12   20 1
    32   12   24 1
    33   12   42 1
    34   13   15 1
    35   13   16 1
    36   14   17 1
    37   14   22 1
    38   14   24 1
    39   14   26 1
    40   15   43 1
    41   15   44 1
    42   15   45 1
    43   16   46 1
    44   16   47 1
    45   16   48 1
    46   17   49 1
    47   17   50 1
    48   17   51 1
    49   18   22 1
    50   18   52 1
    51   18   53 1
    52   18   54 1
    53   19   22 1
    54   19   55 1
    55   19   56 1
    56   19   57 1
    57   20   23 1
    58   20   58 1
    59   20   59 1
    60   21   22 1
    61   21   25 1
    62   21   60 1
    63   21   61 1
