@<TRIPOS>MOLECULE
*****
   28    29     0     0     0
SMALL
NO_CHARGES

@<TRIPOS>ATOM
      1 C1          0.0715    0.9829    0.1565 C.ar      1 <0>         0.0000
      2 C2         -0.6447    2.1490   -0.1687 C.ar      1 <0>         0.0000
      3 C3          1.3636    1.0297    0.6916 C.ar      1 <0>         0.0000
      4 C4          1.2700    3.4272    0.5954 C.ar      1 <0>         0.0000
      5 C5         -0.0332    3.3756    0.0557 C.ar      1 <0>         0.0000
      6 C6          1.9837    2.2652    0.9194 C.ar      1 <0>         0.0000
      7 C7          1.6465    4.8218    0.7181 C.2       1 <0>         0.0000
      8 C8          0.6332    5.6386    0.2778 C.2       1 <0>         0.0000
      9 C9          0.7913    7.0684    0.3089 C.2       1 <0>         0.0000
     10 C10        -0.5323    4.7901   -0.1855 C.3       1 <0>         0.0000
     11 C11        -1.4400    9.7793   -0.6823 C.3       1 <0>         0.0000
     12 C12        -0.1463    9.2084   -0.1320 C.3       1 <0>         0.0000
     13 O1          1.8254    7.6241    0.7247 O.2       1 <0>         0.0000
     14 O2          3.2434    2.2921    1.4416 O.3       1 <0>         0.0000
     15 O3          2.8419    5.1961    1.2052 O.3       1 <0>         0.0000
     16 O4         -0.2713    7.7620   -0.1489 O.3       1 <0>         0.0000
     17 H1         -0.3874    0.0118   -0.0108 H         1 <0>         0.0000
     18 H2         -1.6470    2.0834   -0.5832 H         1 <0>         0.0000
     19 H3          1.9015    0.1188    0.9366 H         1 <0>         0.0000
     20 H4         -0.7719    4.9573   -1.2424 H         1 <0>         0.0000
     21 H5         -1.4468    4.9965    0.3833 H         1 <0>         0.0000
     22 H6         -1.6131    9.4390   -1.7076 H         1 <0>         0.0000
     23 H7         -2.2934    9.4775   -0.0680 H         1 <0>         0.0000
     24 H8         -1.3871   10.8727   -0.6861 H         1 <0>         0.0000
     25 H9          0.0419    9.5317    0.8955 H         1 <0>         0.0000
     26 H10         0.7191    9.4923   -0.7373 H         1 <0>         0.0000
     27 H11         3.5286    3.2197    1.5377 H         1 <0>         0.0000
     28 H12         2.8420    6.1929    1.1812 H         1 <0>         0.0000
@<TRIPOS>BOND
     1    1    2 ar
     2    1    3 ar
     3    1   17 1
     4    2    5 ar
     5    2   18 1
     6    3    6 ar
     7    3   19 1
     8    4    5 ar
     9    4    6 ar
    10    4    7 1
    11    5   10 1
    12    6   14 1
    13    7    8 2
    14    7   15 1
    15    8    9 1
    16    8   10 1
    17    9   13 2
    18    9   16 1
    19   10   20 1
    20   10   21 1
    21   11   12 1
    22   11   22 1
    23   11   23 1
    24   11   24 1
    25   12   16 1
    26   12   25 1
    27   12   26 1
    28   14   27 1
    29   15   28 1
