@<TRIPOS>MOLECULE
*****
   52    55     0     0     0
SMALL
NO_CHARGES

@<TRIPOS>ATOM
      1 C1         -1.8258    3.1691   -3.5480 C.1       1 <0>         0.0000
      2 C2          2.2253    2.4096    1.6380 C.ar      1 <0>         0.0000
      3 C3          1.6817    1.9342    0.4204 C.ar      1 <0>         0.0000
      4 C4          1.9989    1.7748    2.8637 C.ar      1 <0>         0.0000
      5 C5          0.6725    0.1498    1.6193 C.ar      1 <0>         0.0000
      6 C6          0.8879    0.7870    0.3946 C.ar      1 <0>         0.0000
      7 C7         -0.1158   -1.0126    1.8775 C.2       1 <0>         0.0000
      8 C8          1.2063    0.6199    2.8396 C.ar      1 <0>         0.0000
      9 C9         -0.0519   -1.2350    3.2334 C.2       1 <0>         0.0000
     10 C10        -0.7270   -1.7382    0.7165 C.3       1 <0>         0.0000
     11 C11        -0.2770    1.2660   -1.8189 C.3       1 <0>         0.0000
     12 C12        -1.6389   -0.5877   -2.8227 C.3       1 <0>         0.0000
     13 C13         0.2098    0.1771   -0.8217 C.3       1 <0>         0.0000
     14 C14        -1.6103    0.9029   -2.4969 C.3       1 <0>         0.0000
     15 C15        -0.9993   -0.7347   -0.4300 C.3       1 <0>         0.0000
     16 C16         0.4102   -4.5767   -2.6685 C.3       1 <0>         0.0000
     17 C17        -1.5486   -2.7519    6.2118 C.3       1 <0>         0.0000
     18 C18        -1.8423    1.7194   -3.7834 C.3       1 <0>         0.0000
     19 C19        -0.6242   -2.3220    4.0775 C.3       1 <0>         0.0000
     20 C20         0.2258   -3.0927   -2.3317 C.3       1 <0>         0.0000
     21 C21        -1.2264   -2.7896   -1.9044 C.3       1 <0>         0.0000
     22 N1         -1.8105    4.3140   -3.3433 N.1       1 <0>         0.0000
     23 N2          0.7795   -0.2689    3.8166 N.pl3     1 <0>         0.0000
     24 N3         -1.5891   -1.4047   -1.6080 N.3       1 <0>         0.0000
     25 O1         -1.0629   -1.7632    5.3158 O.3       1 <0>         0.0000
     26 H1          2.8374    3.3078    1.6198 H         1 <0>         0.0000
     27 H2          1.8858    2.4876   -0.4926 H         1 <0>         0.0000
     28 H3          2.4229    2.1699    3.7833 H         1 <0>         0.0000
     29 H4         -0.0400   -2.5232    0.3829 H         1 <0>         0.0000
     30 H5         -1.6687   -2.2305    0.9833 H         1 <0>         0.0000
     31 H6         -0.3929    2.2203   -1.2989 H         1 <0>         0.0000
     32 H7          0.4869    1.4231   -2.5901 H         1 <0>         0.0000
     33 H8         -2.5497   -0.8436   -3.3835 H         1 <0>         0.0000
     34 H9         -0.7890   -0.7916   -3.4998 H         1 <0>         0.0000
     35 H10         0.9390   -0.4622   -1.3350 H         1 <0>         0.0000
     36 H11        -2.4374    1.1250   -1.8144 H         1 <0>         0.0000
     37 H12        -1.7637   -0.0567   -0.0274 H         1 <0>         0.0000
     38 H13         0.1725   -5.2103   -1.8058 H         1 <0>         0.0000
     39 H14        -0.2467   -4.8807   -3.4919 H         1 <0>         0.0000
     40 H15         1.4408   -4.7949   -2.9668 H         1 <0>         0.0000
     41 H16        -1.8500   -2.2367    7.1263 H         1 <0>         0.0000
     42 H17        -0.7712   -3.4925    6.4529 H         1 <0>         0.0000
     43 H18        -2.4187   -3.2784    5.7925 H         1 <0>         0.0000
     44 H19        -2.8075    1.4598   -4.2321 H         1 <0>         0.0000
     45 H20        -1.0678    1.4864   -4.5238 H         1 <0>         0.0000
     46 H21        -1.4590   -2.8018    3.5455 H         1 <0>         0.0000
     47 H22         0.1309   -3.1009    4.2812 H         1 <0>         0.0000
     48 H23         0.4986   -2.4849   -3.2020 H         1 <0>         0.0000
     49 H24         0.9185   -2.8113   -1.5312 H         1 <0>         0.0000
     50 H25        -1.8954   -3.1180   -2.7115 H         1 <0>         0.0000
     51 H26        -1.4805   -3.4187   -1.0459 H         1 <0>         0.0000
     52 H27         0.7801   -0.0966    4.8132 H         1 <0>         0.0000
@<TRIPOS>BOND
     1    1   18 1
     2    1   22 3
     3    2    3 ar
     4    2    4 ar
     5    2   26 1
     6    3    6 ar
     7    3   27 1
     8    4    8 ar
     9    4   28 1
    10    5    6 ar
    11    5    7 1
    12    5    8 ar
    13    6   13 1
    14    7    9 2
    15    7   10 1
    16    8   23 1
    17    9   19 1
    18    9   23 1
    19   10   15 1
    20   10   29 1
    21   10   30 1
    22   11   13 1
    23   11   14 1
    24   11   31 1
    25   11   32 1
    26   12   14 1
    27   12   24 1
    28   12   33 1
    29   12   34 1
    30   13   15 1
    31   13   35 1
    32   14   18 1
    33   14   36 1
    34   15   24 1
    35   15   37 1
    36   16   20 1
    37   16   38 1
    38   16   39 1
    39   16   40 1
    40   17   25 1
    41   17   41 1
    42   17   42 1
    43   17   43 1
    44   18   44 1
    45   18   45 1
    46   19   25 1
    47   19   46 1
    48   19   47 1
    49   20   21 1
    50   20   48 1
    51   20   49 1
    52   21   24 1
    53   21   50 1
    54   21   51 1
    55   23   52 1
