@<TRIPOS>MOLECULE
*****
   24    24     0     0     0
SMALL
NO_CHARGES

@<TRIPOS>ATOM
      1 C1          2.4083   -0.7521   -0.0785 C.ar      1 <0>         0.0000
      2 C2          1.2662   -0.2677    0.5557 C.ar      1 <0>         0.0000
      3 C3          2.9764   -1.9865    1.9236 C.ar      1 <0>         0.0000
      4 C4          3.2682   -1.6131    0.6106 C.ar      1 <0>         0.0000
      5 C5          0.9741   -0.6377    1.8740 C.ar      1 <0>         0.0000
      6 C6          1.8320   -1.5072    2.5739 C.ar      1 <0>         0.0000
      7 C7          2.6143   -1.2556    4.9594 C.2       1 <0>         0.0000
      8 C8          1.6057   -1.9279    4.0162 C.3       1 <0>         0.0000
      9 C9          4.4808   -2.1877   -0.0823 C.3       1 <0>         0.0000
     10 C10        -0.2755   -0.1117    2.5301 C.3       1 <0>         0.0000
     11 O1          3.5214   -1.8587    5.4843 O.2       1 <0>         0.0000
     12 O2          2.4448    0.0718    5.1649 O.3       1 <0>         0.0000
     13 F1          5.4978   -2.4046    0.8141 F         1 <0>         0.0000
     14 F2          4.9462   -1.3217   -1.0434 F         1 <0>         0.0000
     15 F3         -1.0081    0.6666    1.6847 F         1 <0>         0.0000
     16 F4          0.0562    0.7042    3.6238 F         1 <0>         0.0000
     17 H1          2.6356   -0.4542   -1.0969 H         1 <0>         0.0000
     18 H2          0.5947    0.3998    0.0272 H         1 <0>         0.0000
     19 H3          3.6562   -2.6402    2.4629 H         1 <0>         0.0000
     20 H4          1.7649   -3.0020    4.1183 H         1 <0>         0.0000
     21 H5          0.5916   -1.7056    4.3578 H         1 <0>         0.0000
     22 H6          4.2802   -3.1423   -0.5801 H         1 <0>         0.0000
     23 H7         -0.9381   -0.8865    2.9247 H         1 <0>         0.0000
     24 H8          1.6801    0.4052    4.6591 H         1 <0>         0.0000
@<TRIPOS>BOND
     1    1    2 ar
     2    1    4 ar
     3    1   17 1
     4    2    5 ar
     5    2   18 1
     6    3    4 ar
     7    3    6 ar
     8    3   19 1
     9    4    9 1
    10    5    6 ar
    11    5   10 1
    12    6    8 1
    13    7    8 1
    14    7   11 2
    15    7   12 1
    16    8   20 1
    17    8   21 1
    18    9   13 1
    19    9   14 1
    20    9   22 1
    21   10   15 1
    22   10   16 1
    23   10   23 1
    24   12   24 1
