@<TRIPOS>MOLECULE
*****
   35    36     0     0     0
SMALL
NO_CHARGES

@<TRIPOS>ATOM
      1 C1          0.7673   -0.6052   -6.0677 C.ar      1 <0>         0.0000
      2 C2          2.1778    1.6152   -5.5369 C.ar      1 <0>         0.0000
      3 C3          1.1567   -0.2798   -4.7646 C.ar      1 <0>         0.0000
      4 C4          1.7747    1.2688   -6.8382 C.ar      1 <0>         0.0000
      5 C5          0.7886   -1.1924   -3.6221 C.2       1 <0>         0.0000
      6 C6          2.1014   -2.5658   -0.9708 C.3       1 <0>         0.0000
      7 C7          0.8826   -0.6080    0.0276 C.3       1 <0>         0.0000
      8 C8          1.8976   -3.3126    0.3473 C.3       1 <0>         0.0000
      9 C9          0.7261   -1.4276    1.3094 C.3       1 <0>         0.0000
     10 C10         0.9871   -1.5321   -1.1871 C.3       1 <0>         0.0000
     11 C11         1.7951   -3.0449    2.7646 C.3       1 <0>         0.0000
     12 C12         2.4774   -2.2130    3.8385 C.3       1 <0>         0.0000
     13 N1          1.8635    0.8341   -4.5066 N.ar      1 <0>         0.0000
     14 N2          1.0799    0.1778   -7.1100 N.ar      1 <0>         0.0000
     15 N3          1.8349   -2.3724    1.4721 N.3       1 <0>         0.0000
     16 N4          1.1922   -0.7555   -2.4042 N.am      1 <0>         0.0000
     17 O1          0.1637   -2.2376   -3.8218 O.2       1 <0>         0.0000
     18 F1          3.8370   -2.2022    3.6432 F         1 <0>         0.0000
     19 F2          2.2469   -2.7845    5.0730 F         1 <0>         0.0000
     20 Cl1         2.2073    2.3196   -8.1671 Cl        1 <0>         0.0000
     21 H1          0.1983   -1.5092   -6.2612 H         1 <0>         0.0000
     22 H2          2.7497    2.5190   -5.3440 H         1 <0>         0.0000
     23 H3          3.0702   -2.0532   -0.9471 H         1 <0>         0.0000
     24 H4          2.1100   -3.2741   -1.8045 H         1 <0>         0.0000
     25 H5          0.0298    0.0699   -0.0859 H         1 <0>         0.0000
     26 H6          1.7911    0.0024    0.1074 H         1 <0>         0.0000
     27 H7          0.9792   -3.9286    0.2850 H         1 <0>         0.0000
     28 H8          2.7359   -3.9951    0.5150 H         1 <0>         0.0000
     29 H9          0.7011   -0.7513    2.1696 H         1 <0>         0.0000
     30 H10        -0.2465   -1.9585    1.2921 H         1 <0>         0.0000
     31 H11         0.0407   -2.0666   -1.3182 H         1 <0>         0.0000
     32 H12         2.3391   -3.9919    2.7089 H         1 <0>         0.0000
     33 H13         0.7698   -3.2737    3.1020 H         1 <0>         0.0000
     34 H14         2.1463   -1.1723    3.8881 H         1 <0>         0.0000
     35 H15         1.7487    0.0926   -2.3812 H         1 <0>         0.0000
@<TRIPOS>BOND
     1    1    3 ar
     2    1   14 ar
     3    1   21 1
     4    2    4 ar
     5    2   13 ar
     6    2   22 1
     7    3    5 1
     8    3   13 ar
     9    4   14 ar
    10    4   20 1
    11    5   16 am
    12    5   17 2
    13    6    8 1
    14    6   10 1
    15    6   23 1
    16    6   24 1
    17    7    9 1
    18    7   10 1
    19    7   25 1
    20    7   26 1
    21    8   15 1
    22    8   27 1
    23    8   28 1
    24    9   15 1
    25    9   29 1
    26    9   30 1
    27   10   16 1
    28   10   31 1
    29   11   12 1
    30   11   15 1
    31   11   32 1
    32   11   33 1
    33   12   18 1
    34   12   19 1
    35   12   34 1
    36   16   35 1
