@<TRIPOS>MOLECULE
*****
   37    39     0     0     0
SMALL
NO_CHARGES

@<TRIPOS>ATOM
      1 C1          1.0877   -1.8491   -0.1263 C.ar      1 <0>         0.0000
      2 C2          0.9689   -0.4823    0.0935 C.ar      1 <0>         0.0000
      3 C3          2.3364   -2.4562   -0.0309 C.ar      1 <0>         0.0000
      4 C4          2.0939    0.2761    0.4273 C.ar      1 <0>         0.0000
      5 C5          4.4440    0.5791    4.0861 C.ar      1 <0>         0.0000
      6 C6          3.8942    0.0921    5.2719 C.ar      1 <0>         0.0000
      7 C7          2.3209    1.5794    3.5125 C.ar      1 <0>         0.0000
      8 C8          3.4772   -1.7024    0.2914 C.ar      1 <0>         0.0000
      9 C9          1.7711    1.0923    4.6982 C.ar      1 <0>         0.0000
     10 C10         3.3536   -0.3259    0.5755 C.ar      1 <0>         0.0000
     11 C11         3.6574    1.3228    3.2064 C.ar      1 <0>         0.0000
     12 C12         2.5577    0.3487    5.5780 C.ar      1 <0>         0.0000
     13 C13         4.8030   -2.4147    0.3793 C.3       1 <0>         0.0000
     14 C14         5.9714   -1.4502    0.2365 C.3       1 <0>         0.0000
     15 C15         5.7938   -0.2828    1.1918 C.3       1 <0>         0.0000
     16 C16         0.3353    1.3889    4.9899 C.3       1 <0>         0.0000
     17 N1          4.5510    0.4683    0.8450 N.pl3     1 <0>         0.0000
     18 O1          3.3461    2.7386    1.0449 O.2       1 <0>         0.0000
     19 O2          5.6595    2.4815    2.0091 O.2       1 <0>         0.0000
     20 F1         -0.2759    2.1276    4.0188 F         1 <0>         0.0000
     21 F2         -0.4336    0.2700    5.1272 F         1 <0>         0.0000
     22 F3          0.1724    2.0928    6.1463 F         1 <0>         0.0000
     23 S1          4.3535    1.9387    1.7061 S.o2      1 <0>         0.0000
     24 Cl1         1.9119   -0.2699    7.0542 Cl        1 <0>         0.0000
     25 H1          0.2129   -2.4387   -0.3833 H         1 <0>         0.0000
     26 H2          0.0001    0.0001   -0.0004 H         1 <0>         0.0000
     27 H3          2.4207   -3.5241   -0.2180 H         1 <0>         0.0000
     28 H4          1.9503    1.3431    0.5658 H         1 <0>         0.0000
     29 H5          5.4862    0.3736    3.8572 H         1 <0>         0.0000
     30 H6          4.5205   -0.4858    5.9467 H         1 <0>         0.0000
     31 H7          1.7078    2.1596    2.8266 H         1 <0>         0.0000
     32 H8          4.8579   -2.9272    1.3476 H         1 <0>         0.0000
     33 H9          4.8762   -3.1762   -0.4062 H         1 <0>         0.0000
     34 H10         6.9114   -1.9724    0.4464 H         1 <0>         0.0000
     35 H11         6.0265   -1.0808   -0.7957 H         1 <0>         0.0000
     36 H12         5.7385   -0.6310    2.2301 H         1 <0>         0.0000
     37 H13         6.6551    0.3877    1.0962 H         1 <0>         0.0000
@<TRIPOS>BOND
     1    1    2 ar
     2    1    3 ar
     3    1   25 1
     4    2    4 ar
     5    2   26 1
     6    3    8 ar
     7    3   27 1
     8    4   10 ar
     9    4   28 1
    10    5    6 ar
    11    5   11 ar
    12    5   29 1
    13    6   12 ar
    14    6   30 1
    15    7    9 ar
    16    7   11 ar
    17    7   31 1
    18    8   10 ar
    19    8   13 1
    20    9   12 ar
    21    9   16 1
    22   10   17 1
    23   11   23 1
    24   12   24 1
    25   13   14 1
    26   13   32 1
    27   13   33 1
    28   14   15 1
    29   14   34 1
    30   14   35 1
    31   15   17 1
    32   15   36 1
    33   15   37 1
    34   16   20 1
    35   16   21 1
    36   16   22 1
    37   17   23 1
    38   18   23 2
    39   19   23 2
