@<TRIPOS>MOLECULE
*****
   35    37     0     0     0
SMALL
NO_CHARGES

@<TRIPOS>ATOM
      1 C1          8.0486   -2.6603    4.3721 C.1       1 <0>         0.0000
      2 C2          7.6846   -4.9643   -1.8398 C.ar      1 <0>         0.0000
      3 C3          0.3836   -0.8330    2.5345 C.ar      1 <0>         0.0000
      4 C4          6.5896   -4.3301   -1.2410 C.ar      1 <0>         0.0000
      5 C5          8.8694   -5.1359   -1.1142 C.ar      1 <0>         0.0000
      6 C6          0.1293   -0.9259    1.1629 C.ar      1 <0>         0.0000
      7 C7          1.6716   -1.0665    3.0071 C.ar      1 <0>         0.0000
      8 C8          6.6650   -3.8644    0.0697 C.ar      1 <0>         0.0000
      9 C9          8.9507   -4.6730    0.1958 C.ar      1 <0>         0.0000
     10 C10         1.1671   -1.2473    0.2870 C.ar      1 <0>         0.0000
     11 C11         2.7211   -1.3950    2.1270 C.ar      1 <0>         0.0000
     12 C12         7.8540   -4.0239    0.8145 C.ar      1 <0>         0.0000
     13 C13         2.4742   -1.4882    0.7376 C.ar      1 <0>         0.0000
     14 C14         4.0515   -1.6109    2.7245 C.2       1 <0>         0.0000
     15 C15         6.0221   -2.2995    3.0691 C.2       1 <0>         0.0000
     16 C16         8.0755   -3.5786    2.1806 C.2       1 <0>         0.0000
     17 C17         7.3626   -2.8788    3.1213 C.2       1 <0>         0.0000
     18 C18         3.5366   -1.8304   -0.2816 C.3       1 <0>         0.0000
     19 N1          8.6333   -2.5063    5.3680 N.1       1 <0>         0.0000
     20 N2          5.0719   -2.3636    2.1705 N.2       1 <0>         0.0000
     21 N3          4.3608   -1.1020    3.9046 N.2       1 <0>         0.0000
     22 O1          5.6592   -1.5596    4.1423 O.3       1 <0>         0.0000
     23 H1          7.6152   -5.3245   -2.8630 H         1 <0>         0.0000
     24 H2         -0.4141   -0.5849    3.2292 H         1 <0>         0.0000
     25 H3          5.6675   -4.1990   -1.8013 H         1 <0>         0.0000
     26 H4          9.7239   -5.6290   -1.5691 H         1 <0>         0.0000
     27 H5         -0.8708   -0.7481    0.7761 H         1 <0>         0.0000
     28 H6          1.8824   -1.0027    4.0697 H         1 <0>         0.0000
     29 H7          5.8139   -3.3822    0.5275 H         1 <0>         0.0000
     30 H8          9.8737   -4.8084    0.7545 H         1 <0>         0.0000
     31 H9          0.9636   -1.3102   -0.7793 H         1 <0>         0.0000
     32 H10         9.0609   -3.8586    2.5466 H         1 <0>         0.0000
     33 H11         4.4667   -1.2831   -0.1135 H         1 <0>         0.0000
     34 H12         3.7818   -2.8962   -0.2442 H         1 <0>         0.0000
     35 H13         3.1789   -1.6020   -1.2890 H         1 <0>         0.0000
@<TRIPOS>BOND
     1    1   17 1
     2    1   19 3
     3    2    5 ar
     4    2    4 ar
     5    2   23 1
     6    3    6 ar
     7    3    7 ar
     8    3   24 1
     9    4    8 ar
    10    4   25 1
    11    5    9 ar
    12    5   26 1
    13    6   10 ar
    14    6   27 1
    15    7   11 ar
    16    7   28 1
    17    8   12 ar
    18    8   29 1
    19    9   12 ar
    20    9   30 1
    21   10   13 ar
    22   10   31 1
    23   11   13 ar
    24   11   14 1
    25   12   16 1
    26   13   18 1
    27   14   20 1
    28   14   21 2
    29   15   17 1
    30   15   20 2
    31   15   22 1
    32   16   17 2
    33   16   32 1
    34   18   33 1
    35   18   34 1
    36   18   35 1
    37   21   22 1
