@<TRIPOS>MOLECULE
*****
   21    21     0     0     0
SMALL
NO_CHARGES

@<TRIPOS>ATOM
      1 C1         -0.8726    0.6041    2.1154 C.ar      1 <0>         0.0000
      2 C2          0.7884   -0.9252    1.2889 C.ar      1 <0>         0.0000
      3 C3          0.3840   -0.8775    3.5493 C.ar      1 <0>         0.0000
      4 C4         -0.1752    0.0613    1.0299 C.ar      1 <0>         0.0000
      5 C5         -0.5809    0.1215    3.3888 C.ar      1 <0>         0.0000
      6 C6         -0.3833    0.5016   -0.3931 C.2       1 <0>         0.0000
      7 C7         -2.4195    0.1767   -2.9012 C.3       1 <0>         0.0000
      8 C8         -1.9800    1.3765   -2.0569 C.3       1 <0>         0.0000
      9 N1          1.0584   -1.3919    2.5131 N.ar      1 <0>         0.0000
     10 N2         -1.6202    1.0131   -0.6853 N.am      1 <0>         0.0000
     11 O1          0.5188    0.4143   -1.2260 O.2       1 <0>         0.0000
     12 Br1        -1.4848    0.8311    4.9196 Br        1 <0>         0.0000
     13 H1         -1.5968    1.4024    1.9850 H         1 <0>         0.0000
     14 H2          1.3559   -1.3432    0.4617 H         1 <0>         0.0000
     15 H3          0.6214   -1.2655    4.5374 H         1 <0>         0.0000
     16 H4         -1.6113   -0.5562   -2.9684 H         1 <0>         0.0000
     17 H5         -3.2997   -0.3118   -2.4686 H         1 <0>         0.0000
     18 H6         -2.6762    0.5006   -3.9155 H         1 <0>         0.0000
     19 H7         -2.7742    2.1279   -2.0030 H         1 <0>         0.0000
     20 H8         -1.1025    1.8491   -2.5018 H         1 <0>         0.0000
     21 H9         -2.3765    0.8146   -0.0432 H         1 <0>         0.0000
@<TRIPOS>BOND
     1    1    4 ar
     2    1    5 ar
     3    1   13 1
     4    2    4 ar
     5    2    9 ar
     6    2   14 1
     7    3    5 ar
     8    3    9 ar
     9    3   15 1
    10    4    6 1
    11    5   12 1
    12    6   10 am
    13    6   11 2
    14    7    8 1
    15    7   16 1
    16    7   17 1
    17    7   18 1
    18    8   10 1
    19    8   19 1
    20    8   20 1
    21   10   21 1
