@<TRIPOS>MOLECULE
*****
   31    33     0     0     0
SMALL
NO_CHARGES

@<TRIPOS>ATOM
      1 C1          0.2444    2.5352   -5.3990 C.1       1 <0>         0.0000
      2 C2         -0.2988    0.6669   -3.8598 C.ar      1 <0>         0.0000
      3 C3         -1.1147   -2.0154    2.0965 C.ar      1 <0>         0.0000
      4 C4         -0.8141   -0.7841    1.5042 C.ar      1 <0>         0.0000
      5 C5         -0.2994    0.1500   -2.5775 C.ar      1 <0>         0.0000
      6 C6          0.4128   -1.9141   -0.2664 C.ar      1 <0>         0.0000
      7 C7          0.6916    2.6749   -2.9778 C.ar      1 <0>         0.0000
      8 C8          0.2161    1.9593   -4.0907 C.ar      1 <0>         0.0000
      9 C9         -0.6780   -3.1932    1.4919 C.ar      1 <0>         0.0000
     10 C10         0.0817   -3.1359    0.3133 C.ar      1 <0>         0.0000
     11 C11        -0.0541   -0.7272    0.3250 C.ar      1 <0>         0.0000
     12 C12         0.2249    0.9457   -1.5289 C.ar      1 <0>         0.0000
     13 C13        -0.8631   -4.6306    1.9330 C.3       1 <0>         0.0000
     14 C14         0.4772   -4.5309   -0.1260 C.3       1 <0>         0.0000
     15 C15        -0.5093   -5.4342    0.6562 C.3       1 <0>         0.0000
     16 N1          0.2679    3.0067   -6.4662 N.1       1 <0>         0.0000
     17 N2          0.6999    2.1933   -1.7388 N.ar      1 <0>         0.0000
     18 N3          0.2662    0.5406   -0.2181 N.pl3     1 <0>         0.0000
     19 H1         -0.7009    0.0873   -4.6856 H         1 <0>         0.0000
     20 H2         -1.7029   -2.0435    3.0110 H         1 <0>         0.0000
     21 H3         -1.1794    0.1404    1.9447 H         1 <0>         0.0000
     22 H4         -0.7150   -0.8294   -2.3751 H         1 <0>         0.0000
     23 H5          1.0398   -1.8696   -1.1525 H         1 <0>         0.0000
     24 H6          1.0805    3.6831   -3.1080 H         1 <0>         0.0000
     25 H7         -0.1663   -4.8663    2.7489 H         1 <0>         0.0000
     26 H8         -1.8718   -4.8416    2.3020 H         1 <0>         0.0000
     27 H9          0.4203   -4.6749   -1.2095 H         1 <0>         0.0000
     28 H10         1.5146   -4.7350    0.1716 H         1 <0>         0.0000
     29 H11        -0.0978   -6.4232    0.8753 H         1 <0>         0.0000
     30 H12        -1.4162   -5.5770    0.0587 H         1 <0>         0.0000
     31 H13         0.5127    1.2848    0.4246 H         1 <0>         0.0000
@<TRIPOS>BOND
     1    1    8 1
     2    1   16 3
     3    2    5 ar
     4    2    8 ar
     5    2   19 1
     6    3    4 ar
     7    3    9 ar
     8    3   20 1
     9    4   11 ar
    10    4   21 1
    11    5   12 ar
    12    5   22 1
    13    6   10 ar
    14    6   11 ar
    15    6   23 1
    16    7    8 ar
    17    7   17 ar
    18    7   24 1
    19    9   10 ar
    20    9   13 1
    21   10   14 1
    22   11   18 1
    23   12   17 ar
    24   12   18 1
    25   13   15 1
    26   13   25 1
    27   13   26 1
    28   14   15 1
    29   14   27 1
    30   14   28 1
    31   15   29 1
    32   15   30 1
    33   18   31 1
