@<TRIPOS>MOLECULE
*****
   34    36     0     0     0
SMALL
NO_CHARGES

@<TRIPOS>ATOM
      1 C1         -0.9285   -2.9705  -12.9483 C.1       1 <0>         0.0000
      2 C2         -1.8930    3.2667   -4.7944 C.ar      1 <0>         0.0000
      3 C3         -1.9587    2.5533   -3.5846 C.ar      1 <0>         0.0000
      4 C4         -1.6219    2.6162   -5.9984 C.ar      1 <0>         0.0000
      5 C5         -1.7527    1.1708   -3.5591 C.ar      1 <0>         0.0000
      6 C6         -0.8069   -3.1065  -10.4179 C.2       1 <0>         0.0000
      7 C7         -0.4187   -3.4308  -11.7093 C.2       1 <0>         0.0000
      8 C8          0.0103   -3.8660   -9.5260 C.2       1 <0>         0.0000
      9 C9         -1.4139    1.2293   -5.9917 C.ar      1 <0>         0.0000
     10 C10        -1.4825    0.5217   -4.7651 C.ar      1 <0>         0.0000
     11 C11         0.8777   -4.6350  -10.3200 C.2       1 <0>         0.0000
     12 C12        -0.9958   -0.7937   -6.7625 C.2       1 <0>         0.0000
     13 C13        -0.0415   -3.9324   -8.0664 C.2       1 <0>         0.0000
     14 C14         1.9512   -5.5957   -9.9214 C.3       1 <0>         0.0000
     15 C15         1.3216   -4.9341  -12.7734 C.3       1 <0>         0.0000
     16 N1         -1.3343   -2.6030  -13.9798 N.1       1 <0>         0.0000
     17 N2         -1.1356    0.4499   -7.1100 N.2       1 <0>         0.0000
     18 N3         -0.3980   -3.0245   -7.2197 N.2       1 <0>         0.0000
     19 N4          0.6128   -4.3626  -11.6346 N.pl3     1 <0>         0.0000
     20 N5         -0.7539   -1.7927   -7.6793 N.pl3     1 <0>         0.0000
     21 S1         -1.1753   -1.1920   -5.0458 S.3       1 <0>         0.0000
     22 H1         -2.0563    4.3411   -4.7910 H         1 <0>         0.0000
     23 H2         -2.1719    3.0791   -2.6579 H         1 <0>         0.0000
     24 H3         -1.5694    3.1586   -6.9379 H         1 <0>         0.0000
     25 H4         -1.8033    0.6211   -2.6233 H         1 <0>         0.0000
     26 H5         -1.6317   -2.4529  -10.1701 H         1 <0>         0.0000
     27 H6          0.2507   -4.8686   -7.5958 H         1 <0>         0.0000
     28 H7          1.7593   -6.6026  -10.3099 H         1 <0>         0.0000
     29 H8          2.9327   -5.2798  -10.2936 H         1 <0>         0.0000
     30 H9          2.0193   -5.6610   -8.8349 H         1 <0>         0.0000
     31 H10         2.3780   -4.6516  -12.7494 H         1 <0>         0.0000
     32 H11         1.2410   -6.0243  -12.7637 H         1 <0>         0.0000
     33 H12         0.8780   -4.5576  -13.6948 H         1 <0>         0.0000
     34 H13        -0.4636   -1.4738   -8.6033 H         1 <0>         0.0000
@<TRIPOS>BOND
     1    1    7 1
     2    1   16 3
     3    2    3 ar
     4    2    4 ar
     5    2   22 1
     6    3    5 ar
     7    3   23 1
     8    4    9 ar
     9    4   24 1
    10    5   10 ar
    11    5   25 1
    12    6    7 2
    13    6    8 1
    14    6   26 1
    15    7   19 1
    16    8   11 2
    17    8   13 1
    18    9   10 ar
    19    9   17 1
    20   10   21 1
    21   11   14 1
    22   11   19 1
    23   12   17 2
    24   12   20 1
    25   12   21 1
    26   13   18 2
    27   13   27 1
    28   14   28 1
    29   14   29 1
    30   14   30 1
    31   15   19 1
    32   15   31 1
    33   15   32 1
    34   15   33 1
    35   18   20 1
    36   20   34 1
