@<TRIPOS>MOLECULE
*****
   35    37     0     0     0
SMALL
NO_CHARGES

@<TRIPOS>ATOM
      1 C1          7.9090   -3.0144    2.3017 C.1       1 <0>         0.0000
      2 C2          7.2588   -1.1529    8.6192 C.ar      1 <0>         0.0000
      3 C3          2.1435   -0.8931   -0.3499 C.ar      1 <0>         0.0000
      4 C4          6.5403   -0.6036    7.5495 C.ar      1 <0>         0.0000
      5 C5          8.2261   -2.1337    8.3771 C.ar      1 <0>         0.0000
      6 C6          0.8036   -0.8313    0.0421 C.ar      1 <0>         0.0000
      7 C7          3.1100   -1.2723    0.5779 C.ar      1 <0>         0.0000
      8 C8          6.7656   -1.0464    6.2488 C.ar      1 <0>         0.0000
      9 C9          8.4679   -2.5634    7.0729 C.ar      1 <0>         0.0000
     10 C10         0.4491   -1.1501    1.3550 C.ar      1 <0>         0.0000
     11 C11         2.7569   -1.5941    1.9026 C.ar      1 <0>         0.0000
     12 C12         7.7234   -2.0481    5.9921 C.ar      1 <0>         0.0000
     13 C13         1.4008   -1.5357    2.3097 C.ar      1 <0>         0.0000
     14 C14         3.8555   -1.9827    2.8009 C.2       1 <0>         0.0000
     15 C15         5.8315   -2.3831    3.4248 C.2       1 <0>         0.0000
     16 C16         8.0446   -2.5356    4.6530 C.2       1 <0>         0.0000
     17 C17         7.2755   -2.6184    3.5308 C.2       1 <0>         0.0000
     18 C18         0.9407   -1.8671    3.7081 C.3       1 <0>         0.0000
     19 N1          8.4441   -3.3394    1.3190 N.1       1 <0>         0.0000
     20 N2          5.1747   -2.0065    2.3657 N.2       1 <0>         0.0000
     21 N3          3.7185   -2.3372    4.0680 N.2       1 <0>         0.0000
     22 O1          5.0342   -2.6170    4.4871 O.3       1 <0>         0.0000
     23 H1          7.0747   -0.8072    9.6329 H         1 <0>         0.0000
     24 H2          2.4335   -0.6496   -1.3682 H         1 <0>         0.0000
     25 H3          5.8054    0.1756    7.7313 H         1 <0>         0.0000
     26 H4          8.7969   -2.5541    9.2004 H         1 <0>         0.0000
     27 H5          0.0361   -0.5373   -0.6694 H         1 <0>         0.0000
     28 H6          4.1545   -1.3279    0.2916 H         1 <0>         0.0000
     29 H7          6.2170   -0.5930    5.4313 H         1 <0>         0.0000
     30 H8          9.2287   -3.3174    6.8849 H         1 <0>         0.0000
     31 H9         -0.5957   -1.1002    1.6515 H         1 <0>         0.0000
     32 H10         9.0711   -2.8747    4.5276 H         1 <0>         0.0000
     33 H11         1.1991   -2.8938    3.9833 H         1 <0>         0.0000
     34 H12         1.4206   -1.2248    4.4525 H         1 <0>         0.0000
     35 H13        -0.1427   -1.7459    3.7890 H         1 <0>         0.0000
@<TRIPOS>BOND
     1    1   17 1
     2    1   19 3
     3    2    5 ar
     4    2    4 ar
     5    2   23 1
     6    3    6 ar
     7    3    7 ar
     8    3   24 1
     9    4    8 ar
    10    4   25 1
    11    5    9 ar
    12    5   26 1
    13    6   10 ar
    14    6   27 1
    15    7   11 ar
    16    7   28 1
    17    8   12 ar
    18    8   29 1
    19    9   12 ar
    20    9   30 1
    21   10   13 ar
    22   10   31 1
    23   11   13 ar
    24   11   14 1
    25   12   16 1
    26   13   18 1
    27   14   20 1
    28   14   21 2
    29   15   17 1
    30   15   20 2
    31   15   22 1
    32   16   17 2
    33   16   32 1
    34   18   33 1
    35   18   34 1
    36   18   35 1
    37   21   22 1
