@<TRIPOS>MOLECULE
*****
   35    37     0     0     0
SMALL
NO_CHARGES

@<TRIPOS>ATOM
      1 C1          7.9870   -2.2746    2.4202 C.1       1 <0>         0.0000
      2 C2          6.6903   -1.8602    8.8997 C.ar      1 <0>         0.0000
      3 C3          0.4222   -0.4913    1.6878 C.ar      1 <0>         0.0000
      4 C4          6.0069   -1.1447    7.9081 C.ar      1 <0>         0.0000
      5 C5          7.7560   -2.6943    8.5462 C.ar      1 <0>         0.0000
      6 C6          0.5493   -0.3520    0.3025 C.ar      1 <0>         0.0000
      7 C7          1.5150   -0.9285    2.4313 C.ar      1 <0>         0.0000
      8 C8          6.3655   -1.2786    6.5693 C.ar      1 <0>         0.0000
      9 C9          8.1305   -2.8130    7.2085 C.ar      1 <0>         0.0000
     10 C10         1.7621   -0.6570   -0.3180 C.ar      1 <0>         0.0000
     11 C11         2.7408   -1.2301    1.8089 C.ar      1 <0>         0.0000
     12 C12         7.4247   -2.1304    6.1963 C.ar      1 <0>         0.0000
     13 C13         2.8793   -1.1001    0.4066 C.ar      1 <0>         0.0000
     14 C14         3.8442   -1.6882    2.6700 C.2       1 <0>         0.0000
     15 C15         5.7783   -2.0432    3.4288 C.2       1 <0>         0.0000
     16 C16         7.8882   -2.2939    4.8209 C.2       1 <0>         0.0000
     17 C17         7.2218   -2.1899    3.6360 C.2       1 <0>         0.0000
     18 C18         4.1514   -1.4303   -0.3403 C.3       1 <0>         0.0000
     19 N1          8.6254   -2.3497    1.4484 N.1       1 <0>         0.0000
     20 N2          5.1901   -1.5455    2.3756 N.2       1 <0>         0.0000
     21 N3          3.6207   -2.2596    3.8418 N.2       1 <0>         0.0000
     22 O1          4.9090   -2.5018    4.3514 O.3       1 <0>         0.0000
     23 H1          6.4019   -1.7562    9.9422 H         1 <0>         0.0000
     24 H2         -0.5160   -0.2575    2.1834 H         1 <0>         0.0000
     25 H3          5.1942   -0.4776    8.1816 H         1 <0>         0.0000
     26 H4          8.2996   -3.2415    9.3113 H         1 <0>         0.0000
     27 H5         -0.2924   -0.0089   -0.2938 H         1 <0>         0.0000
     28 H6          1.4351   -1.0360    3.5085 H         1 <0>         0.0000
     29 H7          5.8396   -0.7002    5.8187 H         1 <0>         0.0000
     30 H8          8.9673   -3.4522    6.9366 H         1 <0>         0.0000
     31 H9          1.8486   -0.5547   -1.3970 H         1 <0>         0.0000
     32 H10         8.9472   -2.5264    4.7259 H         1 <0>         0.0000
     33 H11         4.9475   -0.7172   -0.1124 H         1 <0>         0.0000
     34 H12         4.5382   -2.4168   -0.0712 H         1 <0>         0.0000
     35 H13         3.9681   -1.4156   -1.4178 H         1 <0>         0.0000
@<TRIPOS>BOND
     1    1   17 1
     2    1   19 3
     3    2    5 ar
     4    2    4 ar
     5    2   23 1
     6    3    6 ar
     7    3    7 ar
     8    3   24 1
     9    4    8 ar
    10    4   25 1
    11    5    9 ar
    12    5   26 1
    13    6   10 ar
    14    6   27 1
    15    7   11 ar
    16    7   28 1
    17    8   12 ar
    18    8   29 1
    19    9   12 ar
    20    9   30 1
    21   10   13 ar
    22   10   31 1
    23   11   13 ar
    24   11   14 1
    25   12   16 1
    26   13   18 1
    27   14   20 1
    28   14   21 2
    29   15   17 1
    30   15   20 2
    31   15   22 1
    32   16   17 2
    33   16   32 1
    34   18   33 1
    35   18   34 1
    36   18   35 1
    37   21   22 1
