@<TRIPOS>MOLECULE
*****
   31    33     0     0     0
SMALL
NO_CHARGES

@<TRIPOS>ATOM
      1 C1         -2.3665    5.3216    0.5093 C.1       1 <0>         0.0000
      2 C2         -0.6957    3.8622   -0.6055 C.ar      1 <0>         0.0000
      3 C3         -1.7104   -2.5168    1.7586 C.ar      1 <0>         0.0000
      4 C4         -1.4936   -1.2224    1.2696 C.ar      1 <0>         0.0000
      5 C5         -0.1639    2.6026   -0.7750 C.ar      1 <0>         0.0000
      6 C6          0.3315   -2.0699   -0.1024 C.ar      1 <0>         0.0000
      7 C7         -2.2451    2.9042    0.9670 C.ar      1 <0>         0.0000
      8 C8         -1.7738    4.0389    0.2922 C.ar      1 <0>         0.0000
      9 C9         -0.9233   -3.5796    1.3233 C.ar      1 <0>         0.0000
     10 C10         0.0983   -3.3477    0.3897 C.ar      1 <0>         0.0000
     11 C11        -0.4687   -0.9934    0.3345 C.ar      1 <0>         0.0000
     12 C12        -0.7147    1.5146   -0.0414 C.ar      1 <0>         0.0000
     13 C13        -0.9580   -5.0416    1.7180 C.3       1 <0>         0.0000
     14 C14         0.8351   -4.6354    0.0829 C.3       1 <0>         0.0000
     15 C15        -0.1442   -5.7247    0.5895 C.3       1 <0>         0.0000
     16 N1         -2.8500    6.3687    0.6863 N.1       1 <0>         0.0000
     17 N2         -1.7403    1.6796    0.8129 N.ar      1 <0>         0.0000
     18 N3         -0.1690    0.2687   -0.2257 N.pl3     1 <0>         0.0000
     19 H1         -0.2958    4.7112   -1.1517 H         1 <0>         0.0000
     20 H2         -2.5089   -2.6789    2.4796 H         1 <0>         0.0000
     21 H3         -2.1070   -0.3966    1.5980 H         1 <0>         0.0000
     22 H4          0.6652    2.4403   -1.4591 H         1 <0>         0.0000
     23 H5          1.1247   -1.8969   -0.8298 H         1 <0>         0.0000
     24 H6         -3.0737    2.9970    1.6668 H         1 <0>         0.0000
     25 H7         -0.4697   -5.1831    2.6920 H         1 <0>         0.0000
     26 H8         -1.9736   -5.4400    1.8081 H         1 <0>         0.0000
     27 H9          1.0859   -4.7485   -0.9768 H         1 <0>         0.0000
     28 H10         1.7795   -4.6683    0.6431 H         1 <0>         0.0000
     29 H11         0.3661   -6.6331    0.9216 H         1 <0>         0.0000
     30 H12        -0.8226   -6.0035   -0.2241 H         1 <0>         0.0000
     31 H13         0.5973    0.2475   -0.8858 H         1 <0>         0.0000
@<TRIPOS>BOND
     1    1    8 1
     2    1   16 3
     3    2    5 ar
     4    2    8 ar
     5    2   19 1
     6    3    4 ar
     7    3    9 ar
     8    3   20 1
     9    4   11 ar
    10    4   21 1
    11    5   12 ar
    12    5   22 1
    13    6   10 ar
    14    6   11 ar
    15    6   23 1
    16    7    8 ar
    17    7   17 ar
    18    7   24 1
    19    9   10 ar
    20    9   13 1
    21   10   14 1
    22   11   18 1
    23   12   17 ar
    24   12   18 1
    25   13   15 1
    26   13   25 1
    27   13   26 1
    28   14   15 1
    29   14   27 1
    30   14   28 1
    31   15   29 1
    32   15   30 1
    33   18   31 1
