@<TRIPOS>MOLECULE
*****
   34    36     0     0     0
SMALL
NO_CHARGES

@<TRIPOS>ATOM
      1 C1         -0.0732   -2.9298  -12.9462 C.1       1 <0>         0.0000
      2 C2          2.9846    1.3574   -3.3326 C.ar      1 <0>         0.0000
      3 C3          3.0380    2.4511   -4.2138 C.ar      1 <0>         0.0000
      4 C4          2.4758    0.1255   -3.7454 C.ar      1 <0>         0.0000
      5 C5          2.5806    2.3305   -5.5296 C.ar      1 <0>         0.0000
      6 C6          0.1422   -3.1626  -10.4290 C.2       1 <0>         0.0000
      7 C7         -0.4781   -3.3511  -11.6558 C.2       1 <0>         0.0000
      8 C8         -0.6656   -3.8042   -9.4415 C.2       1 <0>         0.0000
      9 C9          2.0119   -0.0166   -5.0608 C.ar      1 <0>         0.0000
     10 C10         2.0723    1.0968   -5.9372 C.ar      1 <0>         0.0000
     11 C11        -1.7625   -4.3675  -10.1137 C.2       1 <0>         0.0000
     12 C12         1.1404   -0.9955   -6.8337 C.2       1 <0>         0.0000
     13 C13        -0.4201   -3.9425   -8.0038 C.2       1 <0>         0.0000
     14 C14        -2.9246   -5.1400   -9.5777 C.3       1 <0>         0.0000
     15 C15        -2.6042   -4.4554  -12.4786 C.3       1 <0>         0.0000
     16 N1          0.2439   -2.5883  -14.0171 N.1       1 <0>         0.0000
     17 N2          1.4817   -1.1827   -5.6015 N.2       1 <0>         0.0000
     18 N3          0.1727   -3.1310   -7.1934 N.2       1 <0>         0.0000
     19 N4         -1.6403   -4.0880  -11.4482 N.pl3     1 <0>         0.0000
     20 N5          0.6221   -1.9416   -7.6954 N.pl3     1 <0>         0.0000
     21 S1          1.4282    0.6369   -7.5098 S.3       1 <0>         0.0000
     22 H1          3.3457    1.4733   -2.3142 H         1 <0>         0.0000
     23 H2          3.4383    3.4019   -3.8728 H         1 <0>         0.0000
     24 H3          2.4306   -0.7259   -3.0728 H         1 <0>         0.0000
     25 H4          2.6224    3.1762   -6.2102 H         1 <0>         0.0000
     26 H5          1.1021   -2.6842  -10.2909 H         1 <0>         0.0000
     27 H6         -0.7765   -4.8499   -7.5200 H         1 <0>         0.0000
     28 H7         -3.8775   -4.6569   -9.8226 H         1 <0>         0.0000
     29 H8         -2.9566   -6.1582   -9.9830 H         1 <0>         0.0000
     30 H9         -2.8631   -5.2116   -8.4911 H         1 <0>         0.0000
     31 H10        -2.7919   -5.5316  -12.4540 H         1 <0>         0.0000
     32 H11        -3.5484   -3.9225  -12.3317 H         1 <0>         0.0000
     33 H12        -2.1999   -4.1919  -13.4557 H         1 <0>         0.0000
     34 H13         0.2258   -1.5985   -8.5690 H         1 <0>         0.0000
@<TRIPOS>BOND
     1    1    7 1
     2    1   16 3
     3    2    3 ar
     4    2    4 ar
     5    2   22 1
     6    3    5 ar
     7    3   23 1
     8    4    9 ar
     9    4   24 1
    10    5   10 ar
    11    5   25 1
    12    6    7 2
    13    6    8 1
    14    6   26 1
    15    7   19 1
    16    8   11 2
    17    8   13 1
    18    9   10 ar
    19    9   17 1
    20   10   21 1
    21   11   14 1
    22   11   19 1
    23   12   17 2
    24   12   20 1
    25   12   21 1
    26   13   18 2
    27   13   27 1
    28   14   28 1
    29   14   29 1
    30   14   30 1
    31   15   19 1
    32   15   31 1
    33   15   32 1
    34   15   33 1
    35   18   20 1
    36   20   34 1
