@<TRIPOS>MOLECULE
*****
   34    36     0     0     0
SMALL
NO_CHARGES

@<TRIPOS>ATOM
      1 C1          0.4408   -4.4494  -12.9474 C.1       1 <0>         0.0000
      2 C2          3.2869    1.9705   -9.1219 C.ar      1 <0>         0.0000
      3 C3          4.1288    0.9819   -9.6638 C.ar      1 <0>         0.0000
      4 C4          2.1117    1.6275   -8.4544 C.ar      1 <0>         0.0000
      5 C5          3.8079   -0.3726   -9.5437 C.ar      1 <0>         0.0000
      6 C6          0.1524   -4.7615  -10.4469 C.2       1 <0>         0.0000
      7 C7         -0.0536   -4.1260  -11.6605 C.2       1 <0>         0.0000
      8 C8         -0.5396   -4.0139   -9.4543 C.2       1 <0>         0.0000
      9 C9          1.7721    0.2720   -8.3233 C.ar      1 <0>         0.0000
     10 C10         2.6340   -0.7124   -8.8678 C.ar      1 <0>         0.0000
     11 C11        -1.1912   -2.9516  -10.1058 C.2       1 <0>         0.0000
     12 C12         0.6021   -1.5197   -7.7489 C.2       1 <0>         0.0000
     13 C13        -0.5049   -4.3493   -8.0317 C.2       1 <0>         0.0000
     14 C14        -2.1357   -1.9187   -9.5807 C.3       1 <0>         0.0000
     15 C15        -1.3745   -2.1253  -12.4707 C.3       1 <0>         0.0000
     16 N1          0.8417   -4.7046  -14.0145 N.1       1 <0>         0.0000
     17 N2          0.6297   -0.2173   -7.7068 N.2       1 <0>         0.0000
     18 N3         -0.4749   -3.6070   -6.9730 N.2       1 <0>         0.0000
     19 N4         -0.8767   -3.0234  -11.4350 N.pl3     1 <0>         0.0000
     20 N5         -0.4275   -2.2187   -7.1361 N.pl3     1 <0>         0.0000
     21 S1          1.9672   -2.3110   -8.5684 S.3       1 <0>         0.0000
     22 H1          3.5575    3.0178   -9.2261 H         1 <0>         0.0000
     23 H2          5.0394    1.2715  -10.1807 H         1 <0>         0.0000
     24 H3          1.4560    2.3843   -8.0337 H         1 <0>         0.0000
     25 H4          4.4578   -1.1356   -9.9628 H         1 <0>         0.0000
     26 H5          0.7715   -5.6351  -10.2911 H         1 <0>         0.0000
     27 H6         -0.4794   -5.4134   -7.7950 H         1 <0>         0.0000
     28 H7         -1.6264   -0.9701   -9.3754 H         1 <0>         0.0000
     29 H8         -2.9445   -1.7265  -10.2923 H         1 <0>         0.0000
     30 H9         -2.5777   -2.2592   -8.6451 H         1 <0>         0.0000
     31 H10        -2.4338   -2.3122  -12.6726 H         1 <0>         0.0000
     32 H11        -1.2430   -1.0870  -12.1593 H         1 <0>         0.0000
     33 H12        -0.8079   -2.2919  -13.3867 H         1 <0>         0.0000
     34 H13        -0.7216   -1.7530   -6.2839 H         1 <0>         0.0000
@<TRIPOS>BOND
     1    1    7 1
     2    1   16 3
     3    2    3 ar
     4    2    4 ar
     5    2   22 1
     6    3    5 ar
     7    3   23 1
     8    4    9 ar
     9    4   24 1
    10    5   10 ar
    11    5   25 1
    12    6    7 2
    13    6    8 1
    14    6   26 1
    15    7   19 1
    16    8   11 2
    17    8   13 1
    18    9   10 ar
    19    9   17 1
    20   10   21 1
    21   11   14 1
    22   11   19 1
    23   12   17 2
    24   12   20 1
    25   12   21 1
    26   13   18 2
    27   13   27 1
    28   14   28 1
    29   14   29 1
    30   14   30 1
    31   15   19 1
    32   15   31 1
    33   15   32 1
    34   15   33 1
    35   18   20 1
    36   20   34 1
