@<TRIPOS>MOLECULE
*****
   34    36     0     0     0
SMALL
NO_CHARGES

@<TRIPOS>ATOM
      1 C1         -2.6284   -3.8647  -12.8715 C.1       1 <0>         0.0000
      2 C2          2.6474    2.5125   -4.9827 C.ar      1 <0>         0.0000
      3 C3          2.5779    1.8176   -3.7625 C.ar      1 <0>         0.0000
      4 C4          2.1739    1.9400   -6.1637 C.ar      1 <0>         0.0000
      5 C5          2.0302    0.5326   -3.7033 C.ar      1 <0>         0.0000
      6 C6         -2.2228   -4.0391  -10.3718 C.2       1 <0>         0.0000
      7 C7         -1.8422   -3.8523  -11.6929 C.2       1 <0>         0.0000
      8 C8         -1.0550   -3.9006   -9.5718 C.2       1 <0>         0.0000
      9 C9          1.6226    0.6513   -6.1232 C.ar      1 <0>         0.0000
     10 C10         1.5576   -0.0382   -4.8862 C.ar      1 <0>         0.0000
     11 C11         0.0200   -3.6539  -10.4417 C.2       1 <0>         0.0000
     12 C12         0.6751   -1.2073   -6.8387 C.2       1 <0>         0.0000
     13 C13        -0.9955   -4.0462   -8.1102 C.2       1 <0>         0.0000
     14 C14         1.4830   -3.5360  -10.1499 C.3       1 <0>         0.0000
     15 C15         0.3310   -3.4419  -12.9266 C.3       1 <0>         0.0000
     16 N1         -3.2617   -3.8737  -13.8528 N.1       1 <0>         0.0000
     17 N2          1.1145   -0.0438   -7.2162 N.2       1 <0>         0.0000
     18 N3         -0.4342   -3.2512   -7.2607 N.2       1 <0>         0.0000
     19 N4         -0.4706   -3.6142  -11.7209 N.pl3     1 <0>         0.0000
     20 N5          0.1499   -2.1150   -7.7261 N.pl3     1 <0>         0.0000
     21 S1          0.8162   -1.6213   -5.1224 S.3       1 <0>         0.0000
     22 H1          3.0759    3.5109   -5.0056 H         1 <0>         0.0000
     23 H2          2.9522    2.2814   -2.8541 H         1 <0>         0.0000
     24 H3          2.2221    2.4701   -7.1104 H         1 <0>         0.0000
     25 H4          1.9757   -0.0026   -2.7593 H         1 <0>         0.0000
     26 H5         -3.2317   -4.2257  -10.0285 H         1 <0>         0.0000
     27 H6         -1.4916   -4.9026   -7.6579 H         1 <0>         0.0000
     28 H7          2.0713   -4.1866  -10.8056 H         1 <0>         0.0000
     29 H8          1.8521   -2.5114  -10.2806 H         1 <0>         0.0000
     30 H9          1.6810   -3.8274   -9.1179 H         1 <0>         0.0000
     31 H10         1.0114   -2.5962  -12.8060 H         1 <0>         0.0000
     32 H11         0.9126   -4.3445  -13.1395 H         1 <0>         0.0000
     33 H12        -0.3305   -3.2432  -13.7697 H         1 <0>         0.0000
     34 H13        -0.0560   -1.7665   -8.6620 H         1 <0>         0.0000
@<TRIPOS>BOND
     1    1    7 1
     2    1   16 3
     3    2    3 ar
     4    2    4 ar
     5    2   22 1
     6    3    5 ar
     7    3   23 1
     8    4    9 ar
     9    4   24 1
    10    5   10 ar
    11    5   25 1
    12    6    7 2
    13    6    8 1
    14    6   26 1
    15    7   19 1
    16    8   11 2
    17    8   13 1
    18    9   10 ar
    19    9   17 1
    20   10   21 1
    21   11   14 1
    22   11   19 1
    23   12   17 2
    24   12   20 1
    25   12   21 1
    26   13   18 2
    27   13   27 1
    28   14   28 1
    29   14   29 1
    30   14   30 1
    31   15   19 1
    32   15   31 1
    33   15   32 1
    34   15   33 1
    35   18   20 1
    36   20   34 1
