@<TRIPOS>MOLECULE
*****
   32    34     0     0     0
SMALL
NO_CHARGES

@<TRIPOS>ATOM
      1 C1          5.0915  -10.4109   -1.0020 C.1       1 <0>         0.0000
      2 C2          1.6123   -1.1000   -1.1383 C.ar      1 <0>         0.0000
      3 C3          1.0279   -0.5425    0.0067 C.ar      1 <0>         0.0000
      4 C4          5.7593   -8.0708   -0.6230 C.ar      1 <0>         0.0000
      5 C5          3.4142   -8.6104   -1.0047 C.ar      1 <0>         0.0000
      6 C6          5.4250   -6.7247   -0.5052 C.ar      1 <0>         0.0000
      7 C7          3.0885   -7.2637   -0.8619 C.ar      1 <0>         0.0000
      8 C8          2.1770   -2.3715   -1.0862 C.ar      1 <0>         0.0000
      9 C9          1.0164   -1.2625    1.1978 C.ar      1 <0>         0.0000
     10 C10         4.7522   -9.0205   -0.8730 C.ar      1 <0>         0.0000
     11 C11         4.0882   -6.3144   -0.6026 C.ar      1 <0>         0.0000
     12 C12         2.1793   -3.1071    0.1104 C.ar      1 <0>         0.0000
     13 C13         1.5917   -2.5365    1.2570 C.ar      1 <0>         0.0000
     14 C14         3.7915   -4.8394   -0.5542 C.2       1 <0>         0.0000
     15 C15         2.1719   -5.2173    1.3134 C.3       1 <0>         0.0000
     16 C16         2.2989   -4.3711    2.5732 C.3       1 <0>         0.0000
     17 N1          5.3647  -11.5393   -1.1030 N.1       1 <0>         0.0000
     18 N2          2.6788   -4.4450    0.1736 N.am      1 <0>         0.0000
     19 O1          4.4992   -4.0611   -1.1878 O.2       1 <0>         0.0000
     20 O2          1.5149   -3.1841    2.4687 O.3       1 <0>         0.0000
     21 H1          1.6275   -0.5465   -2.0726 H         1 <0>         0.0000
     22 H2          0.5847    0.4487   -0.0284 H         1 <0>         0.0000
     23 H3          6.7918   -8.3937   -0.5335 H         1 <0>         0.0000
     24 H4          2.6443   -9.3454   -1.2183 H         1 <0>         0.0000
     25 H5          6.1958   -5.9769   -0.3464 H         1 <0>         0.0000
     26 H6          2.0553   -6.9463   -0.9708 H         1 <0>         0.0000
     27 H7          2.6322   -2.7995   -1.9699 H         1 <0>         0.0000
     28 H8          0.5719   -0.8603    2.1034 H         1 <0>         0.0000
     29 H9          2.7496   -6.1316    1.4333 H         1 <0>         0.0000
     30 H10         1.1216   -5.4847    1.1497 H         1 <0>         0.0000
     31 H11         1.9200   -4.9088    3.4453 H         1 <0>         0.0000
     32 H12         3.3511   -4.1068    2.7418 H         1 <0>         0.0000
@<TRIPOS>BOND
     1    1   10 1
     2    1   17 3
     3    2    3 ar
     4    2    8 ar
     5    2   21 1
     6    3    9 ar
     7    3   22 1
     8    4    6 ar
     9    4   10 ar
    10    4   23 1
    11    5    7 ar
    12    5   10 ar
    13    5   24 1
    14    6   11 ar
    15    6   25 1
    16    7   11 ar
    17    7   26 1
    18    8   12 ar
    19    8   27 1
    20    9   13 ar
    21    9   28 1
    22   11   14 1
    23   12   13 ar
    24   12   18 1
    25   13   20 1
    26   14   18 am
    27   14   19 2
    28   15   16 1
    29   15   18 1
    30   15   29 1
    31   15   30 1
    32   16   20 1
    33   16   31 1
    34   16   32 1
