@<TRIPOS>MOLECULE
*****
   34    36     0     0     0
SMALL
NO_CHARGES

@<TRIPOS>ATOM
      1 C1          1.2241   -4.4279  -12.7707 C.1       1 <0>         0.0000
      2 C2          3.9719   -0.4103   -9.9722 C.ar      1 <0>         0.0000
      3 C3          3.6597    0.8426   -9.4171 C.ar      1 <0>         0.0000
      4 C4          3.2482   -1.5510   -9.6220 C.ar      1 <0>         0.0000
      5 C5          2.6101    0.9796   -8.5027 C.ar      1 <0>         0.0000
      6 C6          0.4959   -5.0075  -10.4109 C.2       1 <0>         0.0000
      7 C7          0.5035   -4.2424  -11.5667 C.2       1 <0>         0.0000
      8 C8         -0.3551   -4.3563   -9.4779 C.2       1 <0>         0.0000
      9 C9          2.1958   -1.4338   -8.7042 C.ar      1 <0>         0.0000
     10 C10         1.8832   -0.1616   -8.1611 C.ar      1 <0>         0.0000
     11 C11        -0.8855   -3.2244  -10.1137 C.2       1 <0>         0.0000
     12 C12         0.4853   -2.0654   -7.4507 C.2       1 <0>         0.0000
     13 C13        -0.5380   -4.8212   -8.1056 C.2       1 <0>         0.0000
     14 C14        -1.8912   -2.2264   -9.6417 C.3       1 <0>         0.0000
     15 C15        -0.6609   -2.1386  -12.3644 C.3       1 <0>         0.0000
     16 N1          1.8168   -4.5663  -13.7682 N.1       1 <0>         0.0000
     17 N2          1.3969   -2.4832   -8.2672 N.2       1 <0>         0.0000
     18 N3         -0.6396   -4.2088   -6.9717 N.2       1 <0>         0.0000
     19 N4         -0.3506   -3.1574  -11.3707 N.pl3     1 <0>         0.0000
     20 N5         -0.5361   -2.8174   -6.8994 N.pl3     1 <0>         0.0000
     21 S1          0.4964   -0.3062   -7.0839 S.3       1 <0>         0.0000
     22 H1          4.7884   -0.4920  -10.6843 H         1 <0>         0.0000
     23 H2          4.2366    1.7183   -9.7014 H         1 <0>         0.0000
     24 H3          3.4785   -2.5246  -10.0443 H         1 <0>         0.0000
     25 H4          2.3687    1.9502   -8.0788 H         1 <0>         0.0000
     26 H5          1.0866   -5.8979  -10.2416 H         1 <0>         0.0000
     27 H6         -0.5887   -5.9039   -7.9823 H         1 <0>         0.0000
     28 H7         -1.4297   -1.2527   -9.4375 H         1 <0>         0.0000
     29 H8         -2.6788   -2.0723  -10.3873 H         1 <0>         0.0000
     30 H9         -2.3568   -2.5715   -8.7196 H         1 <0>         0.0000
     31 H10        -1.6883   -2.2462  -12.7264 H         1 <0>         0.0000
     32 H11        -0.5327   -1.1430  -11.9331 H         1 <0>         0.0000
     33 H12         0.0211   -2.2451  -13.2079 H         1 <0>         0.0000
     34 H13        -0.8131   -2.5134   -5.9730 H         1 <0>         0.0000
@<TRIPOS>BOND
     1    1    7 1
     2    1   16 3
     3    2    3 ar
     4    2    4 ar
     5    2   22 1
     6    3    5 ar
     7    3   23 1
     8    4    9 ar
     9    4   24 1
    10    5   10 ar
    11    5   25 1
    12    6    7 2
    13    6    8 1
    14    6   26 1
    15    7   19 1
    16    8   11 2
    17    8   13 1
    18    9   10 ar
    19    9   17 1
    20   10   21 1
    21   11   14 1
    22   11   19 1
    23   12   17 2
    24   12   20 1
    25   12   21 1
    26   13   18 2
    27   13   27 1
    28   14   28 1
    29   14   29 1
    30   14   30 1
    31   15   19 1
    32   15   31 1
    33   15   32 1
    34   15   33 1
    35   18   20 1
    36   20   34 1
