@<TRIPOS>MOLECULE
*****
   31    33     0     0     0
SMALL
NO_CHARGES

@<TRIPOS>ATOM
      1 C1          9.2760    3.9390   -1.0992 C.ar      1 <0>         0.0000
      2 C2          8.6014    5.1518   -0.8171 C.ar      1 <0>         0.0000
      3 C3          8.7131    2.7298   -0.7380 C.ar      1 <0>         0.0000
      4 C4          8.7665   -3.2203   -1.5719 C.ar      1 <0>         0.0000
      5 C5          7.3798    5.1402   -0.1745 C.ar      1 <0>         0.0000
      6 C6         10.0006   -3.4571   -2.1696 C.ar      1 <0>         0.0000
      7 C7          9.7597   -1.5005   -0.1981 C.ar      1 <0>         0.0000
      8 C8          5.0807    2.7657    1.1967 C.ar      1 <0>         0.0000
      9 C9          7.4547    2.6908   -0.0832 C.ar      1 <0>         0.0000
     10 C10         8.6208   -2.2247   -0.5900 C.ar      1 <0>         0.0000
     11 C11         6.7811    3.9125    0.2100 C.ar      1 <0>         0.0000
     12 C12        11.1254   -2.7143   -1.7927 C.ar      1 <0>         0.0000
     13 C13        11.0005   -1.7379   -0.7932 C.ar      1 <0>         0.0000
     14 C14         6.7662    1.4959    0.3387 C.ar      1 <0>         0.0000
     15 C15         7.2897   -2.0035    0.0202 C.2       1 <0>         0.0000
     16 N1          5.5739    3.9386    0.8590 N.ar      1 <0>         0.0000
     17 N2          5.6097    1.5360    0.9733 N.ar      1 <0>         0.0000
     18 N3          6.7150   -0.8951    0.3443 N.2       1 <0>         0.0000
     19 N4          7.3615    0.2721    0.0902 N.pl3     1 <0>         0.0000
     20 Cl1        12.6502   -3.0316   -2.5726 Cl        1 <0>         0.0000
     21 Cl2        12.3734   -0.8019   -0.2595 Cl        1 <0>         0.0000
     22 H1         10.2406    3.9600   -1.5984 H         1 <0>         0.0000
     23 H2          9.0541    6.0964   -1.1070 H         1 <0>         0.0000
     24 H3          9.2640    1.8191   -0.9598 H         1 <0>         0.0000
     25 H4          7.9033   -3.8055   -1.8774 H         1 <0>         0.0000
     26 H5          6.8462    6.0568    0.0578 H         1 <0>         0.0000
     27 H6         10.1056   -4.2187   -2.9359 H         1 <0>         0.0000
     28 H7          9.7041   -0.7777    0.6095 H         1 <0>         0.0000
     29 H8          4.1257    2.7662    1.7203 H         1 <0>         0.0000
     30 H9          6.6803   -2.8876    0.2016 H         1 <0>         0.0000
     31 H10         8.1654    0.2621   -0.5296 H         1 <0>         0.0000
@<TRIPOS>BOND
     1    1    2 ar
     2    1    3 ar
     3    1   22 1
     4    2    5 ar
     5    2   23 1
     6    3    9 ar
     7    3   24 1
     8    4    6 ar
     9    4   10 ar
    10    4   25 1
    11    5   11 ar
    12    5   26 1
    13    6   12 ar
    14    6   27 1
    15    7   10 ar
    16    7   13 ar
    17    7   28 1
    18    8   16 ar
    19    8   17 ar
    20    8   29 1
    21    9   11 ar
    22    9   14 ar
    23   10   15 1
    24   11   16 ar
    25   12   13 ar
    26   12   20 1
    27   13   21 1
    28   14   17 ar
    29   14   19 1
    30   15   18 2
    31   15   30 1
    32   18   19 1
    33   19   31 1
