@<TRIPOS>MOLECULE
*****
   31    33     0     0     0
SMALL
NO_CHARGES

@<TRIPOS>ATOM
      1 C1          1.7288    5.2109    1.8836 C.1       1 <0>         0.0000
      2 C2          1.6941    3.6488   -0.0459 C.ar      1 <0>         0.0000
      3 C3         -0.2806   -2.4804    2.3716 C.ar      1 <0>         0.0000
      4 C4          0.1231   -1.2378    1.8671 C.ar      1 <0>         0.0000
      5 C5          1.4650    2.3768   -0.5232 C.ar      1 <0>         0.0000
      6 C6          0.2975   -2.2209   -0.3544 C.ar      1 <0>         0.0000
      7 C7          1.0926    2.8451    2.1413 C.ar      1 <0>         0.0000
      8 C8          1.5067    3.9113    1.3308 C.ar      1 <0>         0.0000
      9 C9         -0.4006   -3.5821    1.5287 C.ar      1 <0>         0.0000
     10 C10        -0.1093   -3.4441    0.1630 C.ar      1 <0>         0.0000
     11 C11         0.4146   -1.1030    0.4981 C.ar      1 <0>         0.0000
     12 C12         1.0463    1.3627    0.3832 C.ar      1 <0>         0.0000
     13 C13        -0.7964   -5.0098    1.8440 C.3       1 <0>         0.0000
     14 C14        -0.2836   -4.7692   -0.5503 C.3       1 <0>         0.0000
     15 C15        -1.1373   -5.5914    0.4484 C.3       1 <0>         0.0000
     16 N1          1.9101    6.2718    2.3342 N.1       1 <0>         0.0000
     17 N2          0.8672    1.6096    1.6932 N.ar      1 <0>         0.0000
     18 N3          0.8240    0.1028   -0.1142 N.pl3     1 <0>         0.0000
     19 H1          2.0144    4.4425   -0.7140 H         1 <0>         0.0000
     20 H2         -0.5054   -2.5685    3.4324 H         1 <0>         0.0000
     21 H3          0.2094   -0.3786    2.5154 H         1 <0>         0.0000
     22 H4          1.6020    2.1491   -1.5772 H         1 <0>         0.0000
     23 H5          0.5193   -2.1195   -1.4168 H         1 <0>         0.0000
     24 H6          0.9369    3.0050    3.2066 H         1 <0>         0.0000
     25 H7          0.0492   -5.5471    2.2949 H         1 <0>         0.0000
     26 H8         -1.6322   -5.0802    2.5475 H         1 <0>         0.0000
     27 H9         -0.7549   -4.6724   -1.5337 H         1 <0>         0.0000
     28 H10         0.6960   -5.2410   -0.7073 H         1 <0>         0.0000
     29 H11        -0.9538   -6.6672    0.3783 H         1 <0>         0.0000
     30 H12        -2.1987   -5.4213    0.2378 H         1 <0>         0.0000
     31 H13         0.9866    0.0176   -1.1090 H         1 <0>         0.0000
@<TRIPOS>BOND
     1    1    8 1
     2    1   16 3
     3    2    5 ar
     4    2    8 ar
     5    2   19 1
     6    3    4 ar
     7    3    9 ar
     8    3   20 1
     9    4   11 ar
    10    4   21 1
    11    5   12 ar
    12    5   22 1
    13    6   10 ar
    14    6   11 ar
    15    6   23 1
    16    7    8 ar
    17    7   17 ar
    18    7   24 1
    19    9   10 ar
    20    9   13 1
    21   10   14 1
    22   11   18 1
    23   12   17 ar
    24   12   18 1
    25   13   15 1
    26   13   25 1
    27   13   26 1
    28   14   15 1
    29   14   27 1
    30   14   28 1
    31   15   29 1
    32   15   30 1
    33   18   31 1
