@<TRIPOS>MOLECULE
*****
   27    28     0     0     0
SMALL
NO_CHARGES

@<TRIPOS>ATOM
      1 C1         -0.4056    2.3560   -2.3038 C.1       1 <0>         0.0000
      2 C2          3.1016    0.2176    1.6324 C.ar      1 <0>         0.0000
      3 C3          1.7060    0.1811    1.6091 C.ar      1 <0>         0.0000
      4 C4          3.8476   -0.9625    1.6787 C.ar      1 <0>         0.0000
      5 C5          1.7794   -2.2418    1.7083 C.ar      1 <0>         0.0000
      6 C6         -1.6453    1.9949   -1.7216 C.2       1 <0>         0.0000
      7 C7          1.0292   -1.0539    1.6337 C.ar      1 <0>         0.0000
      8 C8          3.1708   -2.1846    1.7215 C.ar      1 <0>         0.0000
      9 C9         -1.8166    1.1577   -0.6390 C.2       1 <0>         0.0000
     10 C10        -3.7505    1.8763   -1.3387 C.2       1 <0>         0.0000
     11 C11        -0.4445   -1.1715    1.6285 C.2       1 <0>         0.0000
     12 C12        -5.2332    1.9572   -1.2998 C.3       1 <0>         0.0000
     13 N1          0.6562    2.6064   -2.7217 N.1       1 <0>         0.0000
     14 N2         -2.9093    2.4375   -2.1411 N.2       1 <0>         0.0000
     15 N3         -1.3273   -0.4797    0.9906 N.2       1 <0>         0.0000
     16 N4         -0.9081    0.5261    0.1653 N.pl3     1 <0>         0.0000
     17 O1         -3.1386    1.0674   -0.3757 O.3       1 <0>         0.0000
     18 Cl1         4.0904   -3.6756    1.7995 Cl        1 <0>         0.0000
     19 H1          3.6160    1.1743    1.6183 H         1 <0>         0.0000
     20 H2          1.1493    1.1127    1.6228 H         1 <0>         0.0000
     21 H3          4.9324   -0.9381    1.6910 H         1 <0>         0.0000
     22 H4          1.2764   -3.2037    1.7456 H         1 <0>         0.0000
     23 H5         -0.8746   -1.9768    2.2218 H         1 <0>         0.0000
     24 H6         -5.6819    0.9699   -1.4504 H         1 <0>         0.0000
     25 H7         -5.5790    2.3395   -0.3341 H         1 <0>         0.0000
     26 H8         -5.5670    2.6274   -2.0925 H         1 <0>         0.0000
     27 H9          0.0578    0.5524   -0.1631 H         1 <0>         0.0000
@<TRIPOS>BOND
     1    1    6 1
     2    1   13 3
     3    2    3 ar
     4    2    4 ar
     5    2   19 1
     6    3    7 ar
     7    3   20 1
     8    4    8 ar
     9    4   21 1
    10    5    7 ar
    11    5    8 ar
    12    5   22 1
    13    6    9 2
    14    6   14 1
    15    7   11 1
    16    8   18 1
    17    9   16 1
    18    9   17 1
    19   10   12 1
    20   10   14 2
    21   10   17 1
    22   11   15 2
    23   11   23 1
    24   12   24 1
    25   12   25 1
    26   12   26 1
    27   15   16 1
    28   16   27 1
