@<TRIPOS>MOLECULE
*****
   31    34     0     0     0
SMALL
NO_CHARGES

@<TRIPOS>ATOM
      1 C1          0.9738    4.5006    1.5906 C.ar      1 <0>         0.0000
      2 C2          1.0654    5.8344    1.9362 C.ar      1 <0>         0.0000
      3 C3          1.0855   -3.1209   -0.0459 C.2       1 <0>         0.0000
      4 C4          2.1114   -2.5049    0.6208 C.2       1 <0>         0.0000
      5 C5          1.8825   -1.1041    0.8246 C.2       1 <0>         0.0000
      6 C6         -0.2000    4.0919    0.9326 C.ar      1 <0>         0.0000
      7 C7          0.6758   -0.6805    0.2941 C.2       1 <0>         0.0000
      8 C8         -0.0116    6.6777    1.6075 C.ar      1 <0>         0.0000
      9 C9         -0.3575    2.6785    0.5384 C.2       1 <0>         0.0000
     10 C10         0.1231    0.6453    0.3180 C.2       1 <0>         0.0000
     11 C11         4.3001   -2.2043    1.3522 C.3       1 <0>         0.0000
     12 C12         3.7796   -1.0412    2.1805 C.3       1 <0>         0.0000
     13 C13        -0.0037    8.1444    1.9477 C.3       1 <0>         0.0000
     14 N1         -1.2008    4.9327    0.6392 N.ar      1 <0>         0.0000
     15 N2         -1.1048    6.2173    0.9752 N.ar      1 <0>         0.0000
     16 N3          0.6284    1.7502    0.8104 N.2       1 <0>         0.0000
     17 N4         -1.4148    2.2002   -0.0842 N.2       1 <0>         0.0000
     18 O1         -1.0997    0.8345   -0.2361 O.3       1 <0>         0.0000
     19 O2          3.2425   -3.1367    1.0658 O.3       1 <0>         0.0000
     20 O3          2.7732   -0.3009    1.4604 O.3       1 <0>         0.0000
     21 S1         -0.1849   -2.0158   -0.4458 S.3       1 <0>         0.0000
     22 H1          1.7551    3.7789    1.8038 H         1 <0>         0.0000
     23 H2          1.9399    6.2301    2.4468 H         1 <0>         0.0000
     24 H3          1.0198   -4.1644   -0.3234 H         1 <0>         0.0000
     25 H4          4.7321   -1.8411    0.4113 H         1 <0>         0.0000
     26 H5          5.0567   -2.7640    1.9053 H         1 <0>         0.0000
     27 H6          3.3511   -1.4038    3.1223 H         1 <0>         0.0000
     28 H7          4.5767   -0.3272    2.3959 H         1 <0>         0.0000
     29 H8          0.8693    8.6435    1.5132 H         1 <0>         0.0000
     30 H9         -0.9097    8.6164    1.5647 H         1 <0>         0.0000
     31 H10         0.0397    8.2928    3.0326 H         1 <0>         0.0000
@<TRIPOS>BOND
     1    1    2 ar
     2    1    6 ar
     3    1   22 1
     4    2    8 ar
     5    2   23 1
     6    3    4 2
     7    3   21 1
     8    3   24 1
     9    4    5 1
    10    4   19 1
    11    5    7 2
    12    5   20 1
    13    6    9 1
    14    6   14 ar
    15    7   10 1
    16    7   21 1
    17    8   13 1
    18    8   15 ar
    19    9   16 1
    20    9   17 2
    21   10   16 2
    22   10   18 1
    23   11   12 1
    24   11   19 1
    25   11   25 1
    26   11   26 1
    27   12   20 1
    28   12   27 1
    29   12   28 1
    30   13   29 1
    31   13   30 1
    32   13   31 1
    33   14   15 ar
    34   17   18 1
