@<TRIPOS>MOLECULE
*****
   31    33     0     0     0
SMALL
NO_CHARGES

@<TRIPOS>ATOM
      1 C1          4.7186    2.9768   -1.5604 C.1       1 <0>         0.0000
      2 C2          3.6776    0.9597   -0.5605 C.ar      1 <0>         0.0000
      3 C3         -1.3550   -2.3892    2.0890 C.ar      1 <0>         0.0000
      4 C4         -1.0312   -1.1031    1.6434 C.ar      1 <0>         0.0000
      5 C5          2.5380    0.2973   -0.1438 C.ar      1 <0>         0.0000
      6 C6          0.3888   -2.0416   -0.0942 C.ar      1 <0>         0.0000
      7 C7          2.2859    2.8211   -1.1857 C.ar      1 <0>         0.0000
      8 C8          3.5703    2.2542   -1.1096 C.ar      1 <0>         0.0000
      9 C9         -0.7922   -3.4971    1.4572 C.ar      1 <0>         0.0000
     10 C10         0.0773   -3.3165    0.3705 C.ar      1 <0>         0.0000
     11 C11        -0.1616   -0.9227    0.5559 C.ar      1 <0>         0.0000
     12 C12         1.2881    0.9492   -0.2867 C.ar      1 <0>         0.0000
     13 C13        -0.9598   -4.9714    1.7614 C.3       1 <0>         0.0000
     14 C14         0.5578   -4.6565   -0.1482 C.3       1 <0>         0.0000
     15 C15        -0.4602   -5.6527    0.4620 C.3       1 <0>         0.0000
     16 N1          5.6550    3.5678   -1.9284 N.1       1 <0>         0.0000
     17 N2          1.1797    2.1979   -0.7916 N.ar      1 <0>         0.0000
     18 N3          0.0948    0.3935    0.1022 N.pl3     1 <0>         0.0000
     19 H1          4.6528    0.4926   -0.4579 H         1 <0>         0.0000
     20 H2         -2.0364   -2.5125    2.9276 H         1 <0>         0.0000
     21 H3         -1.4487   -0.2299    2.1388 H         1 <0>         0.0000
     22 H4          2.6019   -0.6860    0.3057 H         1 <0>         0.0000
     23 H5          1.0195   -1.9067   -0.9684 H         1 <0>         0.0000
     24 H6          2.1596    3.8255   -1.5855 H         1 <0>         0.0000
     25 H7         -0.3312   -5.2535    2.6171 H         1 <0>         0.0000
     26 H8         -1.9888   -5.2444    2.0156 H         1 <0>         0.0000
     27 H9          0.6002   -4.7050   -1.2407 H         1 <0>         0.0000
     28 H10         1.5721   -4.8575    0.2226 H         1 <0>         0.0000
     29 H11        -0.0322   -6.6434    0.6379 H         1 <0>         0.0000
     30 H12        -1.3027   -5.7726   -0.2275 H         1 <0>         0.0000
     31 H13        -0.6785    1.0486    0.0819 H         1 <0>         0.0000
@<TRIPOS>BOND
     1    1    8 1
     2    1   16 3
     3    2    5 ar
     4    2    8 ar
     5    2   19 1
     6    3    4 ar
     7    3    9 ar
     8    3   20 1
     9    4   11 ar
    10    4   21 1
    11    5   12 ar
    12    5   22 1
    13    6   10 ar
    14    6   11 ar
    15    6   23 1
    16    7    8 ar
    17    7   17 ar
    18    7   24 1
    19    9   10 ar
    20    9   13 1
    21   10   14 1
    22   11   18 1
    23   12   17 ar
    24   12   18 1
    25   13   15 1
    26   13   25 1
    27   13   26 1
    28   14   15 1
    29   14   27 1
    30   14   28 1
    31   15   29 1
    32   15   30 1
    33   18   31 1
