@<TRIPOS>MOLECULE
*****
   31    33     0     0     0
SMALL
NO_CHARGES

@<TRIPOS>ATOM
      1 C1         -6.2090    5.6107    4.4265 C.1       1 <0>         0.0000
      2 C2         -2.3535   -0.9640    0.5099 C.ar      1 <0>         0.0000
      3 C3         -1.9341    0.0864   -0.3013 C.ar      1 <0>         0.0000
      4 C4         -2.7419    1.7499    1.3152 C.ar      1 <0>         0.0000
      5 C5         -3.9613   -0.7045    3.7485 C.2       1 <0>         0.0000
      6 C6         -6.3698    5.2703    3.0579 C.2       1 <0>         0.0000
      7 C7         -3.2043    0.6971    2.1318 C.ar      1 <0>         0.0000
      8 C8         -3.8518    0.6394    3.4308 C.2       1 <0>         0.0000
      9 C9         -2.9796   -0.6463    1.7195 C.ar      1 <0>         0.0000
     10 C10        -2.1287    1.4195    0.1143 C.ar      1 <0>         0.0000
     11 C11        -5.9328    4.1558    2.3770 C.2       1 <0>         0.0000
     12 C12        -7.0044    5.4847    1.0105 C.2       1 <0>         0.0000
     13 C13        -4.2943    1.7253    4.3095 C.2       1 <0>         0.0000
     14 C14        -7.5535    5.8765   -0.3134 C.3       1 <0>         0.0000
     15 N1         -6.0942    5.9206    5.5453 N.1       1 <0>         0.0000
     16 N2         -7.0513    6.0970    2.1431 N.2       1 <0>         0.0000
     17 N3         -4.8854    2.8281    3.9939 N.2       1 <0>         0.0000
     18 N4         -3.4534   -1.4722    2.7265 N.pl3     1 <0>         0.0000
     19 N5         -5.1943    3.0462    2.6806 N.pl3     1 <0>         0.0000
     20 O1         -6.3222    4.2666    1.0779 O.3       1 <0>         0.0000
     21 Br1        -1.5115    2.8302   -1.0323 Br        1 <0>         0.0000
     22 H1         -2.1893   -1.9944    0.2061 H         1 <0>         0.0000
     23 H2         -1.4474   -0.1170   -1.2490 H         1 <0>         0.0000
     24 H3         -2.8504    2.7853    1.6162 H         1 <0>         0.0000
     25 H4         -4.3829   -1.1639    4.6331 H         1 <0>         0.0000
     26 H5         -4.1366    1.6091    5.3800 H         1 <0>         0.0000
     27 H6         -6.7567    5.9576   -1.0599 H         1 <0>         0.0000
     28 H7         -8.2778    5.1382   -0.6732 H         1 <0>         0.0000
     29 H8         -8.0486    6.8427   -0.2120 H         1 <0>         0.0000
     30 H9         -3.4305   -2.4824    2.7145 H         1 <0>         0.0000
     31 H10        -5.2029    2.2798    2.0086 H         1 <0>         0.0000
@<TRIPOS>BOND
     1    1    6 1
     2    1   15 3
     3    2    3 ar
     4    2    9 ar
     5    2   22 1
     6    3   10 ar
     7    3   23 1
     8    4    7 ar
     9    4   10 ar
    10    4   24 1
    11    5    8 2
    12    5   18 1
    13    5   25 1
    14    6   11 2
    15    6   16 1
    16    7    8 1
    17    7    9 ar
    18    8   13 1
    19    9   18 1
    20   10   21 1
    21   11   19 1
    22   11   20 1
    23   12   14 1
    24   12   16 2
    25   12   20 1
    26   13   17 2
    27   13   26 1
    28   14   27 1
    29   14   28 1
    30   14   29 1
    31   17   19 1
    32   18   30 1
    33   19   31 1
