@<TRIPOS>MOLECULE
*****
   27    28     0     0     0
SMALL
NO_CHARGES

@<TRIPOS>ATOM
      1 C1          1.2965    3.8204   -1.0969 C.1       1 <0>         0.0000
      2 C2          3.0468   -1.3511    0.4887 C.ar      1 <0>         0.0000
      3 C3          2.3709   -0.3982    1.2535 C.ar      1 <0>         0.0000
      4 C4          2.5060   -2.6237    0.2902 C.ar      1 <0>         0.0000
      5 C5          0.5969   -2.0015    1.6623 C.ar      1 <0>         0.0000
      6 C6          0.7130    4.2463    0.1214 C.2       1 <0>         0.0000
      7 C7          1.1287   -0.7111    1.8390 C.ar      1 <0>         0.0000
      8 C8          1.2820   -2.9350    0.8885 C.ar      1 <0>         0.0000
      9 C9          0.4831    3.4553    1.2276 C.2       1 <0>         0.0000
     10 C10        -0.1735    5.4950    1.6206 C.2       1 <0>         0.0000
     11 C11         0.3637    0.2391    2.6743 C.2       1 <0>         0.0000
     12 C12        -0.7745    6.5601    2.4636 C.3       1 <0>         0.0000
     13 N1          1.7876    3.3898   -2.0655 N.1       1 <0>         0.0000
     14 N2          0.2797    5.5489    0.4131 N.2       1 <0>         0.0000
     15 N3          0.1980    1.5115    2.5382 N.2       1 <0>         0.0000
     16 N4          0.7806    2.1435    1.4756 N.pl3     1 <0>         0.0000
     17 O1         -0.0752    4.2214    2.1902 O.3       1 <0>         0.0000
     18 Cl1         0.5970   -4.5339    0.6663 Cl        1 <0>         0.0000
     19 H1          4.0067   -1.1036    0.0447 H         1 <0>         0.0000
     20 H2          2.8353    0.5662    1.4332 H         1 <0>         0.0000
     21 H3          3.0255   -3.3648   -0.3086 H         1 <0>         0.0000
     22 H4         -0.3514   -2.2685    2.1197 H         1 <0>         0.0000
     23 H5         -0.1768   -0.1777    3.5225 H         1 <0>         0.0000
     24 H6         -1.8000    6.3016    2.7466 H         1 <0>         0.0000
     25 H7         -0.1982    6.7030    3.3833 H         1 <0>         0.0000
     26 H8         -0.7827    7.4912    1.8961 H         1 <0>         0.0000
     27 H9          1.0951    1.6064    0.6669 H         1 <0>         0.0000
@<TRIPOS>BOND
     1    1    6 1
     2    1   13 3
     3    2    3 ar
     4    2    4 ar
     5    2   19 1
     6    3    7 ar
     7    3   20 1
     8    4    8 ar
     9    4   21 1
    10    5    7 ar
    11    5    8 ar
    12    5   22 1
    13    6    9 2
    14    6   14 1
    15    7   11 1
    16    8   18 1
    17    9   16 1
    18    9   17 1
    19   10   12 1
    20   10   14 2
    21   10   17 1
    22   11   15 2
    23   11   23 1
    24   12   24 1
    25   12   25 1
    26   12   26 1
    27   15   16 1
    28   16   27 1
