@<TRIPOS>MOLECULE
*****
   23    24     0     0     0
SMALL
NO_CHARGES

@<TRIPOS>ATOM
      1 C1         -3.6060    1.0903    3.7013 C.2       1 <0>         0.0000
      2 C2         -2.8267    2.2994    3.6774 C.2       1 <0>         0.0000
      3 C3         -4.3459    0.9740    4.8403 C.2       1 <0>         0.0000
      4 C4         -3.0141    3.0595    4.8094 C.2       1 <0>         0.0000
      5 C5         -1.9443    2.7045    2.5542 C.2       1 <0>         0.0000
      6 C6          0.4950    0.8144    0.4598 C.3       1 <0>         0.0000
      7 C7         -0.3515    2.0511    0.7898 C.3       1 <0>         0.0000
      8 C8          0.9208    0.2209    1.7992 C.3       1 <0>         0.0000
      9 N1         -1.1953    1.6890    1.9451 N.am      1 <0>         0.0000
     10 O1         -1.8847    3.8461    2.1182 O.2       1 <0>         0.0000
     11 O2         -0.3642    0.5757    4.1849 O.2       1 <0>         0.0000
     12 O3         -1.4455   -0.8763    2.4068 O.2       1 <0>         0.0000
     13 S1         -4.1162    2.3179    5.9325 S.3       1 <0>         0.0000
     14 S2         -0.6073    0.2653    2.7776 S.o2      1 <0>         0.0000
     15 Cl1        -5.4274   -0.3080    5.2555 Cl        1 <0>         0.0000
     16 Cl2        -2.2546    4.5465    5.2299 Cl        1 <0>         0.0000
     17 H1         -3.6092    0.3523    2.9083 H         1 <0>         0.0000
     18 H2         -0.0922    0.0816   -0.0997 H         1 <0>         0.0000
     19 H3          1.3636    1.0912   -0.1416 H         1 <0>         0.0000
     20 H4          0.2763    2.9082    1.0544 H         1 <0>         0.0000
     21 H5         -0.9934    2.3455   -0.0423 H         1 <0>         0.0000
     22 H6          1.2464   -0.8193    1.7615 H         1 <0>         0.0000
     23 H7          1.6512    0.8375    2.3283 H         1 <0>         0.0000
@<TRIPOS>BOND
     1    1    2 1
     2    1    3 2
     3    1   17 1
     4    2    4 2
     5    2    5 1
     6    3   13 1
     7    3   15 1
     8    4   13 1
     9    4   16 1
    10    5    9 am
    11    5   10 2
    12    6    7 1
    13    6    8 1
    14    6   18 1
    15    6   19 1
    16    7    9 1
    17    7   20 1
    18    7   21 1
    19    8   14 1
    20    8   22 1
    21    8   23 1
    22    9   14 1
    23   11   14 2
    24   12   14 2
