@<TRIPOS>MOLECULE
*****
   20    20     0     0     0
SMALL
NO_CHARGES

@<TRIPOS>ATOM
      1 C1          5.0148    0.4748   -0.0111 C.1       1 <0>         0.0000
      2 C2          1.6323   -1.3695   -0.1151 C.ar      1 <0>         0.0000
      3 C3          0.7158   -0.7836    0.7603 C.ar      1 <0>         0.0000
      4 C4          2.3042   -1.0429    2.5861 C.ar      1 <0>         0.0000
      5 C5          2.8862   -1.7867    0.3369 C.ar      1 <0>         0.0000
      6 C6          3.1967   -1.6152    1.6892 C.ar      1 <0>         0.0000
      7 C7          1.0620   -0.6269    2.1042 C.ar      1 <0>         0.0000
      8 C8          5.5593   -0.6782   -0.7411 C.3       1 <0>         0.0000
      9 C9          4.4862   -1.5527   -1.4161 C.3       1 <0>         0.0000
     10 N1          4.5848    1.4012    0.5449 N.1       1 <0>         0.0000
     11 O1          3.7957   -2.4034   -0.4979 O.3       1 <0>         0.0000
     12 F1          4.4161   -1.9974    2.1318 F         1 <0>         0.0000
     13 Cl1        -0.0816    0.1040    3.2134 Cl        1 <0>         0.0000
     14 H1          1.3747   -1.5152   -1.1604 H         1 <0>         0.0000
     15 H2         -0.2571   -0.4601    0.4064 H         1 <0>         0.0000
     16 H3          2.5879   -0.9149    3.6250 H         1 <0>         0.0000
     17 H4          6.2377   -0.2947   -1.5114 H         1 <0>         0.0000
     18 H5          6.1465   -1.2925   -0.0525 H         1 <0>         0.0000
     19 H6          4.9808   -2.2335   -2.1120 H         1 <0>         0.0000
     20 H7          3.7797   -0.9286   -1.9754 H         1 <0>         0.0000
@<TRIPOS>BOND
     1    1    8 1
     2    1   10 3
     3    2    3 ar
     4    2    5 ar
     5    2   14 1
     6    3    7 ar
     7    3   15 1
     8    4    6 ar
     9    4    7 ar
    10    4   16 1
    11    5    6 ar
    12    5   11 1
    13    6   12 1
    14    7   13 1
    15    8    9 1
    16    8   17 1
    17    8   18 1
    18    9   11 1
    19    9   19 1
    20    9   20 1
