@<TRIPOS>MOLECULE
*****
   27    28     0     0     0
SMALL
NO_CHARGES

@<TRIPOS>ATOM
      1 C1         -0.2705   -3.1077   -1.5287 C.1       1 <0>         0.0000
      2 C2          0.3886   -2.5099   -0.7043 C.1       1 <0>         0.0000
      3 C3          1.6928    0.2496    1.4431 C.ar      1 <0>         0.0000
      4 C4          0.9313   -0.4305    0.4929 C.ar      1 <0>         0.0000
      5 C5          2.6784   -0.4176    2.1684 C.ar      1 <0>         0.0000
      6 C6          6.4154   -4.9978    3.3342 C.ar      1 <0>         0.0000
      7 C7          2.1575   -2.4811    0.9959 C.ar      1 <0>         0.0000
      8 C8          5.5825   -3.3886    4.9149 C.ar      1 <0>         0.0000
      9 C9          7.4072   -5.3137    4.2589 C.ar      1 <0>         0.0000
     10 C10         1.1640   -1.7994    0.2691 C.ar      1 <0>         0.0000
     11 C11         5.4869   -4.0008    3.6620 C.ar      1 <0>         0.0000
     12 C12         2.9145   -1.7859    1.9476 C.ar      1 <0>         0.0000
     13 C13         6.6194   -3.8006    5.7614 C.ar      1 <0>         0.0000
     14 C14         4.4109   -3.6777    2.6550 C.2       1 <0>         0.0000
     15 N1          7.5154   -4.7230    5.4622 N.ar      1 <0>         0.0000
     16 N2          3.9225   -2.3952    2.7296 N.am      1 <0>         0.0000
     17 O1          4.0380   -4.5199    1.8435 O.2       1 <0>         0.0000
     18 Cl1         6.7484   -3.0472    7.3458 Cl        1 <0>         0.0000
     19 H1         -0.8488   -3.6391   -2.2546 H         1 <0>         0.0000
     20 H2          1.5199    1.3069    1.6226 H         1 <0>         0.0000
     21 H3          0.1623    0.0828   -0.0754 H         1 <0>         0.0000
     22 H4          3.2662    0.1226    2.9082 H         1 <0>         0.0000
     23 H5          6.3473   -5.5074    2.3793 H         1 <0>         0.0000
     24 H6          2.3378   -3.5314    0.8173 H         1 <0>         0.0000
     25 H7          4.8677   -2.6504    5.2634 H         1 <0>         0.0000
     26 H8          8.1526   -6.0741    4.0365 H         1 <0>         0.0000
     27 H9          4.4012   -1.7699    3.3647 H         1 <0>         0.0000
@<TRIPOS>BOND
     1    1    2 3
     2    1   19 1
     3    2   10 1
     4    3    4 ar
     5    3    5 ar
     6    3   20 1
     7    4   10 ar
     8    4   21 1
     9    5   12 ar
    10    5   22 1
    11    6    9 ar
    12    6   11 ar
    13    6   23 1
    14    7   10 ar
    15    7   12 ar
    16    7   24 1
    17    8   11 ar
    18    8   13 ar
    19    8   25 1
    20    9   15 ar
    21    9   26 1
    22   11   14 1
    23   12   16 1
    24   13   15 ar
    25   13   18 1
    26   14   16 am
    27   14   17 2
    28   16   27 1
