@<TRIPOS>MOLECULE
*****
   20    20     0     0     0
SMALL
NO_CHARGES

@<TRIPOS>ATOM
      1 C1          2.2269   -4.7037    0.6186 C.1       1 <0>         0.0000
      2 C2          2.1240   -0.8965    0.0323 C.ar      1 <0>         0.0000
      3 C3          1.1522   -0.2929    0.8329 C.ar      1 <0>         0.0000
      4 C4          2.1655   -1.2956    2.8059 C.ar      1 <0>         0.0000
      5 C5          3.1124   -1.7062    0.5960 C.ar      1 <0>         0.0000
      6 C6          3.1135   -1.8880    1.9822 C.ar      1 <0>         0.0000
      7 C7          1.1840   -0.4989    2.2137 C.ar      1 <0>         0.0000
      8 C8          3.5020   -4.6870   -0.1110 C.3       1 <0>         0.0000
      9 C9          3.7233   -3.4153   -0.9513 C.3       1 <0>         0.0000
     10 N1          1.2065   -4.7253    1.1759 N.1       1 <0>         0.0000
     11 O1          4.1070   -2.2835   -0.1670 O.3       1 <0>         0.0000
     12 F1          4.0545   -2.6871    2.5345 F         1 <0>         0.0000
     13 Cl1        -0.0282    0.2561    3.2299 Cl        1 <0>         0.0000
     14 H1          2.1257   -0.7347   -1.0420 H         1 <0>         0.0000
     15 H2          0.3853    0.3351    0.3923 H         1 <0>         0.0000
     16 H3          2.1918   -1.4717    3.8757 H         1 <0>         0.0000
     17 H4          4.3237   -4.7972    0.6025 H         1 <0>         0.0000
     18 H5          3.5165   -5.5569   -0.7772 H         1 <0>         0.0000
     19 H6          2.8321   -3.1913   -1.5486 H         1 <0>         0.0000
     20 H7          4.5643   -3.5875   -1.6262 H         1 <0>         0.0000
@<TRIPOS>BOND
     1    1    8 1
     2    1   10 3
     3    2    3 ar
     4    2    5 ar
     5    2   14 1
     6    3    7 ar
     7    3   15 1
     8    4    6 ar
     9    4    7 ar
    10    4   16 1
    11    5    6 ar
    12    5   11 1
    13    6   12 1
    14    7   13 1
    15    8    9 1
    16    8   17 1
    17    8   18 1
    18    9   11 1
    19    9   19 1
    20    9   20 1
