@<TRIPOS>MOLECULE
*****
   67    71     0     0     0
SMALL
NO_CHARGES

@<TRIPOS>ATOM
      1 C1         -1.2378   -2.2545   -4.5104 C.ar      1 <0>         0.0000
      2 C2          0.5005    2.1332  -10.0821 C.ar      1 <0>         0.0000
      3 C3         -0.7063   -1.9443   -5.7633 C.ar      1 <0>         0.0000
      4 C4         -1.5213   -1.2490   -3.5837 C.ar      1 <0>         0.0000
      5 C5          0.7192    0.9745   -9.3296 C.ar      1 <0>         0.0000
      6 C6         -0.6552    0.4048   -5.1848 C.ar      1 <0>         0.0000
      7 C7         -0.4487    3.0706   -9.6741 C.ar      1 <0>         0.0000
      8 C8         -0.4175   -0.6147   -6.1285 C.ar      1 <0>         0.0000
      9 C9         -1.2117    0.0642   -3.9523 C.ar      1 <0>         0.0000
     10 C10        -1.1896    2.7649   -8.5072 C.ar      1 <0>         0.0000
     11 C11        -0.0423    0.7881   -8.1716 C.ar      1 <0>         0.0000
     12 C12        -1.7099    5.1246  -10.0048 C.2       1 <0>         0.0000
     13 C13        -3.3018    4.5862   -6.0287 C.3       1 <0>         0.0000
     14 C14        -3.9297    2.3313   -6.8705 C.3       1 <0>         0.0000
     15 C15        -1.2127    1.6037   -0.1362 C.3       1 <0>         0.0000
     16 C16         0.5526    0.9031   -1.2072 C.3       1 <0>         0.0000
     17 C17        -3.5767    4.1499   -4.5905 C.3       1 <0>         0.0000
     18 C18        -4.2268    1.8376   -5.4649 C.3       1 <0>         0.0000
     19 C19        -2.7716    4.5112   -9.0884 C.3       1 <0>         0.0000
     20 C20        -2.7941    3.3679   -6.8017 C.3       1 <0>         0.0000
     21 C21         0.2769    1.4307    0.2121 C.3       1 <0>         0.0000
     22 C22        -3.8162    3.7879   -9.9622 C.3       1 <0>         0.0000
     23 C23         0.3524    4.7882  -11.2822 C.3       1 <0>         0.0000
     24 C24        -5.9686    3.3889   -4.5508 C.3       1 <0>         0.0000
     25 N1         -0.9882    1.6553   -7.7917 N.ar      1 <0>         0.0000
     26 N2         -0.6315    4.3185  -10.3047 N.am      1 <0>         0.0000
     27 N3         -2.1417    3.6710   -8.0658 N.pl3     1 <0>         0.0000
     28 N4         -0.9375    0.8350   -1.4015 N.pl3     1 <0>         0.0000
     29 N5          0.1480   -0.3535   -7.3760 N.pl3     1 <0>         0.0000
     30 N6         -4.5345    2.9656   -4.4886 N.4       1 <0>         0.0000
     31 O1         -1.8729    6.2414  -10.4816 O.2       1 <0>         0.0000
     32 O2         -0.9493    2.6254   -3.3306 O.2       1 <0>         0.0000
     33 O3         -3.0505    1.4838   -2.5741 O.2       1 <0>         0.0000
     34 F1          0.5084    0.5176    1.1928 F         1 <0>         0.0000
     35 F2          0.9304    2.5734    0.5441 F         1 <0>         0.0000
     36 S1         -1.5893    1.3954   -2.8274 S.o2      1 <0>         0.0000
     37 H1         -1.4486   -3.2902   -4.2616 H         1 <0>         0.0000
     38 H2          1.1009    2.3087  -10.9676 H         1 <0>         0.0000
     39 H3         -0.5184   -2.7443   -6.4757 H         1 <0>         0.0000
     40 H4         -1.9529   -1.4725   -2.6144 H         1 <0>         0.0000
     41 H5          1.4782    0.2581   -9.6277 H         1 <0>         0.0000
     42 H6         -0.3929    1.4303   -5.4017 H         1 <0>         0.0000
     43 H7         -4.1918    5.0271   -6.4909 H         1 <0>         0.0000
     44 H8         -2.5358    5.3665   -5.9870 H         1 <0>         0.0000
     45 H9         -3.6131    1.4666   -7.4575 H         1 <0>         0.0000
     46 H10        -4.8228    2.7498   -7.3443 H         1 <0>         0.0000
     47 H11        -1.9266    1.1012    0.5153 H         1 <0>         0.0000
     48 H12        -1.4798    2.6513   -0.2941 H         1 <0>         0.0000
     49 H13         1.0455    1.6488   -1.8363 H         1 <0>         0.0000
     50 H14         1.0357   -0.0716   -1.2747 H         1 <0>         0.0000
     51 H15        -2.6492    3.8286   -4.1154 H         1 <0>         0.0000
     52 H16        -4.0141    4.9511   -3.9916 H         1 <0>         0.0000
     53 H17        -5.0752    1.1520   -5.4239 H         1 <0>         0.0000
     54 H18        -3.3596    1.3174   -5.0645 H         1 <0>         0.0000
     55 H19        -3.2369    5.3643   -8.5938 H         1 <0>         0.0000
     56 H20        -2.0054    2.9190   -6.1948 H         1 <0>         0.0000
     57 H21        -3.3843    2.8951  -10.4246 H         1 <0>         0.0000
     58 H22        -4.1598    4.4590  -10.7539 H         1 <0>         0.0000
     59 H23        -4.6865    3.4849   -9.3754 H         1 <0>         0.0000
     60 H24         0.3201    4.1762  -12.1895 H         1 <0>         0.0000
     61 H25         1.3571    4.7482  -10.8519 H         1 <0>         0.0000
     62 H26         0.1041    5.8160  -11.5389 H         1 <0>         0.0000
     63 H27        -6.1774    3.8148   -5.5314 H         1 <0>         0.0000
     64 H28        -6.6031    2.5184   -4.3825 H         1 <0>         0.0000
     65 H29        -6.1527    4.1346   -3.7771 H         1 <0>         0.0000
     66 H30         0.5511   -1.1492   -7.8536 H         1 <0>         0.0000
     67 H31        -4.3404    2.5487   -3.5623 H         1 <0>         0.0000
@<TRIPOS>BOND
     1    1    3 ar
     2    1    4 ar
     3    1   37 1
     4    2    5 ar
     5    2    7 ar
     6    2   38 1
     7    3    8 ar
     8    3   39 1
     9    4    9 ar
    10    4   40 1
    11    5   11 ar
    12    5   41 1
    13    6    8 ar
    14    6    9 ar
    15    6   42 1
    16    7   10 ar
    17    7   26 1
    18    8   29 1
    19    9   36 1
    20   10   25 ar
    21   10   27 1
    22   11   25 ar
    23   11   29 1
    24   12   19 1
    25   12   26 am
    26   12   31 2
    27   13   17 1
    28   13   20 1
    29   13   43 1
    30   13   44 1
    31   14   18 1
    32   14   20 1
    33   14   45 1
    34   14   46 1
    35   15   21 1
    36   15   28 1
    37   15   47 1
    38   15   48 1
    39   16   21 1
    40   16   28 1
    41   16   49 1
    42   16   50 1
    43   17   30 1
    44   17   51 1
    45   17   52 1
    46   18   30 1
    47   18   53 1
    48   18   54 1
    49   19   22 1
    50   19   27 1
    51   19   55 1
    52   20   27 1
    53   20   56 1
    54   21   34 1
    55   21   35 1
    56   22   57 1
    57   22   58 1
    58   22   59 1
    59   23   26 1
    60   23   60 1
    61   23   61 1
    62   23   62 1
    63   24   30 1
    64   24   63 1
    65   24   64 1
    66   24   65 1
    67   28   36 1
    68   29   66 1
    69   30   67 1
    70   32   36 2
    71   33   36 2
