@<TRIPOS>MOLECULE
*****
   70    74     0     0     0
SMALL
NO_CHARGES

@<TRIPOS>ATOM
      1 C1         -5.4956    1.2205   -0.2215 C.ar      1 <0>         0.0000
      2 C2         -3.4048    7.6832   -1.0806 C.ar      1 <0>         0.0000
      3 C3         -5.0174    2.5170   -0.4198 C.ar      1 <0>         0.0000
      4 C4         -5.5648    0.2954   -1.2649 C.ar      1 <0>         0.0000
      5 C5         -3.6034    6.5502   -1.8707 C.ar      1 <0>         0.0000
      6 C6         -4.6608    2.0004   -2.7600 C.ar      1 <0>         0.0000
      7 C7         -3.6004    7.6189    0.2975 C.ar      1 <0>         0.0000
      8 C8         -4.6011    2.9302   -1.7020 C.ar      1 <0>         0.0000
      9 C9         -5.1330    0.7126   -2.5276 C.ar      1 <0>         0.0000
     10 C10        -4.0353    6.3801    0.8363 C.ar      1 <0>         0.0000
     11 C11        -3.9852    5.3567   -1.2352 C.ar      1 <0>         0.0000
     12 C12        -3.7383    8.6902    2.4769 C.2       1 <0>         0.0000
     13 C13        -3.8505    4.9223    4.2382 C.3       1 <0>         0.0000
     14 C14        -5.9072    4.5118    2.8689 C.3       1 <0>         0.0000
     15 C15        -3.9855    3.4957    4.7786 C.3       1 <0>         0.0000
     16 C16        -5.9697    3.1017    3.4591 C.3       1 <0>         0.0000
     17 C17        -3.4271   -2.1246   -2.5779 C.3       1 <0>         0.0000
     18 C18        -2.4150   -0.4140   -4.0078 C.3       1 <0>         0.0000
     19 C19        -2.1835   -2.9804   -2.8073 C.3       1 <0>         0.0000
     20 C20        -1.2114   -1.3393   -4.1759 C.3       1 <0>         0.0000
     21 C21        -4.6814    7.5460    2.8427 C.3       1 <0>         0.0000
     22 C22        -4.4503    4.9961    2.8300 C.3       1 <0>         0.0000
     23 C23        -6.1267    7.9672    2.5043 C.3       1 <0>         0.0000
     24 C24        -2.4871    9.8055    0.6955 C.3       1 <0>         0.0000
     25 C25        -5.5254    1.7476    5.4054 C.3       1 <0>         0.0000
     26 N1         -4.2075    5.2869    0.0825 N.ar      1 <0>         0.0000
     27 N2         -3.2970    8.6876    1.1719 N.am      1 <0>         0.0000
     28 N3         -4.2506    6.3050    2.1951 N.pl3     1 <0>         0.0000
     29 N4         -5.3848    3.0662    4.7997 N.3       1 <0>         0.0000
     30 N5         -3.6003   -1.2487   -3.7496 N.pl3     1 <0>         0.0000
     31 N6         -4.1343    4.2085   -2.0129 N.pl3     1 <0>         0.0000
     32 O1         -3.4539    9.5713    3.2852 O.2       1 <0>         0.0000
     33 O2         -6.1105   -1.4902   -3.6179 O.2       1 <0>         0.0000
     34 O3         -5.0513    0.2852   -5.1342 O.2       1 <0>         0.0000
     35 O4         -1.0296   -2.1745   -3.0354 O.3       1 <0>         0.0000
     36 S1         -5.0967   -0.4682   -3.8791 S.o2      1 <0>         0.0000
     37 H1         -5.8276    0.9324    0.7726 H         1 <0>         0.0000
     38 H2         -3.0779    8.6057   -1.5481 H         1 <0>         0.0000
     39 H3         -4.9702    3.2198    0.3965 H         1 <0>         0.0000
     40 H4         -5.9611   -0.7036   -1.1206 H         1 <0>         0.0000
     41 H5         -3.4535    6.5931   -2.9455 H         1 <0>         0.0000
     42 H6         -4.3667    2.2836   -3.7674 H         1 <0>         0.0000
     43 H7         -4.3722    5.5974    4.9245 H         1 <0>         0.0000
     44 H8         -2.7955    5.2152    4.2132 H         1 <0>         0.0000
     45 H9         -6.3336    4.5204    1.8614 H         1 <0>         0.0000
     46 H10        -6.5073    5.1765    3.4984 H         1 <0>         0.0000
     47 H11        -3.3653    2.8100    4.1654 H         1 <0>         0.0000
     48 H12        -3.5954    3.4513    5.8009 H         1 <0>         0.0000
     49 H13        -7.0118    2.7717    3.5260 H         1 <0>         0.0000
     50 H14        -5.4498    2.3945    2.7796 H         1 <0>         0.0000
     51 H15        -4.3088   -2.7609   -2.4833 H         1 <0>         0.0000
     52 H16        -3.3050   -1.5336   -1.6576 H         1 <0>         0.0000
     53 H17        -2.2338    0.2831   -3.1753 H         1 <0>         0.0000
     54 H18        -2.5803    0.1543   -4.9249 H         1 <0>         0.0000
     55 H19        -1.9720   -3.5816   -1.9196 H         1 <0>         0.0000
     56 H20        -2.3516   -3.6501   -3.6634 H         1 <0>         0.0000
     57 H21        -1.3464   -1.9548   -5.0774 H         1 <0>         0.0000
     58 H22        -0.2964   -0.7506   -4.2792 H         1 <0>         0.0000
     59 H23        -4.5821    7.4261    3.9196 H         1 <0>         0.0000
     60 H24        -3.8904    4.2971    2.2028 H         1 <0>         0.0000
     61 H25        -6.2553    8.0777    1.4232 H         1 <0>         0.0000
     62 H26        -6.3530    8.9248    2.9825 H         1 <0>         0.0000
     63 H27        -6.8429    7.2239    2.8597 H         1 <0>         0.0000
     64 H28        -3.0409   10.4101   -0.0315 H         1 <0>         0.0000
     65 H29        -1.5701    9.4330    0.2288 H         1 <0>         0.0000
     66 H30        -2.2385   10.4264    1.5544 H         1 <0>         0.0000
     67 H31        -5.1286    1.7641    6.4254 H         1 <0>         0.0000
     68 H32        -4.9944    0.9554    4.8431 H         1 <0>         0.0000
     69 H33        -6.5844    1.4756    5.4583 H         1 <0>         0.0000
     70 H34        -3.9363    4.3515   -2.9942 H         1 <0>         0.0000
@<TRIPOS>BOND
     1    1    3 ar
     2    1    4 ar
     3    1   37 1
     4    2    5 ar
     5    2    7 ar
     6    2   38 1
     7    3    8 ar
     8    3   39 1
     9    4    9 ar
    10    4   40 1
    11    5   11 ar
    12    5   41 1
    13    6    8 ar
    14    6    9 ar
    15    6   42 1
    16    7   10 ar
    17    7   27 1
    18    8   31 1
    19    9   36 1
    20   10   26 ar
    21   10   28 1
    22   11   26 ar
    23   11   31 1
    24   12   21 1
    25   12   27 am
    26   12   32 2
    27   13   15 1
    28   13   22 1
    29   13   43 1
    30   13   44 1
    31   14   16 1
    32   14   22 1
    33   14   45 1
    34   14   46 1
    35   15   29 1
    36   15   47 1
    37   15   48 1
    38   16   29 1
    39   16   49 1
    40   16   50 1
    41   17   19 1
    42   17   30 1
    43   17   51 1
    44   17   52 1
    45   18   20 1
    46   18   30 1
    47   18   53 1
    48   18   54 1
    49   19   35 1
    50   19   55 1
    51   19   56 1
    52   20   35 1
    53   20   57 1
    54   20   58 1
    55   21   23 1
    56   21   28 1
    57   21   59 1
    58   22   28 1
    59   22   60 1
    60   23   61 1
    61   23   62 1
    62   23   63 1
    63   24   27 1
    64   24   64 1
    65   24   65 1
    66   24   66 1
    67   25   29 1
    68   25   67 1
    69   25   68 1
    70   25   69 1
    71   30   36 1
    72   31   70 1
    73   33   36 2
    74   34   36 2
