@<TRIPOS>MOLECULE
*****
   58    61     0     0     0
SMALL
NO_CHARGES

@<TRIPOS>ATOM
      1 C1          3.1287  -11.1971   -2.3538 C.ar      1 <0>         0.0000
      2 C2          3.1503  -11.5588    0.0399 C.ar      1 <0>         0.0000
      3 C3          3.3929   -7.8638   -1.5642 C.ar      1 <0>         0.0000
      4 C4          1.7791  -10.8795   -2.2967 C.ar      1 <0>         0.0000
      5 C5          1.7984  -11.2259    0.1066 C.ar      1 <0>         0.0000
      6 C6          2.1896   -7.6497   -0.9020 C.ar      1 <0>         0.0000
      7 C7          2.5071   -7.7947   -5.0893 C.2       1 <0>         0.0000
      8 C8          0.9661   -7.4439   -3.0063 C.ar      1 <0>         0.0000
      9 C9          3.8502   -8.0769   -5.1618 C.2       1 <0>         0.0000
     10 C10         7.1751  -12.5767   -0.5350 C.2       1 <0>         0.0000
     11 C11         2.1706   -7.6814   -3.6953 C.ar      1 <0>         0.0000
     12 C12         3.8368  -11.5292   -1.1831 C.ar      1 <0>         0.0000
     13 C13         3.3683   -7.8981   -2.9633 C.ar      1 <0>         0.0000
     14 C14         1.1128  -10.8628   -1.0616 C.ar      1 <0>         0.0000
     15 C15         0.9827   -7.4590   -1.6149 C.ar      1 <0>         0.0000
     16 C16         7.3557  -11.9885   -1.7502 C.2       1 <0>         0.0000
     17 C17         5.2652  -11.8108   -1.2437 C.2       1 <0>         0.0000
     18 C18         6.5565   -7.2161   -3.0341 C.2       1 <0>         0.0000
     19 C19         9.3539  -10.4857   -2.1468 C.3       1 <0>         0.0000
     20 C20         6.5461   -9.1378   -4.6414 C.3       1 <0>         0.0000
     21 C21         8.6185  -11.7834   -2.5314 C.3       1 <0>         0.0000
     22 C22        -1.8379   -8.9225   -0.2489 C.3       1 <0>         0.0000
     23 C23        -0.7332   -9.9014    0.1301 C.3       1 <0>         0.0000
     24 C24        -1.3684   -7.9031   -1.2887 C.3       1 <0>         0.0000
     25 C25         5.7699   -8.4520   -3.5133 C.3       1 <0>         0.0000
     26 N1          6.1202  -11.5018   -2.1863 N.2       1 <0>         0.0000
     27 N2          4.3937   -8.1378   -3.8809 N.pl3     1 <0>         0.0000
     28 O1          7.6446   -7.3204   -2.5118 O.2       1 <0>         0.0000
     29 O2          5.8425  -12.4697   -0.1948 O.3       1 <0>         0.0000
     30 O3          5.9929   -6.0059   -3.2461 O.3       1 <0>         0.0000
     31 O4         -0.1967  -10.4702   -1.0760 O.3       1 <0>         0.0000
     32 O5         -0.1520   -7.2761   -0.8479 O.3       1 <0>         0.0000
     33 H1          3.6528  -11.1742   -3.3041 H         1 <0>         0.0000
     34 H2          3.6820  -11.8282    0.9472 H         1 <0>         0.0000
     35 H3          4.3062   -8.0289   -1.0008 H         1 <0>         0.0000
     36 H4          1.2352  -10.5897   -3.1893 H         1 <0>         0.0000
     37 H5          1.2905  -11.2460    1.0644 H         1 <0>         0.0000
     38 H6          2.1519   -7.6458    0.1828 H         1 <0>         0.0000
     39 H7          1.8396   -7.6869   -5.9345 H         1 <0>         0.0000
     40 H8          0.0483   -7.2612   -3.5561 H         1 <0>         0.0000
     41 H9          4.4692   -8.2429   -6.0309 H         1 <0>         0.0000
     42 H10         7.8159  -13.0804    0.1726 H         1 <0>         0.0000
     43 H11         8.7143   -9.6061   -2.2559 H         1 <0>         0.0000
     44 H12        10.2397  -10.3444   -2.7757 H         1 <0>         0.0000
     45 H13         9.6832  -10.5262   -1.1032 H         1 <0>         0.0000
     46 H14         6.6625   -8.4899   -5.5155 H         1 <0>         0.0000
     47 H15         7.5401   -9.3888   -4.2727 H         1 <0>         0.0000
     48 H16         6.0409  -10.0617   -4.9302 H         1 <0>         0.0000
     49 H17         9.2833  -12.6405   -2.3778 H         1 <0>         0.0000
     50 H18         8.3611  -11.7689   -3.5955 H         1 <0>         0.0000
     51 H19        -2.7048   -9.4560   -0.6568 H         1 <0>         0.0000
     52 H20        -2.1645   -8.4151    0.6660 H         1 <0>         0.0000
     53 H21         0.0591   -9.3658    0.6602 H         1 <0>         0.0000
     54 H22        -1.1180  -10.6972    0.7800 H         1 <0>         0.0000
     55 H23        -2.1231   -7.1224   -1.4319 H         1 <0>         0.0000
     56 H24        -1.2072   -8.4113   -2.2404 H         1 <0>         0.0000
     57 H25         5.7487   -9.1514   -2.6737 H         1 <0>         0.0000
     58 H26         5.1015   -6.1331   -3.6240 H         1 <0>         0.0000
@<TRIPOS>BOND
     1    1    4 ar
     2    1   12 ar
     3    1   33 1
     4    2    5 ar
     5    2   12 ar
     6    2   34 1
     7    3    6 ar
     8    3   13 ar
     9    3   35 1
    10    4   14 ar
    11    4   36 1
    12    5   14 ar
    13    5   37 1
    14    6   15 ar
    15    6   38 1
    16    7    9 2
    17    7   11 1
    18    7   39 1
    19    8   11 ar
    20    8   15 ar
    21    8   40 1
    22    9   27 1
    23    9   41 1
    24   10   16 2
    25   10   29 1
    26   10   42 1
    27   11   13 ar
    28   12   17 1
    29   13   27 1
    30   14   31 1
    31   15   32 1
    32   16   21 1
    33   16   26 1
    34   17   26 2
    35   17   29 1
    36   18   25 1
    37   18   28 2
    38   18   30 1
    39   19   21 1
    40   19   43 1
    41   19   44 1
    42   19   45 1
    43   20   25 1
    44   20   46 1
    45   20   47 1
    46   20   48 1
    47   21   49 1
    48   21   50 1
    49   22   23 1
    50   22   24 1
    51   22   51 1
    52   22   52 1
    53   23   31 1
    54   23   53 1
    55   23   54 1
    56   24   32 1
    57   24   55 1
    58   24   56 1
    59   25   27 1
    60   25   57 1
    61   30   58 1
