@<TRIPOS>MOLECULE
*****
   46    49     0     0     0
SMALL
NO_CHARGES

@<TRIPOS>ATOM
      1 C1         -2.1251   -1.2908   -7.3737 C.ar      1 <0>         0.0000
      2 C2         -2.4308    0.6167   -8.8246 C.ar      1 <0>         0.0000
      3 C3          1.1791   -0.1319   -7.9217 C.ar      1 <0>         0.0000
      4 C4          2.4689   -0.5393   -8.2780 C.ar      1 <0>         0.0000
      5 C5         -2.6342   -2.1277   -8.3667 C.ar      1 <0>         0.0000
      6 C6         -2.9399   -0.2202   -9.8176 C.ar      1 <0>         0.0000
      7 C7          3.3138    0.0706   -6.0976 C.ar      1 <0>         0.0000
      8 C8          2.0215    0.4876   -5.7154 C.ar      1 <0>         0.0000
      9 C9         -2.0234    0.0814   -7.6027 C.ar      1 <0>         0.0000
     10 C10         1.4961    1.0319   -4.5202 C.2       1 <0>         0.0000
     11 C11         0.9645    0.3888   -6.6310 C.ar      1 <0>         0.0000
     12 C12         3.5239   -0.4392   -7.3802 C.ar      1 <0>         0.0000
     13 C13        -3.0416   -1.5924   -9.5886 C.ar      1 <0>         0.0000
     14 C14         0.1568    1.2549   -4.7192 C.2       1 <0>         0.0000
     15 C15         2.5503    0.1036   -2.4757 C.2       1 <0>         0.0000
     16 C16        -1.4845    0.9671   -6.5525 C.2       1 <0>         0.0000
     17 C17         3.4514   -1.6144   -1.5123 C.3       1 <0>         0.0000
     18 C18         1.9926   -1.5235   -1.1250 C.3       1 <0>         0.0000
     19 C19        -0.8035    1.8216   -3.7424 C.3       1 <0>         0.0000
     20 C20         5.8091   -0.7126   -6.7809 C.3       1 <0>         0.0000
     21 C21         2.2532    1.3138   -3.2820 C.3       1 <0>         0.0000
     22 N1          3.6359   -0.5963   -2.5529 N.2       1 <0>         0.0000
     23 N2         -0.1903    0.8617   -5.9980 N.am      1 <0>         0.0000
     24 O1         -2.2230    1.8489   -6.1262 O.2       1 <0>         0.0000
     25 O2          1.5749   -0.2589   -1.6137 O.3       1 <0>         0.0000
     26 O3          4.7711   -0.8424   -7.7505 O.3       1 <0>         0.0000
     27 Cl1        -3.6683   -2.6250  -10.8140 Cl        1 <0>         0.0000
     28 H1         -1.8111   -1.7183   -6.4250 H         1 <0>         0.0000
     29 H2         -2.3557    1.6844   -9.0140 H         1 <0>         0.0000
     30 H3          0.3800   -0.2261   -8.6481 H         1 <0>         0.0000
     31 H4          2.6394   -0.9400   -9.2746 H         1 <0>         0.0000
     32 H5         -2.7073   -3.1951   -8.1750 H         1 <0>         0.0000
     33 H6         -3.2536    0.2112  -10.7648 H         1 <0>         0.0000
     34 H7          4.1433    0.1445   -5.3988 H         1 <0>         0.0000
     35 H8          4.1022   -1.3858   -0.6612 H         1 <0>         0.0000
     36 H9          3.7081   -2.6134   -1.8781 H         1 <0>         0.0000
     37 H10         1.3916   -2.3035   -1.6040 H         1 <0>         0.0000
     38 H11         1.8485   -1.5799   -0.0421 H         1 <0>         0.0000
     39 H12        -0.8481    2.9173   -3.8286 H         1 <0>         0.0000
     40 H13        -1.8199    1.4265   -3.8941 H         1 <0>         0.0000
     41 H14        -0.5256    1.5725   -2.7064 H         1 <0>         0.0000
     42 H15         6.7511   -1.0695   -7.2044 H         1 <0>         0.0000
     43 H16         5.5533   -1.2945   -5.8919 H         1 <0>         0.0000
     44 H17         5.9108    0.3404   -6.5079 H         1 <0>         0.0000
     45 H18         3.2113    1.8163   -3.5139 H         1 <0>         0.0000
     46 H19         1.7141    2.0306   -2.6344 H         1 <0>         0.0000
@<TRIPOS>BOND
     1    1    5 ar
     2    1    9 ar
     3    1   28 1
     4    2    6 ar
     5    2    9 ar
     6    2   29 1
     7    3    4 ar
     8    3   11 ar
     9    3   30 1
    10    4   12 ar
    11    4   31 1
    12    5   13 ar
    13    5   32 1
    14    6   13 ar
    15    6   33 1
    16    7    8 ar
    17    7   12 ar
    18    7   34 1
    19    8   10 1
    20    8   11 ar
    21    9   16 1
    22   10   14 2
    23   10   21 1
    24   11   23 1
    25   12   26 1
    26   13   27 1
    27   14   19 1
    28   14   23 1
    29   15   21 1
    30   15   22 2
    31   15   25 1
    32   16   23 am
    33   16   24 2
    34   17   18 1
    35   17   22 1
    36   17   35 1
    37   17   36 1
    38   18   25 1
    39   18   37 1
    40   18   38 1
    41   19   39 1
    42   19   40 1
    43   19   41 1
    44   20   26 1
    45   20   42 1
    46   20   43 1
    47   20   44 1
    48   21   45 1
    49   21   46 1
