@<TRIPOS>MOLECULE
*****
   22    22     0     0     0
SMALL
NO_CHARGES

@<TRIPOS>ATOM
      1 C1          2.4518    4.7712   -2.2637 C.ar      1 <0>         0.0000
      2 C2          3.7720    4.3814   -2.0677 C.ar      1 <0>         0.0000
      3 C3          1.4188    3.9095   -1.9120 C.ar      1 <0>         0.0000
      4 C4          4.0043    3.1296   -1.5210 C.ar      1 <0>         0.0000
      5 C5          1.7565    2.6787   -1.3725 C.ar      1 <0>         0.0000
      6 C6          0.7034    1.7248   -0.9819 C.2       1 <0>         0.0000
      7 C7          0.0707   -1.6064   -0.2864 C.3       1 <0>         0.0000
      8 C8         -0.7362    0.1428    1.1223 C.3       1 <0>         0.0000
      9 N1          3.0271    2.2651   -1.1671 N.ar      1 <0>         0.0000
     10 N2          0.9816    0.5648   -0.4786 N.2       1 <0>         0.0000
     11 N3         -0.1296   -0.1586   -0.1809 N.pl3     1 <0>         0.0000
     12 H1          2.2283    5.7447   -2.6896 H         1 <0>         0.0000
     13 H2          4.5933    5.0363   -2.3346 H         1 <0>         0.0000
     14 H3          0.3848    4.2030   -2.0589 H         1 <0>         0.0000
     15 H4          5.0162    2.7790   -1.3466 H         1 <0>         0.0000
     16 H5         -0.3422    2.0509   -1.1449 H         1 <0>         0.0000
     17 H6          0.5221   -1.8539   -1.2507 H         1 <0>         0.0000
     18 H7         -0.8868   -2.1275   -0.2020 H         1 <0>         0.0000
     19 H8          0.7314   -1.9557    0.5116 H         1 <0>         0.0000
     20 H9         -0.8948    1.2196    1.2228 H         1 <0>         0.0000
     21 H10        -0.0814   -0.1934    1.9308 H         1 <0>         0.0000
     22 H11        -1.6996   -0.3653    1.2173 H         1 <0>         0.0000
@<TRIPOS>BOND
     1    1    2 ar
     2    1    3 ar
     3    1   12 1
     4    2    4 ar
     5    2   13 1
     6    3    5 ar
     7    3   14 1
     8    4    9 ar
     9    4   15 1
    10    5    6 1
    11    5    9 ar
    12    6   10 2
    13    6   16 1
    14    7   11 1
    15    7   17 1
    16    7   18 1
    17    7   19 1
    18    8   11 1
    19    8   20 1
    20    8   21 1
    21    8   22 1
    22   10   11 1
