@<TRIPOS>MOLECULE
*****
   43    45     0     0     0
SMALL
NO_CHARGES

@<TRIPOS>ATOM
      1 C1          3.9059   -7.2238   -2.8930 C.ar      1 <0>         0.0000
      2 C2          3.1090   -6.8318   -0.6465 C.ar      1 <0>         0.0000
      3 C3          3.8002   -5.8582   -3.1613 C.ar      1 <0>         0.0000
      4 C4          3.0063   -5.4716   -0.9199 C.ar      1 <0>         0.0000
      5 C5          6.2429   -1.9808   -0.9815 C.2       1 <0>         0.0000
      6 C6          5.0994   -2.7385   -0.8432 C.2       1 <0>         0.0000
      7 C7          5.3963   -2.1352   -2.9457 C.2       1 <0>         0.0000
      8 C8          3.5614   -7.7276   -1.6298 C.ar      1 <0>         0.0000
      9 C9          3.3523   -4.9639   -2.1825 C.ar      1 <0>         0.0000
     10 C10         3.6538   -9.1845   -1.2877 C.2       1 <0>         0.0000
     11 C11        -0.3987   -1.0995   -2.2217 C.3       1 <0>         0.0000
     12 C12        -0.4602   -2.5971   -1.8951 C.3       1 <0>         0.0000
     13 C13         0.9110   -0.4794   -1.7186 C.3       1 <0>         0.0000
     14 C14         0.7676   -3.3443   -2.4339 C.3       1 <0>         0.0000
     15 C15         2.1374   -1.2272   -2.2591 C.3       1 <0>         0.0000
     16 C16         2.0810   -2.7269   -1.9233 C.3       1 <0>         0.0000
     17 C17         4.1613  -10.1510   -2.3428 C.3       1 <0>         0.0000
     18 C18         3.2993   -3.4763   -2.5021 C.3       1 <0>         0.0000
     19 N1          6.4194   -1.6080   -2.2983 N.2       1 <0>         0.0000
     20 N2          4.5627   -2.8361   -2.1143 N.pl3     1 <0>         0.0000
     21 O1          3.3267   -9.5867   -0.1768 O.2       1 <0>         0.0000
     22 H1          4.2574   -7.8893   -3.6753 H         1 <0>         0.0000
     23 H2          2.8407   -7.2286    0.3277 H         1 <0>         0.0000
     24 H3          4.0759   -5.4814   -4.1437 H         1 <0>         0.0000
     25 H4          2.6430   -4.8036   -0.1443 H         1 <0>         0.0000
     26 H5          6.9459   -1.6903   -0.2111 H         1 <0>         0.0000
     27 H6          4.6491   -3.2199    0.0117 H         1 <0>         0.0000
     28 H7          5.1991   -2.0426   -4.0067 H         1 <0>         0.0000
     29 H8         -1.2591   -0.5795   -1.7847 H         1 <0>         0.0000
     30 H9         -0.4686   -0.9638   -3.3100 H         1 <0>         0.0000
     31 H10        -0.5115   -2.7288   -0.8054 H         1 <0>         0.0000
     32 H11        -1.3737   -3.0416   -2.3062 H         1 <0>         0.0000
     33 H12         0.9682    0.5774   -2.0030 H         1 <0>         0.0000
     34 H13         0.9279   -0.5083   -0.6203 H         1 <0>         0.0000
     35 H14         0.7101   -4.4030   -2.1627 H         1 <0>         0.0000
     36 H15         0.7630   -3.3026   -3.5330 H         1 <0>         0.0000
     37 H16         2.1818   -1.1083   -3.3517 H         1 <0>         0.0000
     38 H17         3.0535   -0.7840   -1.8574 H         1 <0>         0.0000
     39 H18         2.1031   -2.8196   -0.8290 H         1 <0>         0.0000
     40 H19         5.1742   -9.8837   -2.6627 H         1 <0>         0.0000
     41 H20         3.5209  -10.1315   -3.2313 H         1 <0>         0.0000
     42 H21         4.1680  -11.1582   -1.9251 H         1 <0>         0.0000
     43 H22         3.2544   -3.3754   -3.5917 H         1 <0>         0.0000
@<TRIPOS>BOND
     1    1    3 ar
     2    1    8 ar
     3    1   22 1
     4    2    4 ar
     5    2    8 ar
     6    2   23 1
     7    3    9 ar
     8    3   24 1
     9    4    9 ar
    10    4   25 1
    11    5    6 2
    12    5   19 1
    13    5   26 1
    14    6   20 1
    15    6   27 1
    16    7   19 2
    17    7   20 1
    18    7   28 1
    19    8   10 1
    20    9   18 1
    21   10   17 1
    22   10   21 2
    23   11   13 1
    24   11   12 1
    25   11   29 1
    26   11   30 1
    27   12   14 1
    28   12   31 1
    29   12   32 1
    30   13   15 1
    31   13   33 1
    32   13   34 1
    33   14   16 1
    34   14   35 1
    35   14   36 1
    36   15   16 1
    37   15   37 1
    38   15   38 1
    39   16   18 1
    40   16   39 1
    41   17   40 1
    42   17   41 1
    43   17   42 1
    44   18   20 1
    45   18   43 1
