@<TRIPOS>MOLECULE
*****
   52    54     0     0     0
SMALL
NO_CHARGES

@<TRIPOS>ATOM
      1 C1          3.3562   -2.0386    0.5803 C.ar      1 <0>         0.0000
      2 C2          2.1618   -2.0381   -0.1436 C.ar      1 <0>         0.0000
      3 C3         -2.9841    0.6513    0.8262 C.ar      1 <0>         0.0000
      4 C4         -3.1987   -1.7401    0.7413 C.ar      1 <0>         0.0000
      5 C5          2.1339    0.3800   -0.0331 C.ar      1 <0>         0.0000
      6 C6         -1.8143    0.5975    0.0682 C.ar      1 <0>         0.0000
      7 C7          3.9555   -0.8452    0.9996 C.ar      1 <0>         0.0000
      8 C8         -3.7007   -0.5082    1.1636 C.ar      1 <0>         0.0000
      9 C9         -2.0233   -1.8173   -0.0165 C.ar      1 <0>         0.0000
     10 C10         3.3446    0.3736    0.6640 C.ar      1 <0>         0.0000
     11 C11         1.5349   -0.8249   -0.4342 C.ar      1 <0>         0.0000
     12 C12        -1.3276   -0.6530   -0.3773 C.ar      1 <0>         0.0000
     13 C13         1.3680    1.6357   -0.3288 C.2       1 <0>         0.0000
     14 C14         4.3284    0.7493    4.6639 C.2       1 <0>         0.0000
     15 C15         3.8768   -0.3382    4.0251 C.2       1 <0>         0.0000
     16 C16        -1.0265    1.8631   -0.1808 C.3       1 <0>         0.0000
     17 C17        -4.9759   -0.4174    1.9682 C.3       1 <0>         0.0000
     18 C18         2.4073   -0.6766    3.9569 C.3       1 <0>         0.0000
     19 C19        -2.0632   -3.5850   -1.5847 C.3       1 <0>         0.0000
     20 C20         4.7196    2.2054    0.0880 C.3       1 <0>         0.0000
     21 C21         4.8407   -1.2838    3.3329 C.3       1 <0>         0.0000
     22 C22         5.1849   -0.8833    1.8769 C.3       1 <0>         0.0000
     23 O1          1.6321    2.4634   -1.1714 O.2       1 <0>         0.0000
     24 O2          0.2583    1.6618    0.4619 O.3       1 <0>         0.0000
     25 O3          6.0919   -1.8362    1.2982 O.3       1 <0>         0.0000
     26 O4         -1.5389   -3.0619   -0.3573 O.3       1 <0>         0.0000
     27 O5          3.8898    1.5703    1.0799 O.3       1 <0>         0.0000
     28 S1          0.0745   -0.7823   -1.4974 S.3       1 <0>         0.0000
     29 H1          3.8424   -2.9782    0.8246 H         1 <0>         0.0000
     30 H2          1.7056   -2.9669   -0.4710 H         1 <0>         0.0000
     31 H3         -3.3385    1.6172    1.1809 H         1 <0>         0.0000
     32 H4         -3.6984   -2.6675    1.0104 H         1 <0>         0.0000
     33 H5          5.3912    0.9777    4.7191 H         1 <0>         0.0000
     34 H6          3.6513    1.4545    5.1396 H         1 <0>         0.0000
     35 H7         -0.8664    2.0681   -1.2418 H         1 <0>         0.0000
     36 H8         -1.5097    2.7255    0.2823 H         1 <0>         0.0000
     37 H9         -5.8071   -0.0715    1.3423 H         1 <0>         0.0000
     38 H10        -5.2559   -1.3882    2.3856 H         1 <0>         0.0000
     39 H11        -4.8740    0.2922    2.7953 H         1 <0>         0.0000
     40 H12         2.0553   -0.7542    2.9237 H         1 <0>         0.0000
     41 H13         1.8011    0.0769    4.4666 H         1 <0>         0.0000
     42 H14         2.2164   -1.6492    4.4285 H         1 <0>         0.0000
     43 H15        -1.6252   -4.5773   -1.7083 H         1 <0>         0.0000
     44 H16        -1.7772   -2.9505   -2.4313 H         1 <0>         0.0000
     45 H17        -3.1564   -3.6682   -1.5390 H         1 <0>         0.0000
     46 H18         5.0992    3.1174    0.5525 H         1 <0>         0.0000
     47 H19         4.1349    2.4559   -0.8021 H         1 <0>         0.0000
     48 H20         5.5575    1.5529   -0.1875 H         1 <0>         0.0000
     49 H21         4.4382   -2.3031    3.3142 H         1 <0>         0.0000
     50 H22         5.7835   -1.3150    3.8942 H         1 <0>         0.0000
     51 H23         5.6407    0.1118    1.8984 H         1 <0>         0.0000
     52 H24         6.8537   -1.9163    1.8942 H         1 <0>         0.0000
@<TRIPOS>BOND
     1    1    2 ar
     2    1    7 ar
     3    1   29 1
     4    2   11 ar
     5    2   30 1
     6    3    6 ar
     7    3    8 ar
     8    3   31 1
     9    4    8 ar
    10    4    9 ar
    11    4   32 1
    12    5   10 ar
    13    5   11 ar
    14    5   13 1
    15    6   12 ar
    16    6   16 1
    17    7   10 ar
    18    7   22 1
    19    8   17 1
    20    9   12 ar
    21    9   26 1
    22   10   27 1
    23   11   28 1
    24   12   28 1
    25   13   23 2
    26   13   24 1
    27   14   15 2
    28   14   33 1
    29   14   34 1
    30   15   18 1
    31   15   21 1
    32   16   24 1
    33   16   35 1
    34   16   36 1
    35   17   37 1
    36   17   38 1
    37   17   39 1
    38   18   40 1
    39   18   41 1
    40   18   42 1
    41   19   26 1
    42   19   43 1
    43   19   44 1
    44   19   45 1
    45   20   27 1
    46   20   46 1
    47   20   47 1
    48   20   48 1
    49   21   22 1
    50   21   49 1
    51   21   50 1
    52   22   25 1
    53   22   51 1
    54   25   52 1
