@<TRIPOS>MOLECULE
*****
   71    76     0     0     0
SMALL
NO_CHARGES

@<TRIPOS>ATOM
      1 C1          8.1344   -0.5411    1.8264 C.ar      1 <0>         0.0000
      2 C2          4.2883   -2.9377    6.9600 C.ar      1 <0>         0.0000
      3 C3          7.3794   -1.0305    2.8935 C.ar      1 <0>         0.0000
      4 C4          5.6231   -3.0020    6.5579 C.ar      1 <0>         0.0000
      5 C5         10.0459   -1.8224    2.5698 C.ar      1 <0>         0.0000
      6 C6          9.4686   -0.9206    1.6543 C.ar      1 <0>         0.0000
      7 C7          3.3513   -2.2711    6.1727 C.ar      1 <0>         0.0000
      8 C8          7.9477   -1.9151    3.8228 C.ar      1 <0>         0.0000
      9 C9          9.3065   -2.3039    3.6370 C.ar      1 <0>         0.0000
     10 C10         3.8156   -1.6652    4.9780 C.ar      1 <0>         0.0000
     11 C11         5.9829   -2.3781    5.3519 C.ar      1 <0>         0.0000
     12 C12         1.1448   -1.3016    5.8848 C.2       1 <0>         0.0000
     13 C13        10.3165   -0.4535    0.5259 C.2       1 <0>         0.0000
     14 C14         2.9926    0.5749    0.7535 C.3       1 <0>         0.0000
     15 C15         3.8526   -0.7064    0.5384 C.3       1 <0>         0.0000
     16 C16         2.3420    0.4066    2.1419 C.3       1 <0>         0.0000
     17 C17         3.7555   -1.4974    1.8609 C.3       1 <0>         0.0000
     18 C18        11.1428    4.0084   -0.1574 C.3       1 <0>         0.0000
     19 C19         9.4765    1.9778    0.5469 C.3       1 <0>         0.0000
     20 C20        10.8695    1.4319   -0.9993 C.3       1 <0>         0.0000
     21 C21        10.3293    5.0983   -0.9091 C.3       1 <0>         0.0000
     22 C22         1.8211   -0.3367    4.9133 C.3       1 <0>         0.0000
     23 C23         3.3742   -0.4341    2.9086 C.3       1 <0>         0.0000
     24 C24        10.2873    2.7676   -0.5012 C.3       1 <0>         0.0000
     25 C25         2.2887    0.9226    5.6686 C.3       1 <0>         0.0000
     26 C26         1.4231   -3.1230    7.4922 C.3       1 <0>         0.0000
     27 C27        11.1258   -3.6427    4.4500 C.3       1 <0>         0.0000
     28 N1          5.0961   -1.7155    4.5985 N.ar      1 <0>         0.0000
     29 N2          1.9738   -2.2226    6.4838 N.am      1 <0>         0.0000
     30 N3          2.8959   -1.0114    4.1751 N.pl3     1 <0>         0.0000
     31 N4          9.9425    0.7235   -0.0958 N.am      1 <0>         0.0000
     32 N5          7.3066   -2.4566    4.9294 N.pl3     1 <0>         0.0000
     33 O1         -0.0554   -1.2117    6.1353 O.2       1 <0>         0.0000
     34 O2         11.3099   -1.0736    0.1349 O.2       1 <0>         0.0000
     35 O3          9.6950    3.5403   -3.0796 O.2       1 <0>         0.0000
     36 O4          7.8746    3.8836   -1.3140 O.2       1 <0>         0.0000
     37 O5          9.7853   -3.1754    4.5899 O.3       1 <0>         0.0000
     38 S1          9.2953    3.7919   -1.6862 S.o2      1 <0>         0.0000
     39 H1          7.6517    0.1104    1.1057 H         1 <0>         0.0000
     40 H2          3.9875   -3.4212    7.8832 H         1 <0>         0.0000
     41 H3          6.3472   -0.7437    3.0175 H         1 <0>         0.0000
     42 H4          6.3589   -3.5253    7.1610 H         1 <0>         0.0000
     43 H5         11.0719   -2.1270    2.4019 H         1 <0>         0.0000
     44 H6          3.6268    1.4671    0.7429 H         1 <0>         0.0000
     45 H7          2.2402    0.7135   -0.0275 H         1 <0>         0.0000
     46 H8          3.4988   -1.3014   -0.3080 H         1 <0>         0.0000
     47 H9          4.8918   -0.4405    0.3208 H         1 <0>         0.0000
     48 H10         2.1106    1.3656    2.6144 H         1 <0>         0.0000
     49 H11         1.4068   -0.1584    2.0509 H         1 <0>         0.0000
     50 H12         2.9417   -2.2307    1.8196 H         1 <0>         0.0000
     51 H13         4.6710   -2.0320    2.1118 H         1 <0>         0.0000
     52 H14        12.1531    3.9091   -0.5598 H         1 <0>         0.0000
     53 H15        11.2081    4.1872    0.9177 H         1 <0>         0.0000
     54 H16         9.8396    2.1050    1.5732 H         1 <0>         0.0000
     55 H17         8.3975    2.1458    0.5117 H         1 <0>         0.0000
     56 H18        10.7278    1.2186   -2.0622 H         1 <0>         0.0000
     57 H19        11.9205    1.2793   -0.7301 H         1 <0>         0.0000
     58 H20         9.7145    5.7354   -0.2721 H         1 <0>         0.0000
     59 H21        10.8746    5.6868   -1.6472 H         1 <0>         0.0000
     60 H22         1.0385   -0.0635    4.2096 H         1 <0>         0.0000
     61 H23         4.2527    0.1966    3.1108 H         1 <0>         0.0000
     62 H24         3.0542    0.6730    6.4100 H         1 <0>         0.0000
     63 H25         1.4425    1.3892    6.1810 H         1 <0>         0.0000
     64 H26         2.7148    1.6475    4.9690 H         1 <0>         0.0000
     65 H27         1.7759   -2.8557    8.4950 H         1 <0>         0.0000
     66 H28         1.7153   -4.1541    7.2716 H         1 <0>         0.0000
     67 H29         0.3387   -3.0315    7.4653 H         1 <0>         0.0000
     68 H30        11.2945   -4.3233    5.2855 H         1 <0>         0.0000
     69 H31        11.8401   -2.8129    4.5031 H         1 <0>         0.0000
     70 H32        11.2582   -4.1809    3.5047 H         1 <0>         0.0000
     71 H33         7.9079   -3.0407    5.4970 H         1 <0>         0.0000
@<TRIPOS>BOND
     1    1    3 ar
     2    1    6 ar
     3    1   39 1
     4    2    4 ar
     5    2    7 ar
     6    2   40 1
     7    3    8 ar
     8    3   41 1
     9    4   11 ar
    10    4   42 1
    11    5    6 ar
    12    5    9 ar
    13    5   43 1
    14    6   13 1
    15    7   10 ar
    16    7   29 1
    17    8    9 ar
    18    8   32 1
    19    9   37 1
    20   10   28 ar
    21   10   30 1
    22   11   28 ar
    23   11   32 1
    24   12   22 1
    25   12   29 am
    26   12   33 2
    27   13   31 am
    28   13   34 2
    29   14   15 1
    30   14   16 1
    31   14   44 1
    32   14   45 1
    33   15   17 1
    34   15   46 1
    35   15   47 1
    36   16   23 1
    37   16   48 1
    38   16   49 1
    39   17   23 1
    40   17   50 1
    41   17   51 1
    42   18   21 1
    43   18   24 1
    44   18   52 1
    45   18   53 1
    46   19   24 1
    47   19   31 1
    48   19   54 1
    49   19   55 1
    50   20   24 1
    51   20   31 1
    52   20   56 1
    53   20   57 1
    54   21   38 1
    55   21   58 1
    56   21   59 1
    57   22   25 1
    58   22   30 1
    59   22   60 1
    60   23   30 1
    61   23   61 1
    62   24   38 1
    63   25   62 1
    64   25   63 1
    65   25   64 1
    66   26   29 1
    67   26   65 1
    68   26   66 1
    69   26   67 1
    70   27   37 1
    71   27   68 1
    72   27   69 1
    73   27   70 1
    74   32   71 1
    75   35   38 2
    76   36   38 2
