@<TRIPOS>MOLECULE
*****
   49    50     0     0     0
SMALL
NO_CHARGES

@<TRIPOS>ATOM
      1 C1         -2.9747   -0.9563   -1.2663 C.2       1 <0>         0.0000
      2 C2         -1.9552    0.0143   -1.0325 C.2       1 <0>         0.0000
      3 C3         -0.9006   -0.5079   -0.3150 C.2       1 <0>         0.0000
      4 C4         -4.2205   -0.7876   -1.9742 C.2       1 <0>         0.0000
      5 C5         -2.6523   -2.1699   -0.7178 C.2       1 <0>         0.0000
      6 C6         -4.6781   -3.2366   -1.4491 C.2       1 <0>         0.0000
      7 C7         -2.0047    1.4235   -1.4976 C.3       1 <0>         0.0000
      8 C8         -5.4156   -3.1543   -4.7450 C.3       1 <0>         0.0000
      9 C9         -7.3832   -1.6102   -5.0075 C.3       1 <0>         0.0000
     10 C10         0.3438    0.1580    0.1309 C.3       1 <0>         0.0000
     11 C11        -6.2706   -1.8476   -2.7366 C.3       1 <0>         0.0000
     12 C12        -2.9944   -4.5651   -0.1463 C.3       1 <0>         0.0000
     13 C13         3.4976    1.2502   -1.5965 C.3       1 <0>         0.0000
     14 C14         2.5015    1.0186   -0.4728 C.3       1 <0>         0.0000
     15 C15        -6.0747   -1.8632   -4.2575 C.3       1 <0>         0.0000
     16 C16        -3.1531   -4.4935    1.3580 C.3       1 <0>         0.0000
     17 N1         -5.0011   -1.9672   -2.0254 N.am      1 <0>         0.0000
     18 N2         -3.4360   -3.3180   -0.7700 N.am      1 <0>         0.0000
     19 N3          4.6999    1.8892   -1.1329 N.3       1 <0>         0.0000
     20 N4          1.2906    0.3510   -0.9438 N.3       1 <0>         0.0000
     21 O1         -4.5488    0.2861   -2.4728 O.2       1 <0>         0.0000
     22 O2         -5.4396   -4.2070   -1.5375 O.2       1 <0>         0.0000
     23 F1         -2.4046   -5.4585    1.9485 F         1 <0>         0.0000
     24 F2         -4.4451   -4.7564    1.6815 F         1 <0>         0.0000
     25 S1         -1.1477   -2.1575    0.0701 S.3       1 <0>         0.0000
     26 H1         -2.4791    2.0656   -0.7420 H         1 <0>         0.0000
     27 H2         -0.9982    1.8189   -1.7000 H         1 <0>         0.0000
     28 H3         -2.5725    1.5208   -2.4351 H         1 <0>         0.0000
     29 H4         -6.0366   -4.0322   -4.5391 H         1 <0>         0.0000
     30 H5         -5.2473   -3.1142   -5.8267 H         1 <0>         0.0000
     31 H6         -4.4440   -3.3017   -4.2621 H         1 <0>         0.0000
     32 H7         -8.1203   -2.3967   -4.8146 H         1 <0>         0.0000
     33 H8         -7.2071   -1.5764   -6.0881 H         1 <0>         0.0000
     34 H9         -7.8219   -0.6515   -4.7114 H         1 <0>         0.0000
     35 H10         0.1412    1.1524    0.5634 H         1 <0>         0.0000
     36 H11         0.8639   -0.4180    0.9146 H         1 <0>         0.0000
     37 H12        -6.7593   -0.9199   -2.4199 H         1 <0>         0.0000
     38 H13        -6.9124   -2.6815   -2.4314 H         1 <0>         0.0000
     39 H14        -1.9427   -4.7388   -0.3961 H         1 <0>         0.0000
     40 H15        -3.5692   -5.4083   -0.5430 H         1 <0>         0.0000
     41 H16         3.0731    1.8830   -2.3824 H         1 <0>         0.0000
     42 H17         3.7926    0.2943   -2.0403 H         1 <0>         0.0000
     43 H18         2.9420    0.3788    0.2981 H         1 <0>         0.0000
     44 H19         2.1975    1.9623   -0.0085 H         1 <0>         0.0000
     45 H20        -5.3925   -1.0379   -4.5006 H         1 <0>         0.0000
     46 H21        -2.8787   -3.5206    1.7765 H         1 <0>         0.0000
     47 H22         5.3419    1.9820   -1.8935 H         1 <0>         0.0000
     48 H23         4.4769    2.7942   -0.7716 H         1 <0>         0.0000
     49 H24         1.5502   -0.5544   -1.3442 H         1 <0>         0.0000
@<TRIPOS>BOND
     1    1    2 1
     2    1    5 2
     3    1    4 1
     4    2    3 2
     5    2    7 1
     6    3   10 1
     7    3   25 1
     8    4   17 am
     9    4   21 2
    10    5   18 1
    11    5   25 1
    12    6   18 am
    13    6   17 am
    14    6   22 2
    15    7   26 1
    16    7   27 1
    17    7   28 1
    18    8   15 1
    19    8   29 1
    20    8   30 1
    21    8   31 1
    22    9   15 1
    23    9   32 1
    24    9   33 1
    25    9   34 1
    26   10   20 1
    27   10   35 1
    28   10   36 1
    29   11   15 1
    30   11   17 1
    31   11   37 1
    32   11   38 1
    33   12   16 1
    34   12   18 1
    35   12   39 1
    36   12   40 1
    37   13   14 1
    38   13   19 1
    39   13   41 1
    40   13   42 1
    41   14   20 1
    42   14   43 1
    43   14   44 1
    44   15   45 1
    45   16   23 1
    46   16   24 1
    47   16   46 1
    48   19   47 1
    49   19   48 1
    50   20   49 1
