@<TRIPOS>MOLECULE
*****
   33    35     0     0     0
SMALL
NO_CHARGES

@<TRIPOS>ATOM
      1 C1          2.0025   -4.7993    6.5507 C.ar      1 <0>         0.0000
      2 C2          0.1876   -1.9224    2.4405 C.ar      1 <0>         0.0000
      3 C3          1.2857   -5.8154    7.1877 C.ar      1 <0>         0.0000
      4 C4          1.0388   -1.4834    1.4170 C.ar      1 <0>         0.0000
      5 C5          1.9726   -4.7149    5.1594 C.ar      1 <0>         0.0000
      6 C6          0.2854   -3.2339    2.8939 C.ar      1 <0>         0.0000
      7 C7          0.5569   -6.7316    6.4254 C.ar      1 <0>         0.0000
      8 C8          1.9479   -2.3648    0.8406 C.ar      1 <0>         0.0000
      9 C9          1.2559   -5.6443    4.3855 C.ar      1 <0>         0.0000
     10 C10         1.2019   -4.1436    2.3324 C.ar      1 <0>         0.0000
     11 C11         0.5300   -6.6770    5.0238 C.ar      1 <0>         0.0000
     12 C12         2.0290   -3.6993    1.2764 C.ar      1 <0>         0.0000
     13 C13         1.3156   -5.5166    2.8977 C.2       1 <0>         0.0000
     14 C14         2.8004   -5.8503    0.2617 C.2       1 <0>         0.0000
     15 C15         1.5050   -6.4870    0.7503 C.3       1 <0>         0.0000
     16 C16        -0.2792   -7.7049    4.2669 C.3       1 <0>         0.0000
     17 N1          1.4774   -6.5869    2.2021 N.2       1 <0>         0.0000
     18 N2          2.9887   -4.5385    0.6790 N.am      1 <0>         0.0000
     19 O1          3.6261   -6.4152   -0.4394 O.2       1 <0>         0.0000
     20 H1          2.5749   -4.0791    7.1292 H         1 <0>         0.0000
     21 H2         -0.5336   -1.2430    2.8853 H         1 <0>         0.0000
     22 H3          1.2878   -5.8925    8.2721 H         1 <0>         0.0000
     23 H4          0.9870   -0.4574    1.0628 H         1 <0>         0.0000
     24 H5          2.5229   -3.9233    4.6587 H         1 <0>         0.0000
     25 H6         -0.3456   -3.5724    3.7101 H         1 <0>         0.0000
     26 H7         -0.0090   -7.5119    6.9292 H         1 <0>         0.0000
     27 H8          2.5984   -2.0305    0.0355 H         1 <0>         0.0000
     28 H9          0.6640   -5.8898    0.3644 H         1 <0>         0.0000
     29 H10         1.4571   -7.4867    0.3190 H         1 <0>         0.0000
     30 H11        -0.8510   -7.2532    3.4515 H         1 <0>         0.0000
     31 H12         0.3715   -8.4549    3.8098 H         1 <0>         0.0000
     32 H13        -0.9769   -8.2094    4.9417 H         1 <0>         0.0000
     33 H14         3.7737   -4.0872    0.2197 H         1 <0>         0.0000
@<TRIPOS>BOND
     1    1    3 ar
     2    1    5 ar
     3    1   20 1
     4    2    4 ar
     5    2    6 ar
     6    2   21 1
     7    3    7 ar
     8    3   22 1
     9    4    8 ar
    10    4   23 1
    11    5    9 ar
    12    5   24 1
    13    6   10 ar
    14    6   25 1
    15    7   11 ar
    16    7   26 1
    17    8   12 ar
    18    8   27 1
    19    9   11 ar
    20    9   13 1
    21   10   12 ar
    22   10   13 1
    23   11   16 1
    24   12   18 1
    25   13   17 2
    26   14   15 1
    27   14   18 am
    28   14   19 2
    29   15   17 1
    30   15   28 1
    31   15   29 1
    32   16   30 1
    33   16   31 1
    34   16   32 1
    35   18   33 1
