@<TRIPOS>MOLECULE
*****
   35    37     0     0     0
SMALL
NO_CHARGES

@<TRIPOS>ATOM
      1 C1          5.6359   -4.0414   -1.7475 C.ar      1 <0>         0.0000
      2 C2          5.3821   -2.7426   -1.2916 C.ar      1 <0>         0.0000
      3 C3          4.7061   -5.0544   -1.4936 C.ar      1 <0>         0.0000
      4 C4          0.7758    2.6676   -0.1384 C.ar      1 <0>         0.0000
      5 C5          1.3603    2.1947    1.0429 C.ar      1 <0>         0.0000
      6 C6          4.2073   -2.4628   -0.5889 C.ar      1 <0>         0.0000
      7 C7          3.5311   -4.7680   -0.7905 C.ar      1 <0>         0.0000
      8 C8         -0.0988    1.8530   -0.8632 C.ar      1 <0>         0.0000
      9 C9          1.0838    0.8981    1.4934 C.ar      1 <0>         0.0000
     10 C10         3.2662   -3.4712   -0.3284 C.ar      1 <0>         0.0000
     11 C11        -0.3902    0.5544   -0.4257 C.ar      1 <0>         0.0000
     12 C12         0.2249    0.0898    0.7537 C.ar      1 <0>         0.0000
     13 C13        -1.3389   -1.4928   -0.8163 C.2       1 <0>         0.0000
     14 C14        -0.3517   -2.1145    0.1575 C.3       1 <0>         0.0000
     15 C15         1.9765   -3.1437    0.3884 C.3       1 <0>         0.0000
     16 C16         0.9303   -2.5481   -0.5687 C.3       1 <0>         0.0000
     17 N1         -1.3248   -0.2390   -1.1141 N.2       1 <0>         0.0000
     18 N2         -2.1852   -2.3644   -1.4708 N.pl3     1 <0>         0.0000
     19 O1         -0.0735   -1.1785    1.2113 O.3       1 <0>         0.0000
     20 H1          6.5506   -4.2615   -2.2919 H         1 <0>         0.0000
     21 H2          6.1011   -1.9495   -1.4813 H         1 <0>         0.0000
     22 H3          4.8965   -6.0672   -1.8401 H         1 <0>         0.0000
     23 H4          0.9945    3.6723   -0.4896 H         1 <0>         0.0000
     24 H5          2.0333    2.8293    1.6131 H         1 <0>         0.0000
     25 H6          4.0164   -1.4510   -0.2357 H         1 <0>         0.0000
     26 H7          2.8132   -5.5624   -0.5943 H         1 <0>         0.0000
     27 H8         -0.5788    2.2078   -1.7711 H         1 <0>         0.0000
     28 H9          1.5252    0.5064    2.4058 H         1 <0>         0.0000
     29 H10        -0.7994   -2.9740    0.6679 H         1 <0>         0.0000
     30 H11         1.5681   -4.0465    0.8582 H         1 <0>         0.0000
     31 H12         2.1650   -2.4253    1.1919 H         1 <0>         0.0000
     32 H13         1.3552   -1.6817   -1.0861 H         1 <0>         0.0000
     33 H14         0.6646   -3.2768   -1.3426 H         1 <0>         0.0000
     34 H15        -2.9112   -1.9070   -2.0132 H         1 <0>         0.0000
     35 H16        -2.4982   -3.1765   -0.9533 H         1 <0>         0.0000
@<TRIPOS>BOND
     1    1    3 ar
     2    1    2 ar
     3    1   20 1
     4    2    6 ar
     5    2   21 1
     6    3    7 ar
     7    3   22 1
     8    4    5 ar
     9    4    8 ar
    10    4   23 1
    11    5    9 ar
    12    5   24 1
    13    6   10 ar
    14    6   25 1
    15    7   10 ar
    16    7   26 1
    17    8   11 ar
    18    8   27 1
    19    9   12 ar
    20    9   28 1
    21   10   15 1
    22   11   12 ar
    23   11   17 1
    24   12   19 1
    25   13   14 1
    26   13   17 2
    27   13   18 1
    28   14   16 1
    29   14   19 1
    30   14   29 1
    31   15   16 1
    32   15   30 1
    33   15   31 1
    34   16   32 1
    35   16   33 1
    36   18   34 1
    37   18   35 1
