@<TRIPOS>MOLECULE
*****
   45    47     0     0     0
SMALL
NO_CHARGES

@<TRIPOS>ATOM
      1 C1          1.0583   -5.4345   -2.5057 C.ar      1 <0>         0.0000
      2 C2          0.7551   -3.7730   -4.2082 C.ar      1 <0>         0.0000
      3 C3          3.4754   -4.6987   -5.2212 C.ar      1 <0>         0.0000
      4 C4          2.6982   -6.8987   -4.6057 C.ar      1 <0>         0.0000
      5 C5          0.0144   -4.8722   -1.7763 C.ar      1 <0>         0.0000
      6 C6         -0.2913   -3.2150   -3.4713 C.ar      1 <0>         0.0000
      7 C7          4.5125   -5.2621   -5.9676 C.ar      1 <0>         0.0000
      8 C8          3.7284   -7.4810   -5.3466 C.ar      1 <0>         0.0000
      9 C9          1.4528   -4.8963   -3.7412 C.ar      1 <0>         0.0000
     10 C10         2.5528   -5.5021   -4.5284 C.ar      1 <0>         0.0000
     11 C11        -0.6858   -3.7449   -2.2345 C.ar      1 <0>         0.0000
     12 C12         4.6196   -6.6482   -6.0158 C.ar      1 <0>         0.0000
     13 C13        -3.0372   -5.7219   -3.5975 C.2       1 <0>         0.0000
     14 C14        -1.0505   -0.6368   -0.1170 C.3       1 <0>         0.0000
     15 C15        -1.3841   -0.6880   -1.6136 C.3       1 <0>         0.0000
     16 C16        -0.5678   -2.0034    0.3855 C.3       1 <0>         0.0000
     17 C17        -2.3711   -1.8235   -1.9282 C.3       1 <0>         0.0000
     18 C18        -1.5899   -3.1004    0.0654 C.3       1 <0>         0.0000
     19 C19        -1.8935   -3.2156   -1.4498 C.3       1 <0>         0.0000
     20 C20        -3.0523   -4.2392   -1.6096 C.3       1 <0>         0.0000
     21 N1         -3.3884   -4.5492   -2.9913 N.am      1 <0>         0.0000
     22 O1         -2.5123   -6.6789   -3.0432 O.2       1 <0>         0.0000
     23 F1          5.6263   -7.2060   -6.7398 F         1 <0>         0.0000
     24 H1          1.5793   -6.2997   -2.1048 H         1 <0>         0.0000
     25 H2          1.0081   -3.3476   -5.1761 H         1 <0>         0.0000
     26 H3          3.3990   -3.6170   -5.1553 H         1 <0>         0.0000
     27 H4          1.9790   -7.5400   -4.1044 H         1 <0>         0.0000
     28 H5         -0.2649   -5.3437   -0.8396 H         1 <0>         0.0000
     29 H6         -0.8067   -2.3586   -3.8918 H         1 <0>         0.0000
     30 H7          5.2340   -4.6462   -6.4958 H         1 <0>         0.0000
     31 H8          3.8384   -8.5588   -5.4186 H         1 <0>         0.0000
     32 H9         -3.3002   -5.7273   -4.6726 H         1 <0>         0.0000
     33 H10        -1.9472   -0.3421    0.4458 H         1 <0>         0.0000
     34 H11        -0.2922    0.1311    0.0746 H         1 <0>         0.0000
     35 H12        -1.8125    0.2669   -1.9404 H         1 <0>         0.0000
     36 H13        -0.4581   -0.8285   -2.1813 H         1 <0>         0.0000
     37 H14         0.3916   -2.2521   -0.0843 H         1 <0>         0.0000
     38 H15        -0.3917   -1.9693    1.4668 H         1 <0>         0.0000
     39 H16        -3.3187   -1.6082   -1.4159 H         1 <0>         0.0000
     40 H17        -2.6044   -1.8314   -2.9992 H         1 <0>         0.0000
     41 H18        -1.2512   -4.0613    0.4635 H         1 <0>         0.0000
     42 H19        -2.5315   -2.8725    0.5842 H         1 <0>         0.0000
     43 H20        -3.9441   -3.8558   -1.0990 H         1 <0>         0.0000
     44 H21        -2.7806   -5.1871   -1.1423 H         1 <0>         0.0000
     45 H22        -3.7620   -3.8170   -3.5805 H         1 <0>         0.0000
@<TRIPOS>BOND
     1    1    5 ar
     2    1    9 ar
     3    1   24 1
     4    2    6 ar
     5    2    9 ar
     6    2   25 1
     7    3    7 ar
     8    3   10 ar
     9    3   26 1
    10    4    8 ar
    11    4   10 ar
    12    4   27 1
    13    5   11 ar
    14    5   28 1
    15    6   11 ar
    16    6   29 1
    17    7   12 ar
    18    7   30 1
    19    8   12 ar
    20    8   31 1
    21    9   10 1
    22   11   19 1
    23   12   23 1
    24   13   21 am
    25   13   22 2
    26   13   32 1
    27   14   16 1
    28   14   15 1
    29   14   33 1
    30   14   34 1
    31   15   17 1
    32   15   35 1
    33   15   36 1
    34   16   18 1
    35   16   37 1
    36   16   38 1
    37   17   19 1
    38   17   39 1
    39   17   40 1
    40   18   19 1
    41   18   41 1
    42   18   42 1
    43   19   20 1
    44   20   21 1
    45   20   43 1
    46   20   44 1
    47   21   45 1
