@<TRIPOS>MOLECULE
*****
   30    30     0     0     0
SMALL
NO_CHARGES

@<TRIPOS>ATOM
      1 C1          1.0049   -0.4164   -0.3138 C.2       1 <0>         0.0000
      2 C2          1.1173    1.8361    0.7706 C.2       1 <0>         0.0000
      3 C3         -0.4282   -0.8587    1.6653 C.3       1 <0>         0.0000
      4 C4          1.6794    0.4266    0.7838 C.3       1 <0>         0.0000
      5 C5         -0.1875   -1.2272    0.1970 C.3       1 <0>         0.0000
      6 C6         -2.5815   -1.9600   -0.3292 C.3       1 <0>         0.0000
      7 C7          1.6334    3.8355    3.9193 C.3       1 <0>         0.0000
      8 C8         -1.4134   -1.0461   -0.7129 C.3       1 <0>         0.0000
      9 C9          0.8096    4.2567    2.6975 C.3       1 <0>         0.0000
     10 C10         1.5569    4.0971    1.3780 C.3       1 <0>         0.0000
     11 O1          1.4176   -0.4411   -1.4544 O.2       1 <0>         0.0000
     12 O2         -0.0305    2.0985    0.4518 O.2       1 <0>         0.0000
     13 O3          2.0270    2.7300    1.1902 O.3       1 <0>         0.0000
     14 S1          1.2110   -0.3808    2.3659 S.3       1 <0>         0.0000
     15 H1         -1.1170   -0.0153    1.7535 H         1 <0>         0.0000
     16 H2         -0.8072   -1.6940    2.2563 H         1 <0>         0.0000
     17 H3          2.7628    0.4312    0.6652 H         1 <0>         0.0000
     18 H4          0.1409   -2.2747    0.1488 H         1 <0>         0.0000
     19 H5         -2.2868   -3.0154   -0.3625 H         1 <0>         0.0000
     20 H6         -3.4211   -1.8260   -1.0188 H         1 <0>         0.0000
     21 H7         -2.9494   -1.7477    0.6807 H         1 <0>         0.0000
     22 H8          1.8899    2.7732    3.8732 H         1 <0>         0.0000
     23 H9          2.5674    4.4057    3.9852 H         1 <0>         0.0000
     24 H10         1.0711    4.0051    4.8429 H         1 <0>         0.0000
     25 H11        -1.7223    0.0043   -0.6731 H         1 <0>         0.0000
     26 H12        -1.1005   -1.2461   -1.7426 H         1 <0>         0.0000
     27 H13         0.5259    5.3140    2.7773 H         1 <0>         0.0000
     28 H14        -0.1227    3.6857    2.6499 H         1 <0>         0.0000
     29 H15         0.9299    4.3713    0.5270 H         1 <0>         0.0000
     30 H16         2.4742    4.6901    1.3645 H         1 <0>         0.0000
@<TRIPOS>BOND
     1    1    4 1
     2    1    5 1
     3    1   11 2
     4    2    4 1
     5    2   12 2
     6    2   13 1
     7    3    5 1
     8    3   14 1
     9    3   15 1
    10    3   16 1
    11    4   14 1
    12    4   17 1
    13    5    8 1
    14    5   18 1
    15    6    8 1
    16    6   19 1
    17    6   20 1
    18    6   21 1
    19    7    9 1
    20    7   22 1
    21    7   23 1
    22    7   24 1
    23    8   25 1
    24    8   26 1
    25    9   10 1
    26    9   27 1
    27    9   28 1
    28   10   13 1
    29   10   29 1
    30   10   30 1
