@<TRIPOS>MOLECULE
*****
   22    23     0     0     0
SMALL
NO_CHARGES

@<TRIPOS>ATOM
      1 C1          1.9429   -0.9369   -0.1272 C.ar      1 <0>         0.0000
      2 C2          0.8010   -0.4376    0.5101 C.ar      1 <0>         0.0000
      3 C3          2.9548   -1.5401    0.6199 C.ar      1 <0>         0.0000
      4 C4          0.6807   -0.5251    1.8993 C.ar      1 <0>         0.0000
      5 C5          5.1113   -3.5813    4.0112 C.2       1 <0>         0.0000
      6 C6          5.9088   -2.6496    3.3014 C.2       1 <0>         0.0000
      7 C7          2.8436   -1.6476    2.0121 C.ar      1 <0>         0.0000
      8 C8          1.7077   -1.1143    2.6284 C.ar      1 <0>         0.0000
      9 C9          3.8058   -3.3068    3.6375 C.2       1 <0>         0.0000
     10 C10         2.5276   -3.9898    4.0084 C.3       1 <0>         0.0000
     11 N1          5.1736   -1.8486    2.5352 N.2       1 <0>         0.0000
     12 N2          3.8841   -2.2498    2.7605 N.pl3     1 <0>         0.0000
     13 F1          1.6045   -1.1513    3.9801 F         1 <0>         0.0000
     14 H1          2.0430   -0.8612   -1.2060 H         1 <0>         0.0000
     15 H2          0.0078    0.0264   -0.0690 H         1 <0>         0.0000
     16 H3          3.8504   -1.9296    0.1473 H         1 <0>         0.0000
     17 H4         -0.1807   -0.1284    2.4276 H         1 <0>         0.0000
     18 H5          5.4349   -4.3563    4.6932 H         1 <0>         0.0000
     19 H6          6.9852   -2.5273    3.3174 H         1 <0>         0.0000
     20 H7          1.9631   -3.4197    4.7515 H         1 <0>         0.0000
     21 H8          1.8812   -4.1289    3.1356 H         1 <0>         0.0000
     22 H9          2.7498   -4.9741    4.4266 H         1 <0>         0.0000
@<TRIPOS>BOND
     1    1    2 ar
     2    1    3 ar
     3    1   14 1
     4    2    4 ar
     5    2   15 1
     6    3    7 ar
     7    3   16 1
     8    4    8 ar
     9    4   17 1
    10    5    6 1
    11    5    9 2
    12    5   18 1
    13    6   11 2
    14    6   19 1
    15    7    8 ar
    16    7   12 1
    17    8   13 1
    18    9   10 1
    19    9   12 1
    20   10   20 1
    21   10   21 1
    22   10   22 1
    23   11   12 1
