@<TRIPOS>MOLECULE
*****
   14    14     0     0     0
SMALL
NO_CHARGES

@<TRIPOS>ATOM
      1 C1         -1.0492   -0.0326   -0.8201 C.3       1 <0>         0.0000
      2 C2          0.2901    0.5473   -1.1817 C.3       1 <0>         0.0000
      3 C3          0.0733   -0.0513    0.1817 C.3       1 <0>         0.0000
      4 C4          0.7330   -1.3379    0.5460 C.3       1 <0>         0.0000
      5 O1         -0.0308    0.8822    1.2696 O.3       1 <0>         0.0000
      6 O2          2.0949   -1.1013    0.9015 O.3       1 <0>         0.0000
      7 H1         -1.8694    0.6568   -0.6589 H         1 <0>         0.0000
      8 H2         -1.3370   -0.9640   -1.2926 H         1 <0>         0.0000
      9 H3          0.8963    0.0033   -1.8960 H         1 <0>         0.0000
     10 H4          0.3668    1.6249   -1.2622 H         1 <0>         0.0000
     11 H5          0.7234   -2.0517   -0.2940 H         1 <0>         0.0000
     12 H6          0.2391   -1.8191    1.4059 H         1 <0>         0.0000
     13 H7          0.8047    1.3677    1.2820 H         1 <0>         0.0000
     14 H8          2.0794   -0.4964    1.6586 H         1 <0>         0.0000
@<TRIPOS>BOND
     1    1    2 1
     2    1    3 1
     3    1    7 1
     4    1    8 1
     5    2    3 1
     6    2    9 1
     7    2   10 1
     8    3    4 1
     9    3    5 1
    10    4    6 1
    11    4   11 1
    12    4   12 1
    13    5   13 1
    14    6   14 1
