@<TRIPOS>MOLECULE
*****
   55    56     0     0     0
SMALL
NO_CHARGES

@<TRIPOS>ATOM
      1 C1         -1.3309    2.9675   -0.8957 C.ar      1 <0>         0.0000
      2 C2         -0.4300    3.3907    0.0803 C.ar      1 <0>         0.0000
      3 C3         -1.4193    1.6152   -1.2265 C.ar      1 <0>         0.0000
      4 C4          0.3784    2.4609    0.7342 C.ar      1 <0>         0.0000
      5 C5         -0.6045    0.6862   -0.5718 C.ar      1 <0>         0.0000
      6 C6          0.2820    1.1038    0.4188 C.ar      1 <0>         0.0000
      7 C7         -0.6546   -0.7419   -0.9433 C.2       1 <0>         0.0000
      8 C8          0.4149   -1.6471   -0.3266 C.3       1 <0>         0.0000
      9 C9          0.7234   -1.1340    1.1206 C.3       1 <0>         0.0000
     10 C10        -1.6556   -0.5721    1.6432 C.3       1 <0>         0.0000
     11 C11         2.2134   -1.3430    3.1169 C.3       1 <0>         0.0000
     12 C12         4.0404    1.6563   -2.3034 C.3       1 <0>         0.0000
     13 C13        -0.1021   -5.9458   -3.3627 C.3       1 <0>         0.0000
     14 C14         1.6413   -1.5632   -1.2611 C.3       1 <0>         0.0000
     15 C15        -0.1010   -3.0995   -0.3427 C.3       1 <0>         0.0000
     16 C16        -0.4532   -1.3142    2.1062 C.3       1 <0>         0.0000
     17 C17         1.9411   -1.8474    1.7438 C.3       1 <0>         0.0000
     18 C18         2.1667   -0.1480   -1.3225 C.3       1 <0>         0.0000
     19 C19         0.1176   -3.7290   -1.6997 C.3       1 <0>         0.0000
     20 O1         -1.4909   -1.1378   -1.7488 O.2       1 <0>         0.0000
     21 O2          4.6253   -0.8529   -1.8622 O.2       1 <0>         0.0000
     22 O3          3.0748   -0.2800   -3.7700 O.2       1 <0>         0.0000
     23 O4          0.2761   -6.1729   -0.7862 O.2       1 <0>         0.0000
     24 O5         -1.9503   -5.3259   -1.6213 O.2       1 <0>         0.0000
     25 O6          1.1032    0.2607    1.1124 O.3       1 <0>         0.0000
     26 S1          3.5484   -0.0490   -2.4156 S.o2      1 <0>         0.0000
     27 S2         -0.5017   -5.3811   -1.7243 S.o2      1 <0>         0.0000
     28 H1         -1.9600    3.6925   -1.4040 H         1 <0>         0.0000
     29 H2         -0.3583    4.4446    0.3327 H         1 <0>         0.0000
     30 H3         -2.1174    1.3088   -2.0006 H         1 <0>         0.0000
     31 H4          1.0753    2.8008    1.4959 H         1 <0>         0.0000
     32 H5         -1.4106    0.4942    1.5727 H         1 <0>         0.0000
     33 H6         -2.4862   -0.6837    2.3482 H         1 <0>         0.0000
     34 H7         -1.9749   -0.9135    0.6529 H         1 <0>         0.0000
     35 H8          2.4171   -0.2668    3.0688 H         1 <0>         0.0000
     36 H9          3.0893   -1.8351    3.5527 H         1 <0>         0.0000
     37 H10         1.3500   -1.4963    3.7729 H         1 <0>         0.0000
     38 H11         4.9009    1.8101   -2.9564 H         1 <0>         0.0000
     39 H12         3.2025    2.2781   -2.6220 H         1 <0>         0.0000
     40 H13         4.3038    1.8711   -1.2667 H         1 <0>         0.0000
     41 H14        -0.4535   -6.9734   -3.4680 H         1 <0>         0.0000
     42 H15        -0.6012   -5.2953   -4.0824 H         1 <0>         0.0000
     43 H16         0.9805   -5.8970   -3.4892 H         1 <0>         0.0000
     44 H17         1.3400   -1.9110   -2.2475 H         1 <0>         0.0000
     45 H18         2.4012   -2.2458   -0.8850 H         1 <0>         0.0000
     46 H19        -1.1594   -3.0888   -0.0852 H         1 <0>         0.0000
     47 H20         0.4228   -3.6568    0.4331 H         1 <0>         0.0000
     48 H21        -0.6700   -2.3768    2.1847 H         1 <0>         0.0000
     49 H22        -0.1367   -0.9528    3.0817 H         1 <0>         0.0000
     50 H23         1.7358   -2.9158    1.7679 H         1 <0>         0.0000
     51 H24         2.8026   -1.6771    1.1014 H         1 <0>         0.0000
     52 H25         1.4124    0.5489   -1.6998 H         1 <0>         0.0000
     53 H26         2.5102    0.2002   -0.3438 H         1 <0>         0.0000
     54 H27        -0.4060   -3.1815   -2.4892 H         1 <0>         0.0000
     55 H28         1.1803   -3.7840   -1.9542 H         1 <0>         0.0000
@<TRIPOS>BOND
     1    1    2 ar
     2    1    3 ar
     3    1   28 1
     4    2    4 ar
     5    2   29 1
     6    3    5 ar
     7    3   30 1
     8    4    6 ar
     9    4   31 1
    10    5    6 ar
    11    5    7 1
    12    6   25 1
    13    7    8 1
    14    7   20 2
    15    8    9 1
    16    8   14 1
    17    8   15 1
    18    9   16 1
    19    9   17 1
    20    9   25 1
    21   10   16 1
    22   10   32 1
    23   10   33 1
    24   10   34 1
    25   11   17 1
    26   11   35 1
    27   11   36 1
    28   11   37 1
    29   12   26 1
    30   12   38 1
    31   12   39 1
    32   12   40 1
    33   13   27 1
    34   13   41 1
    35   13   42 1
    36   13   43 1
    37   14   18 1
    38   14   44 1
    39   14   45 1
    40   15   19 1
    41   15   46 1
    42   15   47 1
    43   16   48 1
    44   16   49 1
    45   17   50 1
    46   17   51 1
    47   18   26 1
    48   18   52 1
    49   18   53 1
    50   19   27 1
    51   19   54 1
    52   19   55 1
    53   21   26 2
    54   22   26 2
    55   23   27 2
    56   24   27 2
