@<TRIPOS>MOLECULE
*****
   37    39     0     0     0
SMALL
NO_CHARGES

@<TRIPOS>ATOM
      1 C1         -0.4456   -6.9238   -8.6372 C.1       1 <0>         0.0000
      2 C2          0.0681   -7.2925   -7.6013 C.1       1 <0>         0.0000
      3 C3          0.8824   -1.0556    1.5674 C.ar      1 <0>         0.0000
      4 C4          0.0950   -0.9466    0.4144 C.ar      1 <0>         0.0000
      5 C5          1.9700   -9.3305   -5.1185 C.ar      1 <0>         0.0000
      6 C6          1.3933   -8.9360   -6.3244 C.ar      1 <0>         0.0000
      7 C7          1.5280   -2.2591    1.8502 C.ar      1 <0>         0.0000
      8 C8         -0.0304   -2.0419   -0.4392 C.ar      1 <0>         0.0000
      9 C9          1.8538   -8.5581   -3.9595 C.ar      1 <0>         0.0000
     10 C10         0.5530   -6.9451   -5.2195 C.ar      1 <0>         0.0000
     11 C11         0.6742   -7.7275   -6.3780 C.ar      1 <0>         0.0000
     12 C12         1.4112   -3.3644    0.9940 C.ar      1 <0>         0.0000
     13 C13         0.6266   -3.2492   -0.1623 C.ar      1 <0>         0.0000
     14 C14         1.1373   -7.3494   -4.0091 C.ar      1 <0>         0.0000
     15 C15         1.3828   -6.6831   -1.5953 C.2       1 <0>         0.0000
     16 C16         2.0893   -4.6779    1.3077 C.3       1 <0>         0.0000
     17 C17         0.4794   -4.3874   -1.1580 C.3       1 <0>         0.0000
     18 C18         1.3121   -5.8380    0.6937 C.3       1 <0>         0.0000
     19 N1          1.1455   -5.6172   -0.7433 N.am      1 <0>         0.0000
     20 N2          0.9690   -6.4851   -2.9076 N.am      1 <0>         0.0000
     21 O1          1.9279   -7.7210   -1.2159 O.2       1 <0>         0.0000
     22 H1         -0.8965   -6.6036   -9.5524 H         1 <0>         0.0000
     23 H2          0.9838   -0.2103    2.2428 H         1 <0>         0.0000
     24 H3         -0.4192   -0.0168    0.1864 H         1 <0>         0.0000
     25 H4          2.5255  -10.2634   -5.0704 H         1 <0>         0.0000
     26 H5          1.4893   -9.5440   -7.2182 H         1 <0>         0.0000
     27 H6          2.1298   -2.3515    2.7520 H         1 <0>         0.0000
     28 H7         -0.6450   -1.9592   -1.3343 H         1 <0>         0.0000
     29 H8          2.2986   -8.8769   -3.0278 H         1 <0>         0.0000
     30 H9         -0.0041   -6.0123   -5.2734 H         1 <0>         0.0000
     31 H10         3.1114   -4.6844    0.9090 H         1 <0>         0.0000
     32 H11         2.1639   -4.8143    2.3918 H         1 <0>         0.0000
     33 H12        -0.5946   -4.5583   -1.3411 H         1 <0>         0.0000
     34 H13         0.9230   -4.0434   -2.1002 H         1 <0>         0.0000
     35 H14         1.8362   -6.7837    0.8171 H         1 <0>         0.0000
     36 H15         0.3264   -5.9238    1.1736 H         1 <0>         0.0000
     37 H16         0.4241   -5.6606   -3.1109 H         1 <0>         0.0000
@<TRIPOS>BOND
     1    1    2 3
     2    1   22 1
     3    2   11 1
     4    3    4 ar
     5    3    7 ar
     6    3   23 1
     7    4    8 ar
     8    4   24 1
     9    5    6 ar
    10    5    9 ar
    11    5   25 1
    12    6   11 ar
    13    6   26 1
    14    7   12 ar
    15    7   27 1
    16    8   13 ar
    17    8   28 1
    18    9   14 ar
    19    9   29 1
    20   10   11 ar
    21   10   14 ar
    22   10   30 1
    23   12   13 ar
    24   12   16 1
    25   13   17 1
    26   14   20 1
    27   15   19 am
    28   15   20 am
    29   15   21 2
    30   16   18 1
    31   16   31 1
    32   16   32 1
    33   17   19 1
    34   17   33 1
    35   17   34 1
    36   18   19 1
    37   18   35 1
    38   18   36 1
    39   20   37 1
