@<TRIPOS>MOLECULE
*****
   37    39     0     0     0
SMALL
NO_CHARGES

@<TRIPOS>ATOM
      1 C1          1.8718   -6.5727  -11.0642 C.1       1 <0>         0.0000
      2 C2          2.6068   -6.5827  -10.0988 C.1       1 <0>         0.0000
      3 C3          1.8491   -1.3148    0.3471 C.ar      1 <0>         0.0000
      4 C4          0.8347   -0.9280   -0.5374 C.ar      1 <0>         0.0000
      5 C5          5.5765   -7.2271   -7.9382 C.ar      1 <0>         0.0000
      6 C6          4.7380   -7.2219   -9.0523 C.ar      1 <0>         0.0000
      7 C7          2.6906   -2.3741    0.0081 C.ar      1 <0>         0.0000
      8 C8          0.6795   -1.6045   -1.7468 C.ar      1 <0>         0.0000
      9 C9          5.1751   -6.6252   -6.7465 C.ar      1 <0>         0.0000
     10 C10         3.0679   -5.9870   -7.7643 C.ar      1 <0>         0.0000
     11 C11         3.4798   -6.5994   -8.9619 C.ar      1 <0>         0.0000
     12 C12         2.5404   -3.0589   -1.2071 C.ar      1 <0>         0.0000
     13 C13         1.5263   -2.6668   -2.0951 C.ar      1 <0>         0.0000
     14 C14         3.9178   -6.0003   -6.6496 C.ar      1 <0>         0.0000
     15 C15         2.4807   -4.6440   -5.0936 C.2       1 <0>         0.0000
     16 C16         3.4632   -4.2062   -1.5622 C.3       1 <0>         0.0000
     17 C17         1.2970   -3.3704   -3.4186 C.3       1 <0>         0.0000
     18 C18         2.8388   -5.0970   -2.6340 C.3       1 <0>         0.0000
     19 N1          2.3993   -4.2687   -3.7588 N.am      1 <0>         0.0000
     20 N2          3.5802   -5.4379   -5.4019 N.am      1 <0>         0.0000
     21 O1          1.6668   -4.2609   -5.9322 O.2       1 <0>         0.0000
     22 H1          1.2205   -6.5588  -11.9120 H         1 <0>         0.0000
     23 H2          1.9790   -0.7960    1.2933 H         1 <0>         0.0000
     24 H3          0.1720   -0.1042   -0.2855 H         1 <0>         0.0000
     25 H4          6.5517   -7.7032   -7.9940 H         1 <0>         0.0000
     26 H5          5.0428   -7.6878   -9.9839 H         1 <0>         0.0000
     27 H6          3.4759   -2.6816    0.6961 H         1 <0>         0.0000
     28 H7         -0.1067   -1.3032   -2.4367 H         1 <0>         0.0000
     29 H8          5.8393   -6.6396   -5.8839 H         1 <0>         0.0000
     30 H9          2.1068   -5.4967   -7.7070 H         1 <0>         0.0000
     31 H10         4.4177   -3.8128   -1.9350 H         1 <0>         0.0000
     32 H11         3.6863   -4.8014   -0.6695 H         1 <0>         0.0000
     33 H12         0.3480   -3.9284   -3.3827 H         1 <0>         0.0000
     34 H13         1.1950   -2.6412   -4.2230 H         1 <0>         0.0000
     35 H14         3.5423   -5.8612   -2.9644 H         1 <0>         0.0000
     36 H15         1.9707   -5.6309   -2.2176 H         1 <0>         0.0000
     37 H16         4.3219   -5.4690   -4.7172 H         1 <0>         0.0000
@<TRIPOS>BOND
     1    1    2 3
     2    1   22 1
     3    2   11 1
     4    3    4 ar
     5    3    7 ar
     6    3   23 1
     7    4    8 ar
     8    4   24 1
     9    5    6 ar
    10    5    9 ar
    11    5   25 1
    12    6   11 ar
    13    6   26 1
    14    7   12 ar
    15    7   27 1
    16    8   13 ar
    17    8   28 1
    18    9   14 ar
    19    9   29 1
    20   10   11 ar
    21   10   14 ar
    22   10   30 1
    23   12   13 ar
    24   12   16 1
    25   13   17 1
    26   14   20 1
    27   15   19 am
    28   15   20 am
    29   15   21 2
    30   16   18 1
    31   16   31 1
    32   16   32 1
    33   17   19 1
    34   17   33 1
    35   17   34 1
    36   18   19 1
    37   18   35 1
    38   18   36 1
    39   20   37 1
