@<TRIPOS>MOLECULE
*****
   31    32     0     0     0
SMALL
NO_CHARGES

@<TRIPOS>ATOM
      1 C1          2.4046   -3.4832   -1.8575 C.ar      1 <0>         0.0000
      2 C2          2.5145   -2.2690   -1.1764 C.ar      1 <0>         0.0000
      3 C3          2.3195   -3.5169   -3.2531 C.ar      1 <0>         0.0000
      4 C4          2.4535   -1.0812   -3.2812 C.ar      1 <0>         0.0000
      5 C5          2.5365   -1.0572   -1.8832 C.ar      1 <0>         0.0000
      6 C6          2.3494   -2.3054   -3.9340 C.ar      1 <0>         0.0000
      7 C7          1.7661    0.3005    0.1033 C.2       1 <0>         0.0000
      8 C8         -0.1988    0.4548   -1.4041 C.3       1 <0>         0.0000
      9 C9         -0.4039    0.3771    1.1463 C.3       1 <0>         0.0000
     10 C10        -1.6984    0.7182   -1.4483 C.3       1 <0>         0.0000
     11 C11        -0.7586   -1.0705    1.5021 C.3       1 <0>         0.0000
     12 C12         2.6470    0.2657   -1.1438 C.3       1 <0>         0.0000
     13 N1          0.4150    0.4992   -0.0619 N.am      1 <0>         0.0000
     14 O1          2.2660    0.1312    1.2189 O.2       1 <0>         0.0000
     15 F1          2.2659   -2.3107   -5.2910 F         1 <0>         0.0000
     16 S1         -2.7938   -0.5954   -0.6969 S.3       1 <0>         0.0000
     17 S2         -1.4399   -1.9903    0.0629 S.3       1 <0>         0.0000
     18 H1          2.3813   -4.4150   -1.2991 H         1 <0>         0.0000
     19 H2          2.5798   -2.2570   -0.0922 H         1 <0>         0.0000
     20 H3          2.2297   -4.4479   -3.8041 H         1 <0>         0.0000
     21 H4          2.4622   -0.1657   -3.8665 H         1 <0>         0.0000
     22 H5          0.0002   -0.5113   -1.8746 H         1 <0>         0.0000
     23 H6          0.2651    1.2273   -2.0268 H         1 <0>         0.0000
     24 H7         -1.3173    0.9573    1.0185 H         1 <0>         0.0000
     25 H8          0.1571    0.8131    1.9742 H         1 <0>         0.0000
     26 H9         -1.9525    1.6609   -0.9557 H         1 <0>         0.0000
     27 H10        -1.9830    0.7967   -2.5009 H         1 <0>         0.0000
     28 H11         0.1407   -1.6215    1.7919 H         1 <0>         0.0000
     29 H12        -1.4723   -1.0868    2.3308 H         1 <0>         0.0000
     30 H13         3.6680    0.4058   -0.7799 H         1 <0>         0.0000
     31 H14         2.4202    1.0931   -1.8220 H         1 <0>         0.0000
@<TRIPOS>BOND
     1    1    2 ar
     2    1    3 ar
     3    1   18 1
     4    2    5 ar
     5    2   19 1
     6    3    6 ar
     7    3   20 1
     8    4    5 ar
     9    4    6 ar
    10    4   21 1
    11    5   12 1
    12    6   15 1
    13    7   12 1
    14    7   13 am
    15    7   14 2
    16    8   10 1
    17    8   13 1
    18    8   22 1
    19    8   23 1
    20    9   11 1
    21    9   13 1
    22    9   24 1
    23    9   25 1
    24   10   16 1
    25   10   26 1
    26   10   27 1
    27   11   17 1
    28   11   28 1
    29   11   29 1
    30   12   30 1
    31   12   31 1
    32   16   17 1
