@<TRIPOS>MOLECULE
*****
   31    32     0     0     0
SMALL
NO_CHARGES

@<TRIPOS>ATOM
      1 C1          2.0164    3.2652   -4.2671 C.ar      1 <0>         0.0000
      2 C2          2.1046    2.5557   -3.0674 C.ar      1 <0>         0.0000
      3 C3          1.4943    2.6653   -5.4184 C.ar      1 <0>         0.0000
      4 C4          1.1455    0.6145   -4.1434 C.ar      1 <0>         0.0000
      5 C5          1.6678    1.2240   -2.9950 C.ar      1 <0>         0.0000
      6 C6          1.0705    1.3448   -5.3258 C.ar      1 <0>         0.0000
      7 C7          1.3901    1.2604   -0.4640 C.2       1 <0>         0.0000
      8 C8         -0.2598    2.1894    1.0357 C.3       1 <0>         0.0000
      9 C9         -1.0270    1.0672   -1.0817 C.3       1 <0>         0.0000
     10 C10        -0.0536    1.2958    2.2662 C.3       1 <0>         0.0000
     11 C11        -1.9484   -0.0190   -0.4730 C.3       1 <0>         0.0000
     12 C12         1.7778    0.4456   -1.6966 C.3       1 <0>         0.0000
     13 N1          0.0619    1.5078   -0.2219 N.am      1 <0>         0.0000
     14 O1          2.2643    1.6913    0.2933 O.2       1 <0>         0.0000
     15 F1          0.5587    0.7393   -6.4298 F         1 <0>         0.0000
     16 S1         -1.2872   -0.0468    2.4648 S.3       1 <0>         0.0000
     17 S2         -1.1030   -1.1522    0.6943 S.3       1 <0>         0.0000
     18 H1          2.3581    4.2958   -4.3112 H         1 <0>         0.0000
     19 H2          2.5156    3.0321   -2.1816 H         1 <0>         0.0000
     20 H3          1.4152    3.1966   -6.3617 H         1 <0>         0.0000
     21 H4          0.8008   -0.4163   -4.1327 H         1 <0>         0.0000
     22 H5         -1.2958    2.5343    0.9818 H         1 <0>         0.0000
     23 H6          0.3928    3.0618    1.1325 H         1 <0>         0.0000
     24 H7         -0.6052    0.7089   -2.0162 H         1 <0>         0.0000
     25 H8         -1.6443    1.9360   -1.3436 H         1 <0>         0.0000
     26 H9          0.9545    0.8814    2.2635 H         1 <0>         0.0000
     27 H10        -0.1752    1.8944    3.1767 H         1 <0>         0.0000
     28 H11        -2.7870    0.4246    0.0677 H         1 <0>         0.0000
     29 H12        -2.3622   -0.6386   -1.2761 H         1 <0>         0.0000
     30 H13         1.1936   -0.4777   -1.7495 H         1 <0>         0.0000
     31 H14         2.8192    0.1612   -1.5262 H         1 <0>         0.0000
@<TRIPOS>BOND
     1    1    2 ar
     2    1    3 ar
     3    1   18 1
     4    2    5 ar
     5    2   19 1
     6    3    6 ar
     7    3   20 1
     8    4    5 ar
     9    4    6 ar
    10    4   21 1
    11    5   12 1
    12    6   15 1
    13    7   12 1
    14    7   13 am
    15    7   14 2
    16    8   10 1
    17    8   13 1
    18    8   22 1
    19    8   23 1
    20    9   11 1
    21    9   13 1
    22    9   24 1
    23    9   25 1
    24   10   16 1
    25   10   26 1
    26   10   27 1
    27   11   17 1
    28   11   28 1
    29   11   29 1
    30   12   30 1
    31   12   31 1
    32   16   17 1
