@<TRIPOS>MOLECULE
*****
   37    39     0     0     0
SMALL
NO_CHARGES

@<TRIPOS>ATOM
      1 C1          0.9682   -1.5913   11.3195 C.1       1 <0>         0.0000
      2 C2          1.4801   -2.3972   10.5707 C.1       1 <0>         0.0000
      3 C3          1.8457   -0.3523    0.8960 C.ar      1 <0>         0.0000
      4 C4          0.4609   -0.3166    1.0979 C.ar      1 <0>         0.0000
      5 C5          3.6766   -5.1324    9.3074 C.ar      1 <0>         0.0000
      6 C6          3.0925   -4.2108   10.1756 C.ar      1 <0>         0.0000
      7 C7          2.5999   -1.3766    1.4690 C.ar      1 <0>         0.0000
      8 C8         -0.1485   -1.3058    1.8702 C.ar      1 <0>         0.0000
      9 C9          3.2750   -5.2027    7.9744 C.ar      1 <0>         0.0000
     10 C10         1.6781   -3.4152    8.3477 C.ar      1 <0>         0.0000
     11 C11         2.0905   -3.3506    9.6912 C.ar      1 <0>         0.0000
     12 C12         1.9944   -2.3751    2.2458 C.ar      1 <0>         0.0000
     13 C13         0.6045   -2.3355    2.4497 C.ar      1 <0>         0.0000
     14 C14         2.2729   -4.3449    7.4834 C.ar      1 <0>         0.0000
     15 C15         0.9193   -3.8417    5.4243 C.2       1 <0>         0.0000
     16 C16         2.8371   -3.4742    2.8674 C.3       1 <0>         0.0000
     17 C17        -0.1036   -3.4037    3.2688 C.3       1 <0>         0.0000
     18 C18         1.9624   -4.6592    3.2835 C.3       1 <0>         0.0000
     19 N1          0.8210   -4.1984    4.0790 N.am      1 <0>         0.0000
     20 N2          1.9454   -4.4691    6.1176 N.am      1 <0>         0.0000
     21 O1          0.1314   -3.0632    5.9585 O.2       1 <0>         0.0000
     22 H1          0.5123   -0.8796   11.9743 H         1 <0>         0.0000
     23 H2          2.3324    0.4132    0.2972 H         1 <0>         0.0000
     24 H3         -0.1367    0.4795    0.6615 H         1 <0>         0.0000
     25 H4          4.4509   -5.8041    9.6681 H         1 <0>         0.0000
     26 H5          3.3988   -4.1496   11.2150 H         1 <0>         0.0000
     27 H6          3.6766   -1.4072    1.3117 H         1 <0>         0.0000
     28 H7         -1.2237   -1.2751    2.0366 H         1 <0>         0.0000
     29 H8          3.7399   -5.9277    7.3083 H         1 <0>         0.0000
     30 H9          0.9027   -2.7574    7.9832 H         1 <0>         0.0000
     31 H10         3.6074   -3.8051    2.1612 H         1 <0>         0.0000
     32 H11         3.3601   -3.0862    3.7510 H         1 <0>         0.0000
     33 H12        -0.8314   -2.9486    3.9390 H         1 <0>         0.0000
     34 H13        -0.6433   -4.0865    2.5993 H         1 <0>         0.0000
     35 H14         1.5523   -5.1537    2.3962 H         1 <0>         0.0000
     36 H15         2.5428   -5.4236    3.8055 H         1 <0>         0.0000
     37 H16         2.4541   -5.1952    5.6363 H         1 <0>         0.0000
@<TRIPOS>BOND
     1    1    2 3
     2    1   22 1
     3    2   11 1
     4    3    4 ar
     5    3    7 ar
     6    3   23 1
     7    4    8 ar
     8    4   24 1
     9    5    6 ar
    10    5    9 ar
    11    5   25 1
    12    6   11 ar
    13    6   26 1
    14    7   12 ar
    15    7   27 1
    16    8   13 ar
    17    8   28 1
    18    9   14 ar
    19    9   29 1
    20   10   11 ar
    21   10   14 ar
    22   10   30 1
    23   12   13 ar
    24   12   16 1
    25   13   17 1
    26   14   20 1
    27   15   19 am
    28   15   20 am
    29   15   21 2
    30   16   18 1
    31   16   31 1
    32   16   32 1
    33   17   19 1
    34   17   33 1
    35   17   34 1
    36   18   19 1
    37   18   35 1
    38   18   36 1
    39   20   37 1
