@<TRIPOS>MOLECULE
*****
   31    32     0     0     0
SMALL
NO_CHARGES

@<TRIPOS>ATOM
      1 C1         -1.3812    0.6692   -4.6019 C.ar      1 <0>         0.0000
      2 C2         -1.9251    1.0170   -3.3611 C.ar      1 <0>         0.0000
      3 C3         -1.0140   -0.6520   -4.8704 C.ar      1 <0>         0.0000
      4 C4         -1.7555   -1.2823   -2.6321 C.ar      1 <0>         0.0000
      5 C5         -2.1112    0.0481   -2.3667 C.ar      1 <0>         0.0000
      6 C6         -1.2164   -1.6011   -3.8716 C.ar      1 <0>         0.0000
      7 C7         -1.8736   -0.2123    0.1446 C.2       1 <0>         0.0000
      8 C8          0.1228   -0.4271    1.4912 C.3       1 <0>         0.0000
      9 C9          0.1053    1.2621   -0.3609 C.3       1 <0>         0.0000
     10 C10         0.5711   -1.8645    1.2035 C.3       1 <0>         0.0000
     11 C11         1.0929    0.7422   -1.4140 C.3       1 <0>         0.0000
     12 C12        -2.6619    0.4198   -1.0037 C.3       1 <0>         0.0000
     13 N1         -0.6021    0.2313    0.4008 N.am      1 <0>         0.0000
     14 O1         -2.3765   -1.1191    0.8143 O.2       1 <0>         0.0000
     15 F1         -0.8658   -2.8880   -4.1167 F         1 <0>         0.0000
     16 S1          1.3357   -2.1145   -0.4523 S.3       1 <0>         0.0000
     17 S2          2.4160   -0.3530   -0.7583 S.3       1 <0>         0.0000
     18 H1         -1.2364    1.4309   -5.3632 H         1 <0>         0.0000
     19 H2         -2.1967    2.0512   -3.1630 H         1 <0>         0.0000
     20 H3         -0.5826   -0.9490   -5.8212 H         1 <0>         0.0000
     21 H4         -1.8696   -2.0577   -1.8811 H         1 <0>         0.0000
     22 H5         -0.5166   -0.4501    2.3790 H         1 <0>         0.0000
     23 H6          0.9980    0.1851    1.7124 H         1 <0>         0.0000
     24 H7          0.6407    1.8964    0.3537 H         1 <0>         0.0000
     25 H8         -0.6223    1.9015   -0.8634 H         1 <0>         0.0000
     26 H9          1.2694   -2.1782    1.9846 H         1 <0>         0.0000
     27 H10        -0.2904   -2.5362    1.2049 H         1 <0>         0.0000
     28 H11         0.5795    0.2076   -2.2121 H         1 <0>         0.0000
     29 H12         1.6174    1.5972   -1.8566 H         1 <0>         0.0000
     30 H13        -2.7092    1.5082   -0.9017 H         1 <0>         0.0000
     31 H14        -3.6791    0.0372   -0.8891 H         1 <0>         0.0000
@<TRIPOS>BOND
     1    1    2 ar
     2    1    3 ar
     3    1   18 1
     4    2    5 ar
     5    2   19 1
     6    3    6 ar
     7    3   20 1
     8    4    5 ar
     9    4    6 ar
    10    4   21 1
    11    5   12 1
    12    6   15 1
    13    7   12 1
    14    7   13 am
    15    7   14 2
    16    8   10 1
    17    8   13 1
    18    8   22 1
    19    8   23 1
    20    9   11 1
    21    9   13 1
    22    9   24 1
    23    9   25 1
    24   10   16 1
    25   10   26 1
    26   10   27 1
    27   11   17 1
    28   11   28 1
    29   11   29 1
    30   12   30 1
    31   12   31 1
    32   16   17 1
