@<TRIPOS>MOLECULE
*****
   31    32     0     0     0
SMALL
NO_CHARGES

@<TRIPOS>ATOM
      1 C1         -3.3231   -1.7789   -2.6544 C.ar      1 <0>         0.0000
      2 C2         -3.2611   -0.8804   -1.5889 C.ar      1 <0>         0.0000
      3 C3         -2.7945   -1.4438   -3.9059 C.ar      1 <0>         0.0000
      4 C4         -2.1476    0.7292   -3.0057 C.ar      1 <0>         0.0000
      5 C5         -2.6670    0.3795   -1.7538 C.ar      1 <0>         0.0000
      6 C6         -2.2188   -0.1882   -4.0503 C.ar      1 <0>         0.0000
      7 C7         -1.7405    0.6787    0.5619 C.2       1 <0>         0.0000
      8 C8          0.4040    1.1588   -0.6464 C.3       1 <0>         0.0000
      9 C9          0.3328   -0.0823    1.5399 C.3       1 <0>         0.0000
     10 C10         1.1509    0.1117   -1.5131 C.3       1 <0>         0.0000
     11 C11         0.1840   -1.6076    1.4656 C.3       1 <0>         0.0000
     12 C12        -2.5543    1.3193   -0.5680 C.3       1 <0>         0.0000
     13 N1         -0.3722    0.6240    0.4638 N.am      1 <0>         0.0000
     14 O1         -2.3265    0.1861    1.5300 O.2       1 <0>         0.0000
     15 F1         -1.6993    0.1659   -5.2566 F         1 <0>         0.0000
     16 S1          0.3541   -1.5353   -1.5993 S.3       1 <0>         0.0000
     17 S2          1.1466   -2.4117    0.1283 S.3       1 <0>         0.0000
     18 H1         -3.7767   -2.7558   -2.5120 H         1 <0>         0.0000
     19 H2         -3.6531   -1.1596   -0.6149 H         1 <0>         0.0000
     20 H3         -2.8223   -2.1292   -4.7471 H         1 <0>         0.0000
     21 H4         -1.6923    1.6993   -3.1861 H         1 <0>         0.0000
     22 H5          1.1470    1.8642   -0.2513 H         1 <0>         0.0000
     23 H6         -0.2613    1.7340   -1.2821 H         1 <0>         0.0000
     24 H7         -0.0792    0.2554    2.4949 H         1 <0>         0.0000
     25 H8          1.3883    0.2004    1.4970 H         1 <0>         0.0000
     26 H9          1.2164    0.4789   -2.5425 H         1 <0>         0.0000
     27 H10         2.1691   -0.0451   -1.1508 H         1 <0>         0.0000
     28 H11         0.5804   -2.0553    2.3845 H         1 <0>         0.0000
     29 H12        -0.8689   -1.8773    1.3822 H         1 <0>         0.0000
     30 H13        -2.1534    2.2882   -0.8757 H         1 <0>         0.0000
     31 H14        -3.5401    1.4956   -0.1330 H         1 <0>         0.0000
@<TRIPOS>BOND
     1    1    2 ar
     2    1    3 ar
     3    1   18 1
     4    2    5 ar
     5    2   19 1
     6    3    6 ar
     7    3   20 1
     8    4    5 ar
     9    4    6 ar
    10    4   21 1
    11    5   12 1
    12    6   15 1
    13    7   12 1
    14    7   13 am
    15    7   14 2
    16    8   10 1
    17    8   13 1
    18    8   22 1
    19    8   23 1
    20    9   11 1
    21    9   13 1
    22    9   24 1
    23    9   25 1
    24   10   16 1
    25   10   26 1
    26   10   27 1
    27   11   17 1
    28   11   28 1
    29   11   29 1
    30   12   30 1
    31   12   31 1
    32   16   17 1
