@<TRIPOS>MOLECULE
*****
   37    39     0     0     0
SMALL
NO_CHARGES

@<TRIPOS>ATOM
      1 C1          7.5330   -8.5585   -8.0606 C.1       1 <0>         0.0000
      2 C2          6.4757   -7.9648   -8.0106 C.1       1 <0>         0.0000
      3 C3          1.7829   -1.1110    0.2882 C.ar      1 <0>         0.0000
      4 C4          0.7934   -0.6733   -0.6008 C.ar      1 <0>         0.0000
      5 C5          3.1718   -6.5224   -8.9800 C.ar      1 <0>         0.0000
      6 C6          4.3791   -7.2131   -9.0717 C.ar      1 <0>         0.0000
      7 C7          2.5678   -2.2146   -0.0450 C.ar      1 <0>         0.0000
      8 C8          0.6064   -1.3442   -1.8089 C.ar      1 <0>         0.0000
      9 C9          2.7810   -5.8778   -7.8035 C.ar      1 <0>         0.0000
     10 C10         4.8419   -6.6214   -6.7634 C.ar      1 <0>         0.0000
     11 C11         5.2275   -7.2638   -7.9501 C.ar      1 <0>         0.0000
     12 C12         2.3855   -2.8940   -1.2589 C.ar      1 <0>         0.0000
     13 C13         1.3965   -2.4511   -2.1513 C.ar      1 <0>         0.0000
     14 C14         3.6246   -5.9284   -6.6798 C.ar      1 <0>         0.0000
     15 C15         2.2570   -4.4861   -5.1393 C.2       1 <0>         0.0000
     16 C16         3.2466   -4.0901   -1.6074 C.3       1 <0>         0.0000
     17 C17         1.1341   -3.1454   -3.4738 C.3       1 <0>         0.0000
     18 C18         2.5768   -4.9507   -2.6763 C.3       1 <0>         0.0000
     19 N1          2.1854   -4.1053   -3.8063 N.am      1 <0>         0.0000
     20 N2          3.3140   -5.3389   -5.4377 N.am      1 <0>         0.0000
     21 O1          1.4710   -4.0605   -5.9848 O.2       1 <0>         0.0000
     22 H1          8.4638   -9.0824   -8.1100 H         1 <0>         0.0000
     23 H2          1.9371   -0.5971    1.2334 H         1 <0>         0.0000
     24 H3          0.1748    0.1853   -0.3534 H         1 <0>         0.0000
     25 H4          2.5139   -6.4769   -9.8439 H         1 <0>         0.0000
     26 H5          4.6741   -7.7082   -9.9913 H         1 <0>         0.0000
     27 H6          3.3334   -2.5615    0.6466 H         1 <0>         0.0000
     28 H7         -0.1605   -1.0034   -2.5022 H         1 <0>         0.0000
     29 H8          1.8497   -5.3320   -7.7498 H         1 <0>         0.0000
     30 H9          5.5042   -6.6701   -5.9019 H         1 <0>         0.0000
     31 H10         4.2213   -3.7498   -1.9801 H         1 <0>         0.0000
     32 H11         3.4363   -4.6924   -0.7118 H         1 <0>         0.0000
     33 H12         0.1551   -3.6488   -3.4405 H         1 <0>         0.0000
     34 H13         1.0770   -2.4141   -4.2809 H         1 <0>         0.0000
     35 H14         3.2377   -5.7542   -3.0010 H         1 <0>         0.0000
     36 H15         1.6797   -5.4336   -2.2594 H         1 <0>         0.0000
     37 H16         4.0477   -5.4095   -4.7472 H         1 <0>         0.0000
@<TRIPOS>BOND
     1    1    2 3
     2    1   22 1
     3    2   11 1
     4    3    4 ar
     5    3    7 ar
     6    3   23 1
     7    4    8 ar
     8    4   24 1
     9    5    6 ar
    10    5    9 ar
    11    5   25 1
    12    6   11 ar
    13    6   26 1
    14    7   12 ar
    15    7   27 1
    16    8   13 ar
    17    8   28 1
    18    9   14 ar
    19    9   29 1
    20   10   11 ar
    21   10   14 ar
    22   10   30 1
    23   12   13 ar
    24   12   16 1
    25   13   17 1
    26   14   20 1
    27   15   19 am
    28   15   20 am
    29   15   21 2
    30   16   18 1
    31   16   31 1
    32   16   32 1
    33   17   19 1
    34   17   33 1
    35   17   34 1
    36   18   19 1
    37   18   35 1
    38   18   36 1
    39   20   37 1
