@<TRIPOS>MOLECULE
*****
   20    20     0     0     0
SMALL
NO_CHARGES

@<TRIPOS>ATOM
      1 C1          3.4357    1.3394   -0.1754 C.2       1 <0>         0.0000
      2 C2          4.1266    1.7037    1.0191 C.2       1 <0>         0.0000
      3 C3          2.7667    0.1688    0.0915 C.2       1 <0>         0.0000
      4 C4          3.8213    0.7181    1.9200 C.2       1 <0>         0.0000
      5 C5          2.3880   -2.1548   -0.7384 C.3       1 <0>         0.0000
      6 C6          1.8874   -0.7056   -0.7458 C.3       1 <0>         0.0000
      7 N1          0.5085   -0.6902   -0.2276 N.3       1 <0>         0.0000
      8 N2          4.2312    0.5408    3.2759 N.pl3     1 <0>         0.0000
      9 O1          4.9722    1.4220    3.7412 O.3       1 <0>         0.0000
     10 O2          3.8311   -0.4594    3.8824 O.2       1 <0>         0.0000
     11 O3          2.9990   -0.2176    1.3816 O.3       1 <0>         0.0000
     12 O4          3.6763   -2.1690   -1.3526 O.3       1 <0>         0.0000
     13 H1          3.4418    1.8638   -1.1217 H         1 <0>         0.0000
     14 H2          4.7628    2.5572    1.2039 H         1 <0>         0.0000
     15 H3          2.4192   -2.5145    0.2960 H         1 <0>         0.0000
     16 H4          1.6763   -2.7768   -1.3015 H         1 <0>         0.0000
     17 H5          1.9813   -0.3258   -1.7752 H         1 <0>         0.0000
     18 H6         -0.1048   -1.1796   -0.8777 H         1 <0>         0.0000
     19 H7          0.1708    0.2683   -0.1648 H         1 <0>         0.0000
     20 H8          4.1013   -3.0170   -1.1563 H         1 <0>         0.0000
@<TRIPOS>BOND
     1    1    2 1
     2    1    3 2
     3    1   13 1
     4    2    4 2
     5    2   14 1
     6    3    6 1
     7    3   11 1
     8    4    8 1
     9    4   11 1
    10    5    6 1
    11    5   12 1
    12    5   15 1
    13    5   16 1
    14    6    7 1
    15    6   17 1
    16    7   18 1
    17    7   19 1
    18    8    9 1
    19    8   10 2
    20   12   20 1
