@<TRIPOS>MOLECULE
*****
   37    39     0     0     0
SMALL
NO_CHARGES

@<TRIPOS>ATOM
      1 C1          4.7743   -1.8401  -10.6766 C.1       1 <0>         0.0000
      2 C2          3.7896   -1.8282   -9.9676 C.1       1 <0>         0.0000
      3 C3          1.1074   -2.5575    1.4155 C.ar      1 <0>         0.0000
      4 C4         -0.0869   -2.4439    0.6930 C.ar      1 <0>         0.0000
      5 C5          0.2561   -1.4066   -8.8555 C.ar      1 <0>         0.0000
      6 C6          1.3832   -1.4183   -9.6764 C.ar      1 <0>         0.0000
      7 C7          2.3028   -2.7961    0.7380 C.ar      1 <0>         0.0000
      8 C8         -0.0652   -2.5671   -0.6956 C.ar      1 <0>         0.0000
      9 C9          0.3524   -1.7776   -7.5153 C.ar      1 <0>         0.0000
     10 C10         2.7279   -2.1873   -7.7854 C.ar      1 <0>         0.0000
     11 C11         2.6216   -1.8103   -9.1367 C.ar      1 <0>         0.0000
     12 C12         2.3346   -2.9162   -0.6595 C.ar      1 <0>         0.0000
     13 C13         1.1373   -2.7963   -1.3792 C.ar      1 <0>         0.0000
     14 C14         1.5887   -2.1704   -6.9688 C.ar      1 <0>         0.0000
     15 C15         2.6551   -3.0142   -4.8510 C.2       1 <0>         0.0000
     16 C16         3.6237   -3.1967   -1.3964 C.3       1 <0>         0.0000
     17 C17         1.0923   -2.8795   -2.8958 C.3       1 <0>         0.0000
     18 C18         3.3419   -3.9399   -2.6986 C.3       1 <0>         0.0000
     19 N1          2.3827   -3.1834   -3.5035 N.am      1 <0>         0.0000
     20 N2          1.5966   -2.5123   -5.6009 N.am      1 <0>         0.0000
     21 O1          3.7534   -3.2802   -5.3404 O.2       1 <0>         0.0000
     22 H1          5.6460   -1.8532  -11.2956 H         1 <0>         0.0000
     23 H2          1.1025   -2.4683    2.4987 H         1 <0>         0.0000
     24 H3         -1.0262   -2.2649    1.2095 H         1 <0>         0.0000
     25 H4         -0.7074   -1.1067   -9.2589 H         1 <0>         0.0000
     26 H5          1.3173   -1.1312  -10.7210 H         1 <0>         0.0000
     27 H6          3.2306   -2.8979    1.2974 H         1 <0>         0.0000
     28 H7         -0.9938   -2.4825   -1.2581 H         1 <0>         0.0000
     29 H8         -0.5361   -1.7623   -6.8861 H         1 <0>         0.0000
     30 H9          3.6798   -2.4956   -7.3780 H         1 <0>         0.0000
     31 H10         4.1423   -2.2580   -1.6283 H         1 <0>         0.0000
     32 H11         4.2958   -3.7910   -0.7681 H         1 <0>         0.0000
     33 H12         0.3305   -3.6232   -3.1843 H         1 <0>         0.0000
     34 H13         0.7513   -1.9020   -3.2576 H         1 <0>         0.0000
     35 H14         4.2433   -4.0593   -3.2967 H         1 <0>         0.0000
     36 H15         2.9372   -4.9386   -2.4794 H         1 <0>         0.0000
     37 H16         0.6923   -2.4531   -5.1575 H         1 <0>         0.0000
@<TRIPOS>BOND
     1    1    2 3
     2    1   22 1
     3    2   11 1
     4    3    4 ar
     5    3    7 ar
     6    3   23 1
     7    4    8 ar
     8    4   24 1
     9    5    6 ar
    10    5    9 ar
    11    5   25 1
    12    6   11 ar
    13    6   26 1
    14    7   12 ar
    15    7   27 1
    16    8   13 ar
    17    8   28 1
    18    9   14 ar
    19    9   29 1
    20   10   11 ar
    21   10   14 ar
    22   10   30 1
    23   12   13 ar
    24   12   16 1
    25   13   17 1
    26   14   20 1
    27   15   19 am
    28   15   20 am
    29   15   21 2
    30   16   18 1
    31   16   31 1
    32   16   32 1
    33   17   19 1
    34   17   33 1
    35   17   34 1
    36   18   19 1
    37   18   35 1
    38   18   36 1
    39   20   37 1
