@<TRIPOS>MOLECULE
*****
   37    39     0     0     0
SMALL
NO_CHARGES

@<TRIPOS>ATOM
      1 C1          6.6250  -11.3854   -2.5767 C.1       1 <0>         0.0000
      2 C2          6.6154  -10.2477   -2.1550 C.1       1 <0>         0.0000
      3 C3         -1.0951   -1.7044    0.1296 C.ar      1 <0>         0.0000
      4 C4          0.1792   -1.2589    0.5026 C.ar      1 <0>         0.0000
      5 C5          7.8046   -6.8941   -1.0417 C.ar      1 <0>         0.0000
      6 C6          7.8243   -8.2014   -1.5263 C.ar      1 <0>         0.0000
      7 C7         -1.2873   -3.0455   -0.2011 C.ar      1 <0>         0.0000
      8 C8          1.2411   -2.1618    0.5350 C.ar      1 <0>         0.0000
      9 C9          6.5997   -6.2863   -0.6927 C.ar      1 <0>         0.0000
     10 C10         5.3915   -8.2979   -1.3074 C.ar      1 <0>         0.0000
     11 C11         6.6123   -8.9028   -1.6586 C.ar      1 <0>         0.0000
     12 C12        -0.2233   -3.9597   -0.1759 C.ar      1 <0>         0.0000
     13 C13         1.0519   -3.5084    0.1930 C.ar      1 <0>         0.0000
     14 C14         5.3831   -6.9825   -0.8230 C.ar      1 <0>         0.0000
     15 C15         2.9069   -6.7623   -0.4293 C.2       1 <0>         0.0000
     16 C16        -0.4309   -5.4179   -0.5137 C.3       1 <0>         0.0000
     17 C17         2.2620   -4.4273    0.2135 C.3       1 <0>         0.0000
     18 C18         0.5986   -6.2845    0.2045 C.3       1 <0>         0.0000
     19 N1          1.9481   -5.8142   -0.1103 N.am      1 <0>         0.0000
     20 N2          4.2125   -6.2850   -0.4604 N.am      1 <0>         0.0000
     21 O1          2.6185   -7.9340   -0.6755 O.2       1 <0>         0.0000
     22 H1          6.6264  -12.3884   -2.9469 H         1 <0>         0.0000
     23 H2         -1.9318   -1.0111    0.1051 H         1 <0>         0.0000
     24 H3          0.3409   -0.2179    0.7690 H         1 <0>         0.0000
     25 H4          8.7332   -6.3401   -0.9337 H         1 <0>         0.0000
     26 H5          8.7578   -8.6823   -1.8005 H         1 <0>         0.0000
     27 H6         -2.2787   -3.3975   -0.4791 H         1 <0>         0.0000
     28 H7          2.2318   -1.8173    0.8280 H         1 <0>         0.0000
     29 H8          6.5998   -5.2643   -0.3173 H         1 <0>         0.0000
     30 H9          4.4642   -8.8435   -1.4039 H         1 <0>         0.0000
     31 H10        -1.4414   -5.7305   -0.2293 H         1 <0>         0.0000
     32 H11        -0.3354   -5.5754   -1.5952 H         1 <0>         0.0000
     33 H12         2.9671   -4.0392   -0.5313 H         1 <0>         0.0000
     34 H13         2.7470   -4.3484    1.2011 H         1 <0>         0.0000
     35 H14         0.4331   -6.2402    1.2908 H         1 <0>         0.0000
     36 H15         0.5370   -7.3249   -0.1088 H         1 <0>         0.0000
     37 H16         4.3799   -5.3482   -0.1255 H         1 <0>         0.0000
@<TRIPOS>BOND
     1    1    2 3
     2    1   22 1
     3    2   11 1
     4    3    4 ar
     5    3    7 ar
     6    3   23 1
     7    4    8 ar
     8    4   24 1
     9    5    6 ar
    10    5    9 ar
    11    5   25 1
    12    6   11 ar
    13    6   26 1
    14    7   12 ar
    15    7   27 1
    16    8   13 ar
    17    8   28 1
    18    9   14 ar
    19    9   29 1
    20   10   11 ar
    21   10   14 ar
    22   10   30 1
    23   12   13 ar
    24   12   16 1
    25   13   17 1
    26   14   20 1
    27   15   19 am
    28   15   20 am
    29   15   21 2
    30   16   18 1
    31   16   31 1
    32   16   32 1
    33   17   19 1
    34   17   33 1
    35   17   34 1
    36   18   19 1
    37   18   35 1
    38   18   36 1
    39   20   37 1
