@<TRIPOS>MOLECULE
*****
   31    32     0     0     0
SMALL
NO_CHARGES

@<TRIPOS>ATOM
      1 C1          4.9954   -3.4655   -1.6566 C.ar      1 <0>         0.0000
      2 C2          3.7252   -3.3300   -1.0871 C.ar      1 <0>         0.0000
      3 C3          5.8953   -2.3968   -1.6468 C.ar      1 <0>         0.0000
      4 C4          4.2286   -1.0447   -0.4865 C.ar      1 <0>         0.0000
      5 C5          3.3333   -2.1224   -0.4987 C.ar      1 <0>         0.0000
      6 C6          5.4839   -1.2044   -1.0583 C.ar      1 <0>         0.0000
      7 C7          1.0067   -1.1780   -0.8038 C.2       1 <0>         0.0000
      8 C8         -1.0901   -0.0120   -1.1263 C.3       1 <0>         0.0000
      9 C9         -0.6386   -1.0967    1.0909 C.3       1 <0>         0.0000
     10 C10        -0.5859    1.4153   -1.3830 C.3       1 <0>         0.0000
     11 C11        -0.3267    0.0291    2.0847 C.3       1 <0>         0.0000
     12 C12         1.9613   -1.9631    0.1085 C.3       1 <0>         0.0000
     13 N1         -0.2192   -0.8368   -0.2858 N.am      1 <0>         0.0000
     14 O1          1.3141   -0.8764   -1.9556 O.2       1 <0>         0.0000
     15 F1          6.3463   -0.1530   -1.0406 F         1 <0>         0.0000
     16 S1          0.1390    2.2541    0.0851 S.3       1 <0>         0.0000
     17 S2         -1.0927    1.6465    1.6603 S.3       1 <0>         0.0000
     18 H1          5.2882   -4.4080   -2.1112 H         1 <0>         0.0000
     19 H2          3.0327   -4.1679   -1.1078 H         1 <0>         0.0000
     20 H3          6.8876   -2.4738   -2.0803 H         1 <0>         0.0000
     21 H4          3.9554   -0.0860   -0.0543 H         1 <0>         0.0000
     22 H5         -2.0631    0.0327   -0.6356 H         1 <0>         0.0000
     23 H6         -1.2165   -0.4993   -2.0981 H         1 <0>         0.0000
     24 H7         -0.1729   -2.0195    1.4453 H         1 <0>         0.0000
     25 H8         -1.7175   -1.2793    1.0828 H         1 <0>         0.0000
     26 H9          0.2324    1.4037   -2.1066 H         1 <0>         0.0000
     27 H10        -1.4084    2.0158   -1.7813 H         1 <0>         0.0000
     28 H11        -0.7291   -0.2362    3.0695 H         1 <0>         0.0000
     29 H12         0.7499    0.1859    2.1859 H         1 <0>         0.0000
     30 H13         1.5235   -2.9476    0.3080 H         1 <0>         0.0000
     31 H14         2.0391   -1.4554    1.0751 H         1 <0>         0.0000
@<TRIPOS>BOND
     1    1    2 ar
     2    1    3 ar
     3    1   18 1
     4    2    5 ar
     5    2   19 1
     6    3    6 ar
     7    3   20 1
     8    4    5 ar
     9    4    6 ar
    10    4   21 1
    11    5   12 1
    12    6   15 1
    13    7   12 1
    14    7   13 am
    15    7   14 2
    16    8   10 1
    17    8   13 1
    18    8   22 1
    19    8   23 1
    20    9   11 1
    21    9   13 1
    22    9   24 1
    23    9   25 1
    24   10   16 1
    25   10   26 1
    26   10   27 1
    27   11   17 1
    28   11   28 1
    29   11   29 1
    30   12   30 1
    31   12   31 1
    32   16   17 1
