@<TRIPOS>MOLECULE
*****
   37    39     0     0     0
SMALL
NO_CHARGES

@<TRIPOS>ATOM
      1 C1          5.7454   -2.6467   -9.8144 C.1       1 <0>         0.0000
      2 C2          5.5167   -3.5151   -8.9985 C.1       1 <0>         0.0000
      3 C3          2.3839   -0.9156    0.0275 C.ar      1 <0>         0.0000
      4 C4          1.3699   -0.3489   -0.7537 C.ar      1 <0>         0.0000
      5 C5          5.6739   -6.7612   -7.1709 C.ar      1 <0>         0.0000
      6 C6          5.9416   -5.7693   -8.1137 C.ar      1 <0>         0.0000
      7 C7          2.8380   -2.2030   -0.2603 C.ar      1 <0>         0.0000
      8 C8          0.8258   -1.0781   -1.8113 C.ar      1 <0>         0.0000
      9 C9          4.7358   -6.5452   -6.1626 C.ar      1 <0>         0.0000
     10 C10         4.3037   -4.3188   -7.0235 C.ar      1 <0>         0.0000
     11 C11         5.2528   -4.5453   -8.0371 C.ar      1 <0>         0.0000
     12 C12         2.2953   -2.9428   -1.3211 C.ar      1 <0>         0.0000
     13 C13         1.2797   -2.3706   -2.1060 C.ar      1 <0>         0.0000
     14 C14         4.0433   -5.3225   -6.0803 C.ar      1 <0>         0.0000
     15 C15         2.2424   -4.1402   -4.7824 C.2       1 <0>         0.0000
     16 C16         2.8124   -4.3382   -1.6211 C.3       1 <0>         0.0000
     17 C17         0.6455   -3.1366   -3.2569 C.3       1 <0>         0.0000
     18 C18         1.8203   -5.1079   -2.4962 C.3       1 <0>         0.0000
     19 N1          1.4322   -4.3039   -3.6584 N.am      1 <0>         0.0000
     20 N2          3.1295   -5.1821   -5.0156 N.am      1 <0>         0.0000
     21 O1          2.1459   -3.1665   -5.5272 O.2       1 <0>         0.0000
     22 H1          5.9414   -1.8775  -10.5308 H         1 <0>         0.0000
     23 H2          2.8166   -0.3572    0.8535 H         1 <0>         0.0000
     24 H3          1.0116    0.6554   -0.5430 H         1 <0>         0.0000
     25 H4          6.1973   -7.7122   -7.2186 H         1 <0>         0.0000
     26 H5          6.6699   -5.9292   -8.9023 H         1 <0>         0.0000
     27 H6          3.6250   -2.6462    0.3472 H         1 <0>         0.0000
     28 H7          0.0440   -0.6362   -2.4262 H         1 <0>         0.0000
     29 H8          4.5370   -7.3291   -5.4337 H         1 <0>         0.0000
     30 H9          3.7724   -3.3796   -6.9741 H         1 <0>         0.0000
     31 H10         3.7760   -4.2728   -2.1427 H         1 <0>         0.0000
     32 H11         2.9922   -4.8836   -0.6874 H         1 <0>         0.0000
     33 H12        -0.3544   -3.4835   -2.9642 H         1 <0>         0.0000
     34 H13         0.5337   -2.4916   -4.1271 H         1 <0>         0.0000
     35 H14         2.2137   -6.0846   -2.7874 H         1 <0>         0.0000
     36 H15         0.9039   -5.3145   -1.9326 H         1 <0>         0.0000
     37 H16         3.0489   -6.0004   -4.4312 H         1 <0>         0.0000
@<TRIPOS>BOND
     1    1    2 3
     2    1   22 1
     3    2   11 1
     4    3    4 ar
     5    3    7 ar
     6    3   23 1
     7    4    8 ar
     8    4   24 1
     9    5    6 ar
    10    5    9 ar
    11    5   25 1
    12    6   11 ar
    13    6   26 1
    14    7   12 ar
    15    7   27 1
    16    8   13 ar
    17    8   28 1
    18    9   14 ar
    19    9   29 1
    20   10   11 ar
    21   10   14 ar
    22   10   30 1
    23   12   13 ar
    24   12   16 1
    25   13   17 1
    26   14   20 1
    27   15   19 am
    28   15   20 am
    29   15   21 2
    30   16   18 1
    31   16   31 1
    32   16   32 1
    33   17   19 1
    34   17   33 1
    35   17   34 1
    36   18   19 1
    37   18   35 1
    38   18   36 1
    39   20   37 1
