@<TRIPOS>MOLECULE
*****
   25    26     0     0     0
SMALL
NO_CHARGES

@<TRIPOS>ATOM
      1 C1          0.4305    1.9630   -3.5973 C.ar      1 <0>         0.0000
      2 C2          0.2554    0.7629   -2.8960 C.ar      1 <0>         0.0000
      3 C3          4.2849    0.5393    1.9840 C.ar      1 <0>         0.0000
      4 C4          6.2210    1.8054    1.1841 C.ar      1 <0>         0.0000
      5 C5          3.4346    1.5299    1.4958 C.ar      1 <0>         0.0000
      6 C6          5.3682    2.8000    0.7053 C.ar      1 <0>         0.0000
      7 C7          1.2717    2.9397   -3.0708 C.ar      1 <0>         0.0000
      8 C8          0.9401    0.5964   -1.6933 C.ar      1 <0>         0.0000
      9 C9          5.6591    0.6964    1.8130 C.ar      1 <0>         0.0000
     10 C10         3.9887    2.6443    0.8623 C.ar      1 <0>         0.0000
     11 C11         1.9111    2.6484   -1.8606 C.ar      1 <0>         0.0000
     12 N1          1.7668    1.5227   -1.1805 N.ar      1 <0>         0.0000
     13 O1          1.5916    3.7954    0.8566 O.2       1 <0>         0.0000
     14 O2          3.6441    5.1898    0.2649 O.2       1 <0>         0.0000
     15 O3          2.7918    3.6114   -1.3885 O.3       1 <0>         0.0000
     16 F1          6.4835   -0.2678    2.2823 F         1 <0>         0.0000
     17 S1          2.9137    3.9330    0.2641 S.o2      1 <0>         0.0000
     18 H1         -0.0891    2.1390   -4.5353 H         1 <0>         0.0000
     19 H2         -0.3968   -0.0207   -3.2687 H         1 <0>         0.0000
     20 H3          3.9011   -0.3422    2.4875 H         1 <0>         0.0000
     21 H4          7.2988    1.8831    1.0847 H         1 <0>         0.0000
     22 H5          2.3590    1.4452    1.5947 H         1 <0>         0.0000
     23 H6          5.7656    3.6891    0.2269 H         1 <0>         0.0000
     24 H7          1.4390    3.8948   -3.5569 H         1 <0>         0.0000
     25 H8          0.8308   -0.3175   -1.1123 H         1 <0>         0.0000
@<TRIPOS>BOND
     1    1    2 ar
     2    1    7 ar
     3    1   18 1
     4    2    8 ar
     5    2   19 1
     6    3    5 ar
     7    3    9 ar
     8    3   20 1
     9    4    6 ar
    10    4    9 ar
    11    4   21 1
    12    5   10 ar
    13    5   22 1
    14    6   10 ar
    15    6   23 1
    16    7   11 ar
    17    7   24 1
    18    8   12 ar
    19    8   25 1
    20    9   16 1
    21   10   17 1
    22   11   12 ar
    23   11   15 1
    24   13   17 2
    25   14   17 2
    26   15   17 1
