@<TRIPOS>MOLECULE
*****
   37    39     0     0     0
SMALL
NO_CHARGES

@<TRIPOS>ATOM
      1 C1          2.0265   -4.3930    2.9457 C.2       1 <0>         0.0000
      2 C2          2.7574   -4.0458    1.8264 C.2       1 <0>         0.0000
      3 C3         -0.1714    5.8574   -1.4717 C.ar      1 <0>         0.0000
      4 C4          0.8015   -2.2802    2.8049 C.2       1 <0>         0.0000
      5 C5          1.0586   -3.4723    3.4361 C.2       1 <0>         0.0000
      6 C6          1.5745   -0.7950    0.9082 C.2       1 <0>         0.0000
      7 C7          0.7382    4.8526   -1.8230 C.ar      1 <0>         0.0000
      8 C8         -1.0228    5.6163   -0.3849 C.ar      1 <0>         0.0000
      9 C9          2.5527   -1.0477   -0.0718 C.2       1 <0>         0.0000
     10 C10         2.5352   -2.8108    1.1795 C.2       1 <0>         0.0000
     11 C11        -0.0557    3.5678   -0.1295 C.ar      1 <0>         0.0000
     12 C12         0.7141    0.3393    1.1247 C.2       1 <0>         0.0000
     13 C13         1.6991    5.0077   -2.9712 C.3       1 <0>         0.0000
     14 C14        -2.0395    6.6258    0.0773 C.3       1 <0>         0.0000
     15 C15         2.9536   -0.1357   -1.1851 C.3       1 <0>         0.0000
     16 N1          3.1302   -2.2667    0.1134 N.2       1 <0>         0.0000
     17 N2          0.8007    3.6936   -1.1487 N.ar      1 <0>         0.0000
     18 N3         -0.9672    4.4637    0.2948 N.ar      1 <0>         0.0000
     19 N4          0.7880    1.3768    0.3555 N.2       1 <0>         0.0000
     20 N5          1.5604   -1.9352    1.7085 N.pl3     1 <0>         0.0000
     21 N6         -0.0493    2.4011    0.6132 N.pl3     1 <0>         0.0000
     22 I1         -0.6062   -4.3008    4.7502 I         1 <0>         0.0000
     23 H1          2.1971   -5.3372    3.4504 H         1 <0>         0.0000
     24 H2          3.5184   -4.7034    1.4189 H         1 <0>         0.0000
     25 H3         -0.2159    6.7916   -2.0218 H         1 <0>         0.0000
     26 H4          0.0356   -1.5857    3.1241 H         1 <0>         0.0000
     27 H5         -0.0035    0.2977    1.9556 H         1 <0>         0.0000
     28 H6          2.7279    4.9144   -2.6092 H         1 <0>         0.0000
     29 H7          1.5412    4.2054   -3.6987 H         1 <0>         0.0000
     30 H8          1.5835    5.9718   -3.4721 H         1 <0>         0.0000
     31 H9         -3.0453    6.1979    0.0167 H         1 <0>         0.0000
     32 H10        -1.8610    6.8839    1.1258 H         1 <0>         0.0000
     33 H11        -2.0065    7.5379   -0.5232 H         1 <0>         0.0000
     34 H12         3.2961    0.8289   -0.7980 H         1 <0>         0.0000
     35 H13         3.7473   -0.6044   -1.7702 H         1 <0>         0.0000
     36 H14         2.1014    0.0907   -1.8337 H         1 <0>         0.0000
     37 H15        -0.7198    2.3670    1.3812 H         1 <0>         0.0000
@<TRIPOS>BOND
     1    1    2 2
     2    1    5 1
     3    1   23 1
     4    2   10 1
     5    2   24 1
     6    3    8 ar
     7    3    7 ar
     8    3   25 1
     9    4    5 2
    10    4   20 1
    11    4   26 1
    12    5   22 1
    13    6    9 2
    14    6   12 1
    15    6   20 1
    16    7   13 1
    17    7   17 ar
    18    8   14 1
    19    8   18 ar
    20    9   15 1
    21    9   16 1
    22   10   16 2
    23   10   20 1
    24   11   18 ar
    25   11   17 ar
    26   11   21 1
    27   12   19 2
    28   12   27 1
    29   13   28 1
    30   13   29 1
    31   13   30 1
    32   14   31 1
    33   14   32 1
    34   14   33 1
    35   15   34 1
    36   15   35 1
    37   15   36 1
    38   19   21 1
    39   21   37 1
