@<TRIPOS>MOLECULE
*****
   37    39     0     0     0
SMALL
NO_CHARGES

@<TRIPOS>ATOM
      1 C1          6.9215   -1.2696   -3.9517 C.1       1 <0>         0.0000
      2 C2          6.8083   -2.4150   -4.3355 C.1       1 <0>         0.0000
      3 C3          1.6360   -1.8505   -0.1103 C.ar      1 <0>         0.0000
      4 C4          0.4739   -1.9029   -0.8901 C.ar      1 <0>         0.0000
      5 C5          7.6189   -5.8860   -5.4518 C.ar      1 <0>         0.0000
      6 C6          7.7914   -4.5672   -5.0303 C.ar      1 <0>         0.0000
      7 C7          2.7117   -2.6818   -0.4210 C.ar      1 <0>         0.0000
      8 C8          0.4080   -2.7841   -1.9687 C.ar      1 <0>         0.0000
      9 C9          6.3402   -6.4267   -5.5953 C.ar      1 <0>         0.0000
     10 C10         5.3713   -4.3038   -4.9512 C.ar      1 <0>         0.0000
     11 C11         6.6603   -3.7708   -4.7744 C.ar      1 <0>         0.0000
     12 C12         2.6527   -3.5722   -1.5041 C.ar      1 <0>         0.0000
     13 C13         1.4889   -3.6194   -2.2874 C.ar      1 <0>         0.0000
     14 C14         5.2059   -5.6369   -5.3432 C.ar      1 <0>         0.0000
     15 C15         2.6897   -5.7060   -5.1082 C.2       1 <0>         0.0000
     16 C16         3.8351   -4.4599   -1.8293 C.3       1 <0>         0.0000
     17 C17         1.3489   -4.5665   -3.4628 C.3       1 <0>         0.0000
     18 C18         3.4289   -5.6331   -2.7174 C.3       1 <0>         0.0000
     19 N1          2.6327   -5.1478   -3.8507 N.am      1 <0>         0.0000
     20 N2          3.9286   -6.2295   -5.5130 N.am      1 <0>         0.0000
     21 O1          1.7170   -5.7741   -5.8603 O.2       1 <0>         0.0000
     22 H1          7.0211   -0.2579   -3.6195 H         1 <0>         0.0000
     23 H2          1.6999   -1.1680    0.7333 H         1 <0>         0.0000
     24 H3         -0.3714   -1.2597   -0.6596 H         1 <0>         0.0000
     25 H4          8.4874   -6.5072   -5.6533 H         1 <0>         0.0000
     26 H5          8.7840   -4.1489   -4.8976 H         1 <0>         0.0000
     27 H6          3.6152   -2.6461    0.1849 H         1 <0>         0.0000
     28 H7         -0.4927   -2.8239   -2.5788 H         1 <0>         0.0000
     29 H8          6.2118   -7.4648   -5.8916 H         1 <0>         0.0000
     30 H9          4.5071   -3.6746   -4.7772 H         1 <0>         0.0000
     31 H10         4.6107   -3.8739   -2.3351 H         1 <0>         0.0000
     32 H11         4.2826   -4.8432   -0.9054 H         1 <0>         0.0000
     33 H12         0.6319   -5.3646   -3.2157 H         1 <0>         0.0000
     34 H13         0.9393   -4.0427   -4.3277 H         1 <0>         0.0000
     35 H14         4.3036   -6.1696   -3.0783 H         1 <0>         0.0000
     36 H15         2.8188   -6.3453   -2.1412 H         1 <0>         0.0000
     37 H16         3.8123   -6.7420   -6.3805 H         1 <0>         0.0000
@<TRIPOS>BOND
     1    1    2 3
     2    1   22 1
     3    2   11 1
     4    3    4 ar
     5    3    7 ar
     6    3   23 1
     7    4    8 ar
     8    4   24 1
     9    5    6 ar
    10    5    9 ar
    11    5   25 1
    12    6   11 ar
    13    6   26 1
    14    7   12 ar
    15    7   27 1
    16    8   13 ar
    17    8   28 1
    18    9   14 ar
    19    9   29 1
    20   10   11 ar
    21   10   14 ar
    22   10   30 1
    23   12   13 ar
    24   12   16 1
    25   13   17 1
    26   14   20 1
    27   15   19 am
    28   15   20 am
    29   15   21 2
    30   16   18 1
    31   16   31 1
    32   16   32 1
    33   17   19 1
    34   17   33 1
    35   17   34 1
    36   18   19 1
    37   18   35 1
    38   18   36 1
    39   20   37 1
