@<TRIPOS>MOLECULE
*****
   31    32     0     0     0
SMALL
NO_CHARGES

@<TRIPOS>ATOM
      1 C1          0.5326    1.1541   -5.8357 C.ar      1 <0>         0.0000
      2 C2          0.6228    0.2817   -4.7462 C.ar      1 <0>         0.0000
      3 C3          0.9971    2.4678   -5.7337 C.ar      1 <0>         0.0000
      4 C4          1.6563    2.0233   -3.4242 C.ar      1 <0>         0.0000
      5 C5          1.1837    0.7071   -3.5340 C.ar      1 <0>         0.0000
      6 C6          1.5504    2.8696   -4.5209 C.ar      1 <0>         0.0000
      7 C7          0.9708    0.4041   -1.0128 C.2       1 <0>         0.0000
      8 C8         -0.6155    1.1456    0.6522 C.3       1 <0>         0.0000
      9 C9         -1.4641    0.3457   -1.5775 C.3       1 <0>         0.0000
     10 C10        -0.3930    0.0820    1.7353 C.3       1 <0>         0.0000
     11 C11        -2.3517   -0.8471   -1.1347 C.3       1 <0>         0.0000
     12 C12         1.3022   -0.2426   -2.3563 C.3       1 <0>         0.0000
     13 N1         -0.3433    0.6474   -0.6998 N.am      1 <0>         0.0000
     14 O1          1.8765    0.7070   -0.2313 O.2       1 <0>         0.0000
     15 F1          2.0071    4.1436   -4.4051 F         1 <0>         0.0000
     16 S1         -1.6315   -1.2707    1.7597 S.3       1 <0>         0.0000
     17 S2         -1.4735   -2.1190   -0.1495 S.3       1 <0>         0.0000
     18 H1          0.0973    0.8105   -6.7701 H         1 <0>         0.0000
     19 H2          0.2586   -0.7387   -4.8412 H         1 <0>         0.0000
     20 H3          0.9378    3.1672   -6.5617 H         1 <0>         0.0000
     21 H4          2.1018    2.3865   -2.5024 H         1 <0>         0.0000
     22 H5         -1.6459    1.5099    0.6795 H         1 <0>         0.0000
     23 H6          0.0561    1.9853    0.8531 H         1 <0>         0.0000
     24 H7         -1.0801    0.1687   -2.5783 H         1 <0>         0.0000
     25 H8         -2.0980    1.2377   -1.6529 H         1 <0>         0.0000
     26 H9          0.6117   -0.3324    1.6537 H         1 <0>         0.0000
     27 H10        -0.4940    0.5427    2.7251 H         1 <0>         0.0000
     28 H11        -3.1996   -0.5114   -0.5340 H         1 <0>         0.0000
     29 H12        -2.7521   -1.3552   -2.0187 H         1 <0>         0.0000
     30 H13         0.6874   -1.1323   -2.5201 H         1 <0>         0.0000
     31 H14         2.3378   -0.5772   -2.2564 H         1 <0>         0.0000
@<TRIPOS>BOND
     1    1    2 ar
     2    1    3 ar
     3    1   18 1
     4    2    5 ar
     5    2   19 1
     6    3    6 ar
     7    3   20 1
     8    4    5 ar
     9    4    6 ar
    10    4   21 1
    11    5   12 1
    12    6   15 1
    13    7   12 1
    14    7   13 am
    15    7   14 2
    16    8   10 1
    17    8   13 1
    18    8   22 1
    19    8   23 1
    20    9   11 1
    21    9   13 1
    22    9   24 1
    23    9   25 1
    24   10   16 1
    25   10   26 1
    26   10   27 1
    27   11   17 1
    28   11   28 1
    29   11   29 1
    30   12   30 1
    31   12   31 1
    32   16   17 1
