@<TRIPOS>MOLECULE
*****
   31    32     0     0     0
SMALL
NO_CHARGES

@<TRIPOS>ATOM
      1 C1          5.5709    0.0057   -3.3984 C.ar      1 <0>         0.0000
      2 C2          4.8171   -0.9525   -2.7175 C.ar      1 <0>         0.0000
      3 C3          5.1677    0.4764   -4.6532 C.ar      1 <0>         0.0000
      4 C4          3.2265   -0.9967   -4.5381 C.ar      1 <0>         0.0000
      5 C5          3.6365   -1.4606   -3.2813 C.ar      1 <0>         0.0000
      6 C6          3.9978   -0.0422   -5.1950 C.ar      1 <0>         0.0000
      7 C7          2.6473   -2.1911   -1.0615 C.2       1 <0>         0.0000
      8 C8          0.9791   -0.4171   -1.6612 C.3       1 <0>         0.0000
      9 C9          1.7053   -0.8223    0.7068 C.3       1 <0>         0.0000
     10 C10        -0.2834   -1.1351   -2.1848 C.3       1 <0>         0.0000
     11 C11         0.5834   -1.5696    1.4277 C.3       1 <0>         0.0000
     12 C12         2.8225   -2.5093   -2.5463 C.3       1 <0>         0.0000
     13 N1          1.8188   -1.1520   -0.7179 N.am      1 <0>         0.0000
     14 O1          3.2750   -2.8285   -0.2129 O.2       1 <0>         0.0000
     15 F1          3.5832    0.3996   -6.4117 F         1 <0>         0.0000
     16 S1         -1.0936   -2.2796   -1.0010 S.3       1 <0>         0.0000
     17 S2         -1.0999   -1.1971    0.7847 S.3       1 <0>         0.0000
     18 H1          6.4832    0.3919   -2.9521 H         1 <0>         0.0000
     19 H2          5.1415   -1.3109   -1.7444 H         1 <0>         0.0000
     20 H3          5.7368    1.2212   -5.2007 H         1 <0>         0.0000
     21 H4          2.3212   -1.3660   -5.0126 H         1 <0>         0.0000
     22 H5          1.5725   -0.0894   -2.5198 H         1 <0>         0.0000
     23 H6          0.6559    0.4865   -1.1434 H         1 <0>         0.0000
     24 H7          1.5539    0.2575    0.7952 H         1 <0>         0.0000
     25 H8          2.6548   -1.0794    1.1810 H         1 <0>         0.0000
     26 H9         -0.9983   -0.3774   -2.5180 H         1 <0>         0.0000
     27 H10        -0.0622   -1.7752   -3.0447 H         1 <0>         0.0000
     28 H11         0.7440   -2.6483    1.3806 H         1 <0>         0.0000
     29 H12         0.5588   -1.2668    2.4810 H         1 <0>         0.0000
     30 H13         1.8577   -2.6501   -3.0378 H         1 <0>         0.0000
     31 H14         3.3420   -3.4702   -2.5725 H         1 <0>         0.0000
@<TRIPOS>BOND
     1    1    2 ar
     2    1    3 ar
     3    1   18 1
     4    2    5 ar
     5    2   19 1
     6    3    6 ar
     7    3   20 1
     8    4    5 ar
     9    4    6 ar
    10    4   21 1
    11    5   12 1
    12    6   15 1
    13    7   12 1
    14    7   13 am
    15    7   14 2
    16    8   10 1
    17    8   13 1
    18    8   22 1
    19    8   23 1
    20    9   11 1
    21    9   13 1
    22    9   24 1
    23    9   25 1
    24   10   16 1
    25   10   26 1
    26   10   27 1
    27   11   17 1
    28   11   28 1
    29   11   29 1
    30   12   30 1
    31   12   31 1
    32   16   17 1
