@<TRIPOS>MOLECULE
*****
   38    40     0     0     0
SMALL
NO_CHARGES

@<TRIPOS>ATOM
      1 C1          2.4937   -0.4332    0.0911 C.ar      1 <0>         0.0000
      2 C2          2.3662   -2.2418    1.6739 C.ar      1 <0>         0.0000
      3 C3          1.3866    0.1763    0.6850 C.ar      1 <0>         0.0000
      4 C4          1.2530   -1.6529    2.2714 C.ar      1 <0>         0.0000
      5 C5         -2.3247    1.0918    2.8971 C.2       1 <0>         0.0000
      6 C6          3.0028   -1.6476    0.5724 C.ar      1 <0>         0.0000
      7 C7          0.7612   -0.4447    1.7682 C.ar      1 <0>         0.0000
      8 C8         -1.5666    0.7974    4.0737 C.2       1 <0>         0.0000
      9 C9         -1.5112    0.6467    1.8508 C.2       1 <0>         0.0000
     10 C10        -6.0847    3.2647    0.8890 C.2       1 <0>         0.0000
     11 C11        -6.5563    2.3585    2.8318 C.2       1 <0>         0.0000
     12 C12        -3.6343    1.6986    2.8783 C.2       1 <0>         0.0000
     13 C13         4.2233   -2.2832   -0.0508 C.3       1 <0>         0.0000
     14 C14        -1.9452    1.0539    5.5002 C.3       1 <0>         0.0000
     15 C15        -5.3334    3.6545   -0.3357 C.3       1 <0>         0.0000
     16 N1         -0.4031    0.2335    3.7712 N.2       1 <0>         0.0000
     17 N2         -7.3164    3.5929    1.1988 N.2       1 <0>         0.0000
     18 N3         -7.6196    3.0128    2.4273 N.2       1 <0>         0.0000
     19 N4         -4.2731    1.9408    1.7836 N.2       1 <0>         0.0000
     20 N5         -0.3693    0.1522    2.4007 N.pl3     1 <0>         0.0000
     21 N6         -5.5366    2.4910    1.8990 N.pl3     1 <0>         0.0000
     22 S1         -6.4836    1.3499    4.2788 S.3       1 <0>         0.0000
     23 Cl1        -1.8337    0.6046    0.1668 Cl        1 <0>         0.0000
     24 H1          2.9741    0.0535   -0.7542 H         1 <0>         0.0000
     25 H2          2.7429   -3.1833    2.0669 H         1 <0>         0.0000
     26 H3          1.0225    1.1283    0.3140 H         1 <0>         0.0000
     27 H4          0.7641   -2.1132    3.1236 H         1 <0>         0.0000
     28 H5         -4.0407    1.9587    3.8589 H         1 <0>         0.0000
     29 H6          5.1290   -2.0154    0.5065 H         1 <0>         0.0000
     30 H7          4.1494   -3.3748   -0.0488 H         1 <0>         0.0000
     31 H8          4.3627   -1.9540   -1.0843 H         1 <0>         0.0000
     32 H9         -2.8787    0.5444    5.7619 H         1 <0>         0.0000
     33 H10        -1.1542    0.6892    6.1585 H         1 <0>         0.0000
     34 H11        -2.0868    2.1233    5.6895 H         1 <0>         0.0000
     35 H12        -4.4650    4.2737   -0.0891 H         1 <0>         0.0000
     36 H13        -4.9664    2.7708   -0.8660 H         1 <0>         0.0000
     37 H14        -6.0028    4.2196   -0.9860 H         1 <0>         0.0000
     38 H15        -7.8205    1.3985    4.4492 H         1 <0>         0.0000
@<TRIPOS>BOND
     1    1    3 ar
     2    1    6 ar
     3    1   24 1
     4    2    4 ar
     5    2    6 ar
     6    2   25 1
     7    3    7 ar
     8    3   26 1
     9    4    7 ar
    10    4   27 1
    11    5    8 1
    12    5    9 2
    13    5   12 1
    14    6   13 1
    15    7   20 1
    16    8   14 1
    17    8   16 2
    18    9   20 1
    19    9   23 1
    20   10   15 1
    21   10   17 2
    22   10   21 1
    23   11   18 2
    24   11   21 1
    25   11   22 1
    26   12   19 2
    27   12   28 1
    28   13   29 1
    29   13   30 1
    30   13   31 1
    31   14   32 1
    32   14   33 1
    33   14   34 1
    34   15   35 1
    35   15   36 1
    36   15   37 1
    37   16   20 1
    38   17   18 1
    39   19   21 1
    40   22   38 1
