@<TRIPOS>MOLECULE
*****
   35    36     0     0     0
SMALL
NO_CHARGES

@<TRIPOS>ATOM
      1 C1         -4.8241   -1.2362   -0.0622 C.2       1 <0>         0.0000
      2 C2         -4.9613   -0.1140   -0.9018 C.2       1 <0>         0.0000
      3 C3         -0.7655   -1.8282   -1.2778 C.2       1 <0>         0.0000
      4 C4          0.8652   -0.4298    1.6047 C.3       1 <0>         0.0000
      5 C5          0.9930   -1.0261    0.2025 C.3       1 <0>         0.0000
      6 C6         -0.6153    0.6180   -0.6690 C.3       1 <0>         0.0000
      7 C7         -0.8179    1.2426    0.7248 C.3       1 <0>         0.0000
      8 C8          0.4622    1.0553    1.5722 C.3       1 <0>         0.0000
      9 C9         -2.0908    0.7051    1.3893 C.3       1 <0>         0.0000
     10 C10         0.3206    1.6170    2.9893 C.3       1 <0>         0.0000
     11 C11        -2.0159   -1.5661   -2.1358 C.3       1 <0>         0.0000
     12 N1         -3.6992   -1.8818   -0.3931 N.2       1 <0>         0.0000
     13 N2         -3.9181   -0.0809   -1.7411 N.2       1 <0>         0.0000
     14 N3         -3.1965   -1.1513   -1.3890 N.pl3     1 <0>         0.0000
     15 N4         -0.2338   -0.7941   -0.5660 N.am      1 <0>         0.0000
     16 O1         -0.2796   -2.9605   -1.2926 O.2       1 <0>         0.0000
     17 O2          1.4692    1.8171    0.8636 O.3       1 <0>         0.0000
     18 H1         -5.4562   -1.5947    0.7388 H         1 <0>         0.0000
     19 H2         -5.7302    0.6455   -0.9399 H         1 <0>         0.0000
     20 H3          0.1248   -0.9988    2.1766 H         1 <0>         0.0000
     21 H4          1.8229   -0.5376    2.1309 H         1 <0>         0.0000
     22 H5          1.8335   -0.5607   -0.3278 H         1 <0>         0.0000
     23 H6          1.1663   -2.1003    0.2412 H         1 <0>         0.0000
     24 H7         -1.5305    0.7250   -1.2478 H         1 <0>         0.0000
     25 H8          0.1828    1.1567   -1.1925 H         1 <0>         0.0000
     26 H9         -0.9291    2.3230    0.5726 H         1 <0>         0.0000
     27 H10        -2.0559   -0.3788    1.5275 H         1 <0>         0.0000
     28 H11        -2.9576    0.9235    0.7602 H         1 <0>         0.0000
     29 H12        -2.2694    1.1706    2.3620 H         1 <0>         0.0000
     30 H13        -0.0205    2.6565    2.9577 H         1 <0>         0.0000
     31 H14         1.2911    1.5932    3.5004 H         1 <0>         0.0000
     32 H15        -0.3794    1.0351    3.5944 H         1 <0>         0.0000
     33 H16        -2.2298   -2.5102   -2.6378 H         1 <0>         0.0000
     34 H17        -1.8401   -0.7942   -2.8860 H         1 <0>         0.0000
     35 H18         2.3011    1.7431    1.3584 H         1 <0>         0.0000
@<TRIPOS>BOND
     1    1    2 1
     2    1   12 2
     3    1   18 1
     4    2   13 2
     5    2   19 1
     6    3   11 1
     7    3   15 am
     8    3   16 2
     9    4    5 1
    10    4    8 1
    11    4   20 1
    12    4   21 1
    13    5   15 1
    14    5   22 1
    15    5   23 1
    16    6    7 1
    17    6   15 1
    18    6   24 1
    19    6   25 1
    20    7    8 1
    21    7    9 1
    22    7   26 1
    23    8   10 1
    24    8   17 1
    25    9   27 1
    26    9   28 1
    27    9   29 1
    28   10   30 1
    29   10   31 1
    30   10   32 1
    31   11   14 1
    32   11   33 1
    33   11   34 1
    34   12   14 1
    35   13   14 1
    36   17   35 1
