@<TRIPOS>MOLECULE
*****
   37    39     0     0     0
SMALL
NO_CHARGES

@<TRIPOS>ATOM
      1 C1         -0.9227   -5.6811   11.4188 C.1       1 <0>         0.0000
      2 C2          0.0722   -5.3695   10.7982 C.1       1 <0>         0.0000
      3 C3          1.5102   -1.1512   -0.0467 C.ar      1 <0>         0.0000
      4 C4          0.1650   -1.2504    0.3295 C.ar      1 <0>         0.0000
      5 C5          3.6377   -4.6271    9.9986 C.ar      1 <0>         0.0000
      6 C6          2.5002   -4.9881   10.7196 C.ar      1 <0>         0.0000
      7 C7          2.4951   -1.7117    0.7663 C.ar      1 <0>         0.0000
      8 C8         -0.1735   -1.9057    1.5129 C.ar      1 <0>         0.0000
      9 C9          3.5435   -4.2865    8.6500 C.ar      1 <0>         0.0000
     10 C10         1.1472   -4.6583    8.7111 C.ar      1 <0>         0.0000
     11 C11         1.2521   -5.0033   10.0709 C.ar      1 <0>         0.0000
     12 C12         2.1618   -2.3722    1.9584 C.ar      1 <0>         0.0000
     13 C13         0.8133   -2.4662    2.3369 C.ar      1 <0>         0.0000
     14 C14         2.2978   -4.2994    7.9952 C.ar      1 <0>         0.0000
     15 C15         1.1938   -3.7578    5.8012 C.2       1 <0>         0.0000
     16 C16         3.2427   -2.9750    2.8315 C.3       1 <0>         0.0000
     17 C17         0.3792   -3.1769    3.6042 C.3       1 <0>         0.0000
     18 C18         2.6619   -4.0354    3.7642 C.3       1 <0>         0.0000
     19 N1          1.5119   -3.4771    4.4786 N.am      1 <0>         0.0000
     20 N2          2.2943   -3.9662    6.6255 N.am      1 <0>         0.0000
     21 O1          0.0328   -3.7720    6.2065 O.2       1 <0>         0.0000
     22 H1         -1.8033   -5.9532   11.9609 H         1 <0>         0.0000
     23 H2          1.7863   -0.6439   -0.9674 H         1 <0>         0.0000
     24 H3         -0.6125   -0.8181   -0.2949 H         1 <0>         0.0000
     25 H4          4.6082   -4.6097   10.4871 H         1 <0>         0.0000
     26 H5          2.5646   -5.2541   11.7698 H         1 <0>         0.0000
     27 H6          3.5411   -1.6422    0.4736 H         1 <0>         0.0000
     28 H7         -1.2184   -1.9811    1.8082 H         1 <0>         0.0000
     29 H8          4.4407   -4.0095    8.0991 H         1 <0>         0.0000
     30 H9          0.1832   -4.6565    8.2235 H         1 <0>         0.0000
     31 H10         4.0272   -3.4190    2.2083 H         1 <0>         0.0000
     32 H11         3.7152   -2.1881    3.4335 H         1 <0>         0.0000
     33 H12        -0.3244   -2.5588    4.1631 H         1 <0>         0.0000
     34 H13        -0.1583   -4.1026    3.3452 H         1 <0>         0.0000
     35 H14         2.3347   -4.9090    3.1795 H         1 <0>         0.0000
     36 H15         3.4167   -4.3962    4.4629 H         1 <0>         0.0000
     37 H16         3.1904   -3.6678    6.2676 H         1 <0>         0.0000
@<TRIPOS>BOND
     1    1    2 3
     2    1   22 1
     3    2   11 1
     4    3    4 ar
     5    3    7 ar
     6    3   23 1
     7    4    8 ar
     8    4   24 1
     9    5    6 ar
    10    5    9 ar
    11    5   25 1
    12    6   11 ar
    13    6   26 1
    14    7   12 ar
    15    7   27 1
    16    8   13 ar
    17    8   28 1
    18    9   14 ar
    19    9   29 1
    20   10   11 ar
    21   10   14 ar
    22   10   30 1
    23   12   13 ar
    24   12   16 1
    25   13   17 1
    26   14   20 1
    27   15   19 am
    28   15   20 am
    29   15   21 2
    30   16   18 1
    31   16   31 1
    32   16   32 1
    33   17   19 1
    34   17   33 1
    35   17   34 1
    36   18   19 1
    37   18   35 1
    38   18   36 1
    39   20   37 1
