@<TRIPOS>MOLECULE
*****
   37    39     0     0     0
SMALL
NO_CHARGES

@<TRIPOS>ATOM
      1 C1          4.8422   -6.9046   10.8678 C.1       1 <0>         0.0000
      2 C2          4.1040   -6.0765   10.3758 C.1       1 <0>         0.0000
      3 C3          2.4471   -1.2678    0.7840 C.ar      1 <0>         0.0000
      4 C4          1.1118   -0.8791    0.9442 C.ar      1 <0>         0.0000
      5 C5          1.9357   -3.0674    9.9511 C.ar      1 <0>         0.0000
      6 C6          2.7830   -3.9995   10.5476 C.ar      1 <0>         0.0000
      7 C7          2.9418   -2.3510    1.5109 C.ar      1 <0>         0.0000
      8 C8          0.2918   -1.5793    1.8293 C.ar      1 <0>         0.0000
      9 C9          1.5196   -3.1949    8.6230 C.ar      1 <0>         0.0000
     10 C10         2.8202   -5.2355    8.4592 C.ar      1 <0>         0.0000
     11 C11         3.2325   -5.0994    9.7935 C.ar      1 <0>         0.0000
     12 C12         2.1234   -3.0607    2.4019 C.ar      1 <0>         0.0000
     13 C13         0.7841   -2.6667    2.5634 C.ar      1 <0>         0.0000
     14 C14         1.9669   -4.2922    7.8662 C.ar      1 <0>         0.0000
     15 C15         0.7418   -3.7880    5.7287 C.2       1 <0>         0.0000
     16 C16         2.6873   -4.2304    3.1885 C.3       1 <0>         0.0000
     17 C17        -0.1508   -3.4124    3.5035 C.3       1 <0>         0.0000
     18 C18         1.5591   -5.1049    3.7406 C.3       1 <0>         0.0000
     19 N1          0.5670   -4.2818    4.4366 N.am      1 <0>         0.0000
     20 N2          1.6261   -4.5120    6.5158 N.am      1 <0>         0.0000
     21 O1          0.1267   -2.8070    6.1452 O.2       1 <0>         0.0000
     22 H1          5.4921   -7.6317   11.3063 H         1 <0>         0.0000
     23 H2          3.0963   -0.7297    0.0982 H         1 <0>         0.0000
     24 H3          0.7162   -0.0334    0.3877 H         1 <0>         0.0000
     25 H4          1.5845   -2.2164   10.5286 H         1 <0>         0.0000
     26 H5          3.0993   -3.8908   11.5801 H         1 <0>         0.0000
     27 H6          3.9791   -2.6562    1.3861 H         1 <0>         0.0000
     28 H7         -0.7443   -1.2736    1.9625 H         1 <0>         0.0000
     29 H8          0.8587   -2.4689    8.1718 H         1 <0>         0.0000
     30 H9          3.1742   -6.0897    7.8862 H         1 <0>         0.0000
     31 H10         3.3503   -4.8287    2.5529 H         1 <0>         0.0000
     32 H11         3.2961   -3.8577    4.0223 H         1 <0>         0.0000
     33 H12        -0.7437   -2.7102    4.0878 H         1 <0>         0.0000
     34 H13        -0.8438   -4.0336    2.9207 H         1 <0>         0.0000
     35 H14         1.0359   -5.6046    2.9180 H         1 <0>         0.0000
     36 H15         1.9414   -5.9082    4.3750 H         1 <0>         0.0000
     37 H16         2.0123   -5.3581    6.1255 H         1 <0>         0.0000
@<TRIPOS>BOND
     1    1    2 3
     2    1   22 1
     3    2   11 1
     4    3    4 ar
     5    3    7 ar
     6    3   23 1
     7    4    8 ar
     8    4   24 1
     9    5    6 ar
    10    5    9 ar
    11    5   25 1
    12    6   11 ar
    13    6   26 1
    14    7   12 ar
    15    7   27 1
    16    8   13 ar
    17    8   28 1
    18    9   14 ar
    19    9   29 1
    20   10   11 ar
    21   10   14 ar
    22   10   30 1
    23   12   13 ar
    24   12   16 1
    25   13   17 1
    26   14   20 1
    27   15   19 am
    28   15   20 am
    29   15   21 2
    30   16   18 1
    31   16   31 1
    32   16   32 1
    33   17   19 1
    34   17   33 1
    35   17   34 1
    36   18   19 1
    37   18   35 1
    38   18   36 1
    39   20   37 1
