@<TRIPOS>MOLECULE
*****
   31    32     0     0     0
SMALL
NO_CHARGES

@<TRIPOS>ATOM
      1 C1         -5.7354    0.4808    0.8445 C.ar      1 <0>         0.0000
      2 C2         -4.6059   -0.2097    0.4001 C.ar      1 <0>         0.0000
      3 C3         -5.9693    1.8027    0.4495 C.ar      1 <0>         0.0000
      4 C4         -3.9083    1.7362   -0.8542 C.ar      1 <0>         0.0000
      5 C5         -3.6809    0.4135   -0.4519 C.ar      1 <0>         0.0000
      6 C6         -5.0432    2.3999   -0.3975 C.ar      1 <0>         0.0000
      7 C7         -1.7740   -1.1536    0.1526 C.2       1 <0>         0.0000
      8 C8         -0.5020   -1.2668    2.2153 C.3       1 <0>         0.0000
      9 C9         -0.8913    0.9720    1.1498 C.3       1 <0>         0.0000
     10 C10         0.9390   -1.6881    1.9277 C.3       1 <0>         0.0000
     11 C11         0.1686    1.5245    0.1725 C.3       1 <0>         0.0000
     12 C12        -2.4594   -0.3396   -0.9447 C.3       1 <0>         0.0000
     13 N1         -1.1126   -0.4724    1.1441 N.am      1 <0>         0.0000
     14 O1         -1.8590   -2.3837    0.1568 O.2       1 <0>         0.0000
     15 F1         -5.2462    3.6838   -0.7945 F         1 <0>         0.0000
     16 S1          2.1087   -0.2796    1.7439 S.3       1 <0>         0.0000
     17 S2          1.5969    0.4201   -0.1559 S.3       1 <0>         0.0000
     18 H1         -6.4445   -0.0118    1.5043 H         1 <0>         0.0000
     19 H2         -4.4370   -1.2365    0.7128 H         1 <0>         0.0000
     20 H3         -6.8395    2.3596    0.7825 H         1 <0>         0.0000
     21 H4         -3.2195    2.2551   -1.5155 H         1 <0>         0.0000
     22 H5         -1.1078   -2.1661    2.3455 H         1 <0>         0.0000
     23 H6         -0.5448   -0.6824    3.1389 H         1 <0>         0.0000
     24 H7         -0.5753    1.2288    2.1615 H         1 <0>         0.0000
     25 H8         -1.8332    1.4997    0.9734 H         1 <0>         0.0000
     26 H9          1.3264   -2.2715    2.7710 H         1 <0>         0.0000
     27 H10         0.9900   -2.3038    1.0277 H         1 <0>         0.0000
     28 H11        -0.2484    1.7029   -0.8237 H         1 <0>         0.0000
     29 H12         0.5224    2.4863    0.5544 H         1 <0>         0.0000
     30 H13        -2.7533   -1.0718   -1.7006 H         1 <0>         0.0000
     31 H14        -1.7578    0.3497   -1.4193 H         1 <0>         0.0000
@<TRIPOS>BOND
     1    1    2 ar
     2    1    3 ar
     3    1   18 1
     4    2    5 ar
     5    2   19 1
     6    3    6 ar
     7    3   20 1
     8    4    5 ar
     9    4    6 ar
    10    4   21 1
    11    5   12 1
    12    6   15 1
    13    7   12 1
    14    7   13 am
    15    7   14 2
    16    8   10 1
    17    8   13 1
    18    8   22 1
    19    8   23 1
    20    9   11 1
    21    9   13 1
    22    9   24 1
    23    9   25 1
    24   10   16 1
    25   10   26 1
    26   10   27 1
    27   11   17 1
    28   11   28 1
    29   11   29 1
    30   12   30 1
    31   12   31 1
    32   16   17 1
