@<TRIPOS>MOLECULE
*****
   35    36     0     0     0
SMALL
NO_CHARGES

@<TRIPOS>ATOM
      1 C1          4.7936   -5.5193   -1.3163 C.2       1 <0>         0.0000
      2 C2          5.1334   -4.4393   -2.1557 C.2       1 <0>         0.0000
      3 C3          1.6177   -2.9046   -0.3833 C.2       1 <0>         0.0000
      4 C4          0.7651    0.2249    0.8974 C.3       1 <0>         0.0000
      5 C5          0.9991   -1.2140    1.3755 C.3       1 <0>         0.0000
      6 C6         -0.6612   -2.0345   -0.2287 C.3       1 <0>         0.0000
      7 C7         -0.9441   -0.6147   -0.7459 C.3       1 <0>         0.0000
      8 C8         -0.6554    0.4486    0.3390 C.3       1 <0>         0.0000
      9 C9         -2.3562   -0.5290   -1.3342 C.3       1 <0>         0.0000
     10 C10        -1.6997    0.4642    1.4646 C.3       1 <0>         0.0000
     11 C11         3.0562   -2.8915    0.1783 C.3       1 <0>         0.0000
     12 N1          4.0150   -5.0635   -0.3289 N.2       1 <0>         0.0000
     13 N2          4.5608   -3.3298   -1.6760 N.2       1 <0>         0.0000
     14 N3          3.9184   -3.7575   -0.5868 N.pl3     1 <0>         0.0000
     15 N4          0.6967   -2.1583    0.3032 N.am      1 <0>         0.0000
     16 O1          1.3436   -3.5691   -1.3764 O.2       1 <0>         0.0000
     17 O2         -0.6892    1.7124   -0.3540 O.3       1 <0>         0.0000
     18 H1          5.0687   -6.5638   -1.3719 H         1 <0>         0.0000
     19 H2          5.7464   -4.4095   -3.0462 H         1 <0>         0.0000
     20 H3          0.9536    0.9207    1.7256 H         1 <0>         0.0000
     21 H4          1.4792    0.4587    0.1001 H         1 <0>         0.0000
     22 H5          2.0258   -1.3343    1.7182 H         1 <0>         0.0000
     23 H6          0.3553   -1.4431    2.2345 H         1 <0>         0.0000
     24 H7         -1.3730   -2.3058    0.5621 H         1 <0>         0.0000
     25 H8         -0.7676   -2.7581   -1.0360 H         1 <0>         0.0000
     26 H9         -0.2267   -0.4144   -1.5511 H         1 <0>         0.0000
     27 H10        -3.1173   -0.8540   -0.6163 H         1 <0>         0.0000
     28 H11        -2.4374   -1.1754   -2.2141 H         1 <0>         0.0000
     29 H12        -2.5860    0.4944   -1.6402 H         1 <0>         0.0000
     30 H13        -2.6809    0.7368    1.0704 H         1 <0>         0.0000
     31 H14        -1.4241    1.2034    2.2268 H         1 <0>         0.0000
     32 H15        -1.7905   -0.5030    1.9674 H         1 <0>         0.0000
     33 H16         3.0723   -3.2387    1.2132 H         1 <0>         0.0000
     34 H17         3.4803   -1.8866    0.1321 H         1 <0>         0.0000
     35 H18        -0.5602    2.4182    0.3003 H         1 <0>         0.0000
@<TRIPOS>BOND
     1    1    2 1
     2    1   12 2
     3    1   18 1
     4    2   13 2
     5    2   19 1
     6    3   11 1
     7    3   15 am
     8    3   16 2
     9    4    5 1
    10    4    8 1
    11    4   20 1
    12    4   21 1
    13    5   15 1
    14    5   22 1
    15    5   23 1
    16    6    7 1
    17    6   15 1
    18    6   24 1
    19    6   25 1
    20    7    8 1
    21    7    9 1
    22    7   26 1
    23    8   10 1
    24    8   17 1
    25    9   27 1
    26    9   28 1
    27    9   29 1
    28   10   30 1
    29   10   31 1
    30   10   32 1
    31   11   14 1
    32   11   33 1
    33   11   34 1
    34   12   14 1
    35   13   14 1
    36   17   35 1
