@<TRIPOS>MOLECULE
*****
   37    39     0     0     0
SMALL
NO_CHARGES

@<TRIPOS>ATOM
      1 C1          0.2917   -1.7916   11.7463 C.1       1 <0>         0.0000
      2 C2         -0.3095   -1.8905   10.6970 C.1       1 <0>         0.0000
      3 C3          2.0008   -2.2657   -0.7885 C.ar      1 <0>         0.0000
      4 C4          0.6173   -2.3989   -0.6173 C.ar      1 <0>         0.0000
      5 C5         -3.1077   -1.9734    8.2346 C.ar      1 <0>         0.0000
      6 C6         -2.4251   -1.8594    9.4452 C.ar      1 <0>         0.0000
      7 C7          2.8437   -2.3479    0.3196 C.ar      1 <0>         0.0000
      8 C8          0.0994   -2.6083    0.6602 C.ar      1 <0>         0.0000
      9 C9         -2.4149   -2.2274    7.0520 C.ar      1 <0>         0.0000
     10 C10        -0.3186   -2.2619    8.2721 C.ar      1 <0>         0.0000
     11 C11        -1.0261   -2.0046    9.4607 C.ar      1 <0>         0.0000
     12 C12         2.3306   -2.5532    1.6092 C.ar      1 <0>         0.0000
     13 C13         0.9443   -2.6804    1.7767 C.ar      1 <0>         0.0000
     14 C14        -1.0148   -2.3732    7.0606 C.ar      1 <0>         0.0000
     15 C15         0.9459   -2.8828    5.5672 C.2       1 <0>         0.0000
     16 C16         3.2409   -2.6660    2.8101 C.3       1 <0>         0.0000
     17 C17         0.3078   -2.8685    3.1436 C.3       1 <0>         0.0000
     18 C18         2.5954   -3.5315    3.8878 C.3       1 <0>         0.0000
     19 N1          1.2757   -2.9985    4.2269 N.am      1 <0>         0.0000
     20 N2         -0.3950   -2.6104    5.8164 N.am      1 <0>         0.0000
     21 O1          1.7808   -3.0032    6.4645 O.2       1 <0>         0.0000
     22 H1          0.8269   -1.7068   12.6680 H         1 <0>         0.0000
     23 H2          2.4169   -2.1071   -1.7799 H         1 <0>         0.0000
     24 H3         -0.0499   -2.3440   -1.4734 H         1 <0>         0.0000
     25 H4         -4.1885   -1.8643    8.2075 H         1 <0>         0.0000
     26 H5         -2.9567   -1.6620   10.3706 H         1 <0>         0.0000
     27 H6          3.9201   -2.2581    0.1884 H         1 <0>         0.0000
     28 H7         -0.9760   -2.7156    0.7940 H         1 <0>         0.0000
     29 H8         -2.9614   -2.3128    6.1142 H         1 <0>         0.0000
     30 H9          0.7549   -2.3809    8.2909 H         1 <0>         0.0000
     31 H10         4.2032   -3.0977    2.5147 H         1 <0>         0.0000
     32 H11         3.4458   -1.6725    3.2281 H         1 <0>         0.0000
     33 H12        -0.3147   -1.9846    3.3283 H         1 <0>         0.0000
     34 H13        -0.3634   -3.7427    3.1013 H         1 <0>         0.0000
     35 H14         2.4973   -4.5660    3.5278 H         1 <0>         0.0000
     36 H15         3.1849   -3.5416    4.8025 H         1 <0>         0.0000
     37 H16        -1.0382   -2.6637    5.0409 H         1 <0>         0.0000
@<TRIPOS>BOND
     1    1    2 3
     2    1   22 1
     3    2   11 1
     4    3    4 ar
     5    3    7 ar
     6    3   23 1
     7    4    8 ar
     8    4   24 1
     9    5    6 ar
    10    5    9 ar
    11    5   25 1
    12    6   11 ar
    13    6   26 1
    14    7   12 ar
    15    7   27 1
    16    8   13 ar
    17    8   28 1
    18    9   14 ar
    19    9   29 1
    20   10   11 ar
    21   10   14 ar
    22   10   30 1
    23   12   13 ar
    24   12   16 1
    25   13   17 1
    26   14   20 1
    27   15   19 am
    28   15   20 am
    29   15   21 2
    30   16   18 1
    31   16   31 1
    32   16   32 1
    33   17   19 1
    34   17   33 1
    35   17   34 1
    36   18   19 1
    37   18   35 1
    38   18   36 1
    39   20   37 1
