@<TRIPOS>MOLECULE
*****
   31    32     0     0     0
SMALL
NO_CHARGES

@<TRIPOS>ATOM
      1 C1         -6.1454   -0.0123   -1.3154 C.ar      1 <0>         0.0000
      2 C2         -4.9780    0.6294   -0.8896 C.ar      1 <0>         0.0000
      3 C3         -6.0811   -1.0798   -2.2144 C.ar      1 <0>         0.0000
      4 C4         -3.6518   -0.8579   -2.2556 C.ar      1 <0>         0.0000
      5 C5         -3.7258    0.2133   -1.3556 C.ar      1 <0>         0.0000
      6 C6         -4.8252   -1.4784   -2.6633 C.ar      1 <0>         0.0000
      7 C7         -1.7143    0.0735    0.1717 C.2       1 <0>         0.0000
      8 C8          0.2160    1.6641   -0.0460 C.3       1 <0>         0.0000
      9 C9          0.2725   -0.3116    1.5000 C.3       1 <0>         0.0000
     10 C10         1.1183    1.3249   -1.2389 C.3       1 <0>         0.0000
     11 C11         0.7165   -1.6784    0.9594 C.3       1 <0>         0.0000
     12 C12        -2.4600    0.8920   -0.8933 C.3       1 <0>         0.0000
     13 N1         -0.4717    0.5199    0.5513 N.am      1 <0>         0.0000
     14 O1         -2.2083   -0.9322    0.6782 O.2       1 <0>         0.0000
     15 F1         -4.7433   -2.5165   -3.5380 F         1 <0>         0.0000
     16 S1          2.4568    0.1226   -0.8573 S.3       1 <0>         0.0000
     17 S2          1.3619   -1.6550   -0.7632 S.3       1 <0>         0.0000
     18 H1         -7.1120    0.3194   -0.9461 H         1 <0>         0.0000
     19 H2         -5.0425    1.4544   -0.1845 H         1 <0>         0.0000
     20 H3         -6.9706   -1.5955   -2.5627 H         1 <0>         0.0000
     21 H4         -2.6974   -1.2210   -2.6271 H         1 <0>         0.0000
     22 H5          0.8178    2.1376    0.7357 H         1 <0>         0.0000
     23 H6         -0.5202    2.4078   -0.3605 H         1 <0>         0.0000
     24 H7         -0.3479   -0.4898    2.3838 H         1 <0>         0.0000
     25 H8          1.1512    0.2571    1.8065 H         1 <0>         0.0000
     26 H9          0.5405    0.9264   -2.0764 H         1 <0>         0.0000
     27 H10         1.6290    2.2346   -1.5762 H         1 <0>         0.0000
     28 H11         1.4721   -2.0966    1.6300 H         1 <0>         0.0000
     29 H12        -0.1351   -2.3607    0.9090 H         1 <0>         0.0000
     30 H13        -1.7975    1.0651   -1.7473 H         1 <0>         0.0000
     31 H14        -2.6946    1.8776   -0.4760 H         1 <0>         0.0000
@<TRIPOS>BOND
     1    1    2 ar
     2    1    3 ar
     3    1   18 1
     4    2    5 ar
     5    2   19 1
     6    3    6 ar
     7    3   20 1
     8    4    5 ar
     9    4    6 ar
    10    4   21 1
    11    5   12 1
    12    6   15 1
    13    7   12 1
    14    7   13 am
    15    7   14 2
    16    8   10 1
    17    8   13 1
    18    8   22 1
    19    8   23 1
    20    9   11 1
    21    9   13 1
    22    9   24 1
    23    9   25 1
    24   10   16 1
    25   10   26 1
    26   10   27 1
    27   11   17 1
    28   11   28 1
    29   11   29 1
    30   12   30 1
    31   12   31 1
    32   16   17 1
