@<TRIPOS>MOLECULE
*****
   35    36     0     0     0
SMALL
NO_CHARGES

@<TRIPOS>ATOM
      1 C1          1.8206   -4.7855   -1.8529 C.2       1 <0>         0.0000
      2 C2          1.7625   -5.3681   -0.5721 C.2       1 <0>         0.0000
      3 C3         -1.0183   -1.8115   -0.9048 C.2       1 <0>         0.0000
      4 C4          0.8868   -0.5597    1.8113 C.3       1 <0>         0.0000
      5 C5          0.9952   -1.4680    0.5795 C.3       1 <0>         0.0000
      6 C6          0.1472    0.3324   -0.8519 C.3       1 <0>         0.0000
      7 C7         -0.0540    1.2830    0.3403 C.3       1 <0>         0.0000
      8 C8          0.9656    0.9322    1.4575 C.3       1 <0>         0.0000
      9 C9         -1.5192    1.2857    0.8007 C.3       1 <0>         0.0000
     10 C10         0.7921    1.7960    2.7100 C.3       1 <0>         0.0000
     11 C11        -1.0754   -3.3053   -0.5418 C.3       1 <0>         0.0000
     12 N1          0.7835   -3.9494   -1.9888 N.2       1 <0>         0.0000
     13 N2          0.6903   -4.8834    0.0675 N.2       1 <0>         0.0000
     14 N3          0.1462   -4.0459   -0.8225 N.pl3     1 <0>         0.0000
     15 N4          0.0192   -1.0659   -0.4353 N.am      1 <0>         0.0000
     16 O1         -1.9264   -1.3517   -1.6004 O.2       1 <0>         0.0000
     17 O2          2.3059    1.1154    0.9426 O.3       1 <0>         0.0000
     18 H1          2.5340   -4.9216   -2.6543 H         1 <0>         0.0000
     19 H2          2.4180   -6.0844   -0.0958 H         1 <0>         0.0000
     20 H3         -0.0579   -0.7569    2.3281 H         1 <0>         0.0000
     21 H4          1.6997   -0.7973    2.5055 H         1 <0>         0.0000
     22 H5          1.9996   -1.3926    0.1495 H         1 <0>         0.0000
     23 H6          0.8412   -2.5021    0.8772 H         1 <0>         0.0000
     24 H7         -0.5921    0.5206   -1.6292 H         1 <0>         0.0000
     25 H8          1.1500    0.4676   -1.2709 H         1 <0>         0.0000
     26 H9          0.1911    2.2968   -0.0102 H         1 <0>         0.0000
     27 H10        -1.8254    0.3076    1.1830 H         1 <0>         0.0000
     28 H11        -2.1766    1.5185   -0.0418 H         1 <0>         0.0000
     29 H12        -1.6985    2.0281    1.5830 H         1 <0>         0.0000
     30 H13         0.8049    2.8631    2.4538 H         1 <0>         0.0000
     31 H14         1.6150    1.6007    3.4039 H         1 <0>         0.0000
     32 H15        -0.1493    1.5885    3.2256 H         1 <0>         0.0000
     33 H16        -1.8963   -3.7191   -1.1289 H         1 <0>         0.0000
     34 H17        -1.2896   -3.4530    0.5181 H         1 <0>         0.0000
     35 H18         2.4118    2.0539    0.7177 H         1 <0>         0.0000
@<TRIPOS>BOND
     1    1    2 1
     2    1   12 2
     3    1   18 1
     4    2   13 2
     5    2   19 1
     6    3   11 1
     7    3   15 am
     8    3   16 2
     9    4    5 1
    10    4    8 1
    11    4   20 1
    12    4   21 1
    13    5   15 1
    14    5   22 1
    15    5   23 1
    16    6    7 1
    17    6   15 1
    18    6   24 1
    19    6   25 1
    20    7    8 1
    21    7    9 1
    22    7   26 1
    23    8   10 1
    24    8   17 1
    25    9   27 1
    26    9   28 1
    27    9   29 1
    28   10   30 1
    29   10   31 1
    30   10   32 1
    31   11   14 1
    32   11   33 1
    33   11   34 1
    34   12   14 1
    35   13   14 1
    36   17   35 1
