@<TRIPOS>MOLECULE
*****
   37    39     0     0     0
SMALL
NO_CHARGES

@<TRIPOS>ATOM
      1 C1          8.8470   -7.1457   -6.8834 C.1       1 <0>         0.0000
      2 C2          8.0180   -6.2602   -6.8434 C.1       1 <0>         0.0000
      3 C3          1.7408   -1.2900    0.4732 C.ar      1 <0>         0.0000
      4 C4          0.7396   -0.7959   -0.3713 C.ar      1 <0>         0.0000
      5 C5          6.1801   -3.0901   -7.5566 C.ar      1 <0>         0.0000
      6 C6          7.1505   -4.0878   -7.6290 C.ar      1 <0>         0.0000
      7 C7          2.4725   -2.4141    0.0891 C.ar      1 <0>         0.0000
      8 C8          0.4855   -1.4326   -1.5864 C.ar      1 <0>         0.0000
      9 C9          5.0974   -3.1783   -6.6773 C.ar      1 <0>         0.0000
     10 C10         5.9550   -5.3126   -5.9084 C.ar      1 <0>         0.0000
     11 C11         7.0385   -5.2155   -6.7947 C.ar      1 <0>         0.0000
     12 C12         2.2227   -3.0605   -1.1303 C.ar      1 <0>         0.0000
     13 C13         1.2190   -2.5606   -1.9776 C.ar      1 <0>         0.0000
     14 C14         4.9823   -4.3031   -5.8418 C.ar      1 <0>         0.0000
     15 C15         2.8272   -3.6922   -4.6987 C.2       1 <0>         0.0000
     16 C16         3.0391   -4.2766   -1.5299 C.3       1 <0>         0.0000
     17 C17         0.8960   -3.2340   -3.3028 C.3       1 <0>         0.0000
     18 C18         2.3345   -5.0604   -2.6397 C.3       1 <0>         0.0000
     19 N1          1.9423   -4.1638   -3.7299 N.am      1 <0>         0.0000
     20 N2          3.9437   -4.4895   -4.9065 N.am      1 <0>         0.0000
     21 O1          2.6092   -2.6672   -5.3438 O.2       1 <0>         0.0000
     22 H1          9.5799   -7.9232   -6.9233 H         1 <0>         0.0000
     23 H2          1.9487   -0.8021    1.4219 H         1 <0>         0.0000
     24 H3          0.1662    0.0823   -0.0862 H         1 <0>         0.0000
     25 H4          6.2607   -2.2172   -8.1991 H         1 <0>         0.0000
     26 H5          7.9868   -4.0090   -8.3163 H         1 <0>         0.0000
     27 H6          3.2502   -2.8016    0.7448 H         1 <0>         0.0000
     28 H7         -0.2864   -1.0446   -2.2484 H         1 <0>         0.0000
     29 H8          4.3481   -2.4009   -6.6327 H         1 <0>         0.0000
     30 H9          5.8790   -6.1889   -5.2683 H         1 <0>         0.0000
     31 H10         4.0282   -3.9590   -1.8844 H         1 <0>         0.0000
     32 H11         3.2052   -4.9227   -0.6601 H         1 <0>         0.0000
     33 H12        -0.0443   -3.7941   -3.2140 H         1 <0>         0.0000
     34 H13         0.7678   -2.4898   -4.0874 H         1 <0>         0.0000
     35 H14         2.9420   -5.8958   -2.9960 H         1 <0>         0.0000
     36 H15         1.4139   -5.5112   -2.2532 H         1 <0>         0.0000
     37 H16         3.9962   -5.3601   -4.3999 H         1 <0>         0.0000
@<TRIPOS>BOND
     1    1    2 3
     2    1   22 1
     3    2   11 1
     4    3    4 ar
     5    3    7 ar
     6    3   23 1
     7    4    8 ar
     8    4   24 1
     9    5    6 ar
    10    5    9 ar
    11    5   25 1
    12    6   11 ar
    13    6   26 1
    14    7   12 ar
    15    7   27 1
    16    8   13 ar
    17    8   28 1
    18    9   14 ar
    19    9   29 1
    20   10   11 ar
    21   10   14 ar
    22   10   30 1
    23   12   13 ar
    24   12   16 1
    25   13   17 1
    26   14   20 1
    27   15   19 am
    28   15   20 am
    29   15   21 2
    30   16   18 1
    31   16   31 1
    32   16   32 1
    33   17   19 1
    34   17   33 1
    35   17   34 1
    36   18   19 1
    37   18   35 1
    38   18   36 1
    39   20   37 1
