@<TRIPOS>MOLECULE
*****
   35    36     0     0     0
SMALL
NO_CHARGES

@<TRIPOS>ATOM
      1 C1         -2.6030   -2.6726   -3.9177 C.2       1 <0>         0.0000
      2 C2         -2.9425   -1.3253   -4.1455 C.2       1 <0>         0.0000
      3 C3          0.7393   -1.6140   -1.5375 C.2       1 <0>         0.0000
      4 C4          0.3902   -0.5322    1.8350 C.3       1 <0>         0.0000
      5 C5          0.4404   -1.7358    0.8695 C.3       1 <0>         0.0000
      6 C6         -1.1206   -0.3630   -0.4180 C.3       1 <0>         0.0000
      7 C7         -0.6364    1.0063    0.1188 C.3       1 <0>         0.0000
      8 C8          0.5520    0.8105    1.0999 C.3       1 <0>         0.0000
      9 C9         -1.8395    1.7608    0.6951 C.3       1 <0>         0.0000
     10 C10         0.7169    1.9634    2.0938 C.3       1 <0>         0.0000
     11 C11         0.3265   -1.0323   -2.8994 C.3       1 <0>         0.0000
     12 N1         -1.3603   -2.7215   -3.4216 N.2       1 <0>         0.0000
     13 N2         -1.9045   -0.5586   -3.7860 N.2       1 <0>         0.0000
     14 N3         -0.9927   -1.4421   -3.3625 N.pl3     1 <0>         0.0000
     15 N4         -0.0583   -1.3619   -0.4582 N.am      1 <0>         0.0000
     16 O1          1.7794   -2.2682   -1.4736 O.2       1 <0>         0.0000
     17 O2          1.7134    0.7727    0.2388 O.3       1 <0>         0.0000
     18 H1         -3.1726   -3.5774   -4.0816 H         1 <0>         0.0000
     19 H2         -3.8502   -0.8854   -4.5355 H         1 <0>         0.0000
     20 H3         -0.5591   -0.5115    2.3826 H         1 <0>         0.0000
     21 H4          1.1748   -0.6461    2.5928 H         1 <0>         0.0000
     22 H5          1.4590   -2.0968    0.7366 H         1 <0>         0.0000
     23 H6         -0.1574   -2.5656    1.2670 H         1 <0>         0.0000
     24 H7         -1.9035   -0.7545    0.2445 H         1 <0>         0.0000
     25 H8         -1.5854   -0.2404   -1.3929 H         1 <0>         0.0000
     26 H9         -0.2298    1.5876   -0.7160 H         1 <0>         0.0000
     27 H10        -2.2292    1.2709    1.5955 H         1 <0>         0.0000
     28 H11        -2.6516    1.7852   -0.0400 H         1 <0>         0.0000
     29 H12        -1.5960    2.7950    0.9497 H         1 <0>         0.0000
     30 H13         0.8072    2.9157    1.5630 H         1 <0>         0.0000
     31 H14         1.6311    1.8181    2.6809 H         1 <0>         0.0000
     32 H15        -0.1203    2.0297    2.7948 H         1 <0>         0.0000
     33 H16         1.0797   -1.3740   -3.6100 H         1 <0>         0.0000
     34 H17         0.3235    0.0583   -2.8757 H         1 <0>         0.0000
     35 H18         2.4790    0.4850    0.7621 H         1 <0>         0.0000
@<TRIPOS>BOND
     1    1    2 1
     2    1   12 2
     3    1   18 1
     4    2   13 2
     5    2   19 1
     6    3   11 1
     7    3   15 am
     8    3   16 2
     9    4    5 1
    10    4    8 1
    11    4   20 1
    12    4   21 1
    13    5   15 1
    14    5   22 1
    15    5   23 1
    16    6    7 1
    17    6   15 1
    18    6   24 1
    19    6   25 1
    20    7    8 1
    21    7    9 1
    22    7   26 1
    23    8   10 1
    24    8   17 1
    25    9   27 1
    26    9   28 1
    27    9   29 1
    28   10   30 1
    29   10   31 1
    30   10   32 1
    31   11   14 1
    32   11   33 1
    33   11   34 1
    34   12   14 1
    35   13   14 1
    36   17   35 1
