@<TRIPOS>MOLECULE
*****
   37    39     0     0     0
SMALL
NO_CHARGES

@<TRIPOS>ATOM
      1 C1          3.0354   -2.5133   -7.2730 C.1       1 <0>         0.0000
      2 C2          3.1499   -3.0694   -6.2005 C.1       1 <0>         0.0000
      3 C3          2.3235   -1.2948   -0.3839 C.ar      1 <0>         0.0000
      4 C4          1.7360   -1.2416   -1.6530 C.ar      1 <0>         0.0000
      5 C5          4.2435   -3.8352   -2.7108 C.ar      1 <0>         0.0000
      6 C6          4.1311   -3.1951   -3.9429 C.ar      1 <0>         0.0000
      7 C7          2.2068   -2.4541    0.3853 C.ar      1 <0>         0.0000
      8 C8          1.0380   -2.3491   -2.1343 C.ar      1 <0>         0.0000
      9 C9          3.5152   -4.9967   -2.4469 C.ar      1 <0>         0.0000
     10 C10         2.5354   -4.8838   -4.6566 C.ar      1 <0>         0.0000
     11 C11         3.2800   -3.7226   -4.9326 C.ar      1 <0>         0.0000
     12 C12         1.5111   -3.5743   -0.0908 C.ar      1 <0>         0.0000
     13 C13         0.9249   -3.5132   -1.3666 C.ar      1 <0>         0.0000
     14 C14         2.6472   -5.5162   -3.4170 C.ar      1 <0>         0.0000
     15 C15         1.3808   -6.9388   -1.8459 C.2       1 <0>         0.0000
     16 C16         1.4640   -4.8464    0.7405 C.3       1 <0>         0.0000
     17 C17         0.1879   -4.7187   -1.9185 C.3       1 <0>         0.0000
     18 C18         0.4905   -5.8945    0.1817 C.3       1 <0>         0.0000
     19 N1          0.6195   -5.9499   -1.2712 N.am      1 <0>         0.0000
     20 N2          1.8434   -6.6784   -3.1548 N.am      1 <0>         0.0000
     21 O1          1.6112   -8.0146   -1.2909 O.2       1 <0>         0.0000
     22 H1          2.9383   -2.0258   -8.2198 H         1 <0>         0.0000
     23 H2          2.8718   -0.4391    0.0022 H         1 <0>         0.0000
     24 H3          1.8323   -0.3498   -2.2666 H         1 <0>         0.0000
     25 H4          4.8936   -3.4236   -1.9444 H         1 <0>         0.0000
     26 H5          4.6892   -2.2871   -4.1487 H         1 <0>         0.0000
     27 H6          2.6689   -2.4962    1.3701 H         1 <0>         0.0000
     28 H7          0.6020   -2.3217   -3.1308 H         1 <0>         0.0000
     29 H8          3.6121   -5.4985   -1.4892 H         1 <0>         0.0000
     30 H9          1.8504   -5.2799   -5.4003 H         1 <0>         0.0000
     31 H10         2.4697   -5.2854    0.7719 H         1 <0>         0.0000
     32 H11         1.1997   -4.6088    1.7776 H         1 <0>         0.0000
     33 H12        -0.8909   -4.6084   -1.7355 H         1 <0>         0.0000
     34 H13         0.3144   -4.7961   -2.9959 H         1 <0>         0.0000
     35 H14         0.6890   -6.8849    0.5893 H         1 <0>         0.0000
     36 H15        -0.5449   -5.6241    0.4212 H         1 <0>         0.0000
     37 H16         2.2389   -7.5348   -3.5327 H         1 <0>         0.0000
@<TRIPOS>BOND
     1    1    2 3
     2    1   22 1
     3    2   11 1
     4    3    4 ar
     5    3    7 ar
     6    3   23 1
     7    4    8 ar
     8    4   24 1
     9    5    6 ar
    10    5    9 ar
    11    5   25 1
    12    6   11 ar
    13    6   26 1
    14    7   12 ar
    15    7   27 1
    16    8   13 ar
    17    8   28 1
    18    9   14 ar
    19    9   29 1
    20   10   11 ar
    21   10   14 ar
    22   10   30 1
    23   12   13 ar
    24   12   16 1
    25   13   17 1
    26   14   20 1
    27   15   19 am
    28   15   20 am
    29   15   21 2
    30   16   18 1
    31   16   31 1
    32   16   32 1
    33   17   19 1
    34   17   33 1
    35   17   34 1
    36   18   19 1
    37   18   35 1
    38   18   36 1
    39   20   37 1
