@<TRIPOS>MOLECULE
*****
   35    36     0     0     0
SMALL
NO_CHARGES

@<TRIPOS>ATOM
      1 C1         -1.9721    1.2189    2.9904 C.2       1 <0>         0.0000
      2 C2         -3.1976    0.6207    2.6400 C.2       1 <0>         0.0000
      3 C3         -0.7821   -1.9518    0.2159 C.2       1 <0>         0.0000
      4 C4         -0.3945    0.1374   -2.2996 C.3       1 <0>         0.0000
      5 C5          0.2730   -1.1698   -1.8232 C.3       1 <0>         0.0000
      6 C6          1.0697   -0.2445    0.2842 C.3       1 <0>         0.0000
      7 C7          0.9292    1.1662   -0.3727 C.3       1 <0>         0.0000
      8 C8         -0.3573    1.2486   -1.2306 C.3       1 <0>         0.0000
      9 C9          2.2019    1.5580   -1.1398 C.3       1 <0>         0.0000
     10 C10        -0.5447    2.6264   -1.8755 C.3       1 <0>         0.0000
     11 C11        -0.9270   -1.9003    1.7522 C.3       1 <0>         0.0000
     12 N1         -0.9853    0.3516    2.7216 N.2       1 <0>         0.0000
     13 N2         -2.9519   -0.6053    2.1631 N.2       1 <0>         0.0000
     14 N3         -1.6269   -0.7153    2.2341 N.pl3     1 <0>         0.0000
     15 N4          0.2398   -1.2565   -0.3652 N.am      1 <0>         0.0000
     16 O1         -1.5524   -2.6677   -0.4218 O.2       1 <0>         0.0000
     17 O2         -1.4965    0.9842   -0.3820 O.3       1 <0>         0.0000
     18 H1         -1.7597    2.1854    3.4277 H         1 <0>         0.0000
     19 H2         -4.2089    0.9966    2.7130 H         1 <0>         0.0000
     20 H3          0.0928    0.4830   -3.2166 H         1 <0>         0.0000
     21 H4         -1.4471   -0.0417   -2.5331 H         1 <0>         0.0000
     22 H5         -0.2287   -2.0439   -2.2348 H         1 <0>         0.0000
     23 H6          1.3253   -1.2026   -2.1285 H         1 <0>         0.0000
     24 H7          2.1171   -0.5669    0.2134 H         1 <0>         0.0000
     25 H8          0.8178   -0.1756    1.3375 H         1 <0>         0.0000
     26 H9          0.8080    1.8895    0.4448 H         1 <0>         0.0000
     27 H10         2.3581    0.9266   -2.0210 H         1 <0>         0.0000
     28 H11         3.0812    1.4471   -0.4965 H         1 <0>         0.0000
     29 H12         2.1714    2.5984   -1.4734 H         1 <0>         0.0000
     30 H13        -0.5259    3.4182   -1.1161 H         1 <0>         0.0000
     31 H14        -1.5181    2.6574   -2.3735 H         1 <0>         0.0000
     32 H15         0.2276    2.8494   -2.6167 H         1 <0>         0.0000
     33 H16         0.0289   -1.9450    2.2742 H         1 <0>         0.0000
     34 H17        -1.5319   -2.7647    2.0212 H         1 <0>         0.0000
     35 H18        -1.4724    1.6037    0.3659 H         1 <0>         0.0000
@<TRIPOS>BOND
     1    1    2 1
     2    1   12 2
     3    1   18 1
     4    2   13 2
     5    2   19 1
     6    3   11 1
     7    3   15 am
     8    3   16 2
     9    4    5 1
    10    4    8 1
    11    4   20 1
    12    4   21 1
    13    5   15 1
    14    5   22 1
    15    5   23 1
    16    6    7 1
    17    6   15 1
    18    6   24 1
    19    6   25 1
    20    7    8 1
    21    7    9 1
    22    7   26 1
    23    8   10 1
    24    8   17 1
    25    9   27 1
    26    9   28 1
    27    9   29 1
    28   10   30 1
    29   10   31 1
    30   10   32 1
    31   11   14 1
    32   11   33 1
    33   11   34 1
    34   12   14 1
    35   13   14 1
    36   17   35 1
