@<TRIPOS>MOLECULE
*****
   35    36     0     0     0
SMALL
NO_CHARGES

@<TRIPOS>ATOM
      1 C1         -2.8821    1.5475   -0.4959 C.ar      1 <0>         0.0000
      2 C2         -2.8246    3.9569   -0.2810 C.ar      1 <0>         0.0000
      3 C3         -1.4874    1.5065   -0.6522 C.ar      1 <0>         0.0000
      4 C4         -3.5447    2.7595   -0.2934 C.ar      1 <0>         0.0000
      5 C5         -0.7481    2.7061   -0.6262 C.ar      1 <0>         0.0000
      6 C6         -1.4445    3.9165   -0.4581 C.ar      1 <0>         0.0000
      7 C7         -0.7941    0.1758   -0.8277 C.2       1 <0>         0.0000
      8 C8         -1.4332   -2.6746   -4.0978 C.3       1 <0>         0.0000
      9 C9         -1.4392   -3.2036   -2.6567 C.3       1 <0>         0.0000
     10 C10        -2.0869   -1.2889   -4.1855 C.3       1 <0>         0.0000
     11 C11        -0.7814   -2.2118   -1.6876 C.3       1 <0>         0.0000
     12 C12        -1.4318   -0.2936   -3.2181 C.3       1 <0>         0.0000
     13 C13        -1.4482   -0.8339   -1.7683 C.3       1 <0>         0.0000
     14 C14         1.1146    2.7035   -2.0784 C.3       1 <0>         0.0000
     15 O1          0.2634   -0.0623   -0.2662 O.2       1 <0>         0.0000
     16 O2         -4.9026    2.8447   -0.1068 O.3       1 <0>         0.0000
     17 O3          0.6148    2.7240   -0.7364 O.3       1 <0>         0.0000
     18 Cl1        -0.5519    5.4215   -0.4637 Cl        1 <0>         0.0000
     19 H1         -3.4540    0.6231   -0.5025 H         1 <0>         0.0000
     20 H2         -3.3433    4.8983   -0.1345 H         1 <0>         0.0000
     21 H3         -1.9469   -3.3774   -4.7641 H         1 <0>         0.0000
     22 H4         -0.3956   -2.6058   -4.4522 H         1 <0>         0.0000
     23 H5         -2.4768   -3.3880   -2.3439 H         1 <0>         0.0000
     24 H6         -0.9231   -4.1691   -2.6059 H         1 <0>         0.0000
     25 H7         -2.0274   -0.9019   -5.2094 H         1 <0>         0.0000
     26 H8         -3.1556   -1.3743   -3.9436 H         1 <0>         0.0000
     27 H9         -0.8262   -2.5861   -0.6598 H         1 <0>         0.0000
     28 H10         0.2828   -2.1044   -1.9257 H         1 <0>         0.0000
     29 H11        -0.3883   -0.1293   -3.5190 H         1 <0>         0.0000
     30 H12        -1.9359    0.6772   -3.2691 H         1 <0>         0.0000
     31 H13        -2.5036   -0.9411   -1.4814 H         1 <0>         0.0000
     32 H14         2.2021    2.7403   -1.9982 H         1 <0>         0.0000
     33 H15         0.7554    3.5723   -2.6432 H         1 <0>         0.0000
     34 H16         0.8198    1.7816   -2.5932 H         1 <0>         0.0000
     35 H17        -5.2840    1.9526   -0.1134 H         1 <0>         0.0000
@<TRIPOS>BOND
     1    1    3 ar
     2    1    4 ar
     3    1   19 1
     4    2    4 ar
     5    2    6 ar
     6    2   20 1
     7    3    5 ar
     8    3    7 1
     9    4   16 1
    10    5    6 ar
    11    5   17 1
    12    6   18 1
    13    7   13 1
    14    7   15 2
    15    8   10 1
    16    8    9 1
    17    8   21 1
    18    8   22 1
    19    9   11 1
    20    9   23 1
    21    9   24 1
    22   10   12 1
    23   10   25 1
    24   10   26 1
    25   11   13 1
    26   11   27 1
    27   11   28 1
    28   12   13 1
    29   12   29 1
    30   12   30 1
    31   13   31 1
    32   14   17 1
    33   14   32 1
    34   14   33 1
    35   14   34 1
    36   16   35 1
