@<TRIPOS>MOLECULE
*****
   21    21     0     0     0
SMALL
NO_CHARGES

@<TRIPOS>ATOM
      1 C1         -2.3090   -2.4984    3.1738 C.2       1 <0>         0.0000
      2 C2         -0.5787   -1.2963    2.5444 C.2       1 <0>         0.0000
      3 C3         -0.9147   -2.3755    3.3247 C.2       1 <0>         0.0000
      4 C4         -1.0732    0.0613   -0.2096 C.3       1 <0>         0.0000
      5 C5         -1.4340    1.5956    1.7641 C.3       1 <0>         0.0000
      6 C6         -3.3673    0.5424    0.6140 C.3       1 <0>         0.0000
      7 C7         -1.9069    0.2993    1.0690 C.3       1 <0>         0.0000
      8 N1         -2.8234   -1.5712    2.3616 N.2       1 <0>         0.0000
      9 N2         -1.7467   -0.8553    1.9953 N.pl3     1 <0>         0.0000
     10 Br1         0.1828   -3.4619    4.3638 Br        1 <0>         0.0000
     11 H1         -2.9761   -3.2229    3.6194 H         1 <0>         0.0000
     12 H2          0.3679   -0.8156    2.3377 H         1 <0>         0.0000
     13 H3         -1.3892   -0.8542   -0.7229 H         1 <0>         0.0000
     14 H4         -1.1732    0.8811   -0.9289 H         1 <0>         0.0000
     15 H5         -0.0080   -0.0388    0.0293 H         1 <0>         0.0000
     16 H6         -1.9985    1.8059    2.6786 H         1 <0>         0.0000
     17 H7         -0.3778    1.5286    2.0493 H         1 <0>         0.0000
     18 H8         -1.5480    2.4607    1.1005 H         1 <0>         0.0000
     19 H9         -4.0234    0.7203    1.4746 H         1 <0>         0.0000
     20 H10        -3.4471    1.4216   -0.0357 H         1 <0>         0.0000
     21 H11        -3.7720   -0.3228    0.0762 H         1 <0>         0.0000
@<TRIPOS>BOND
     1    1    3 1
     2    1    8 2
     3    1   11 1
     4    2    3 2
     5    2    9 1
     6    2   12 1
     7    3   10 1
     8    4    7 1
     9    4   13 1
    10    4   14 1
    11    4   15 1
    12    5    7 1
    13    5   16 1
    14    5   17 1
    15    5   18 1
    16    6    7 1
    17    6   19 1
    18    6   20 1
    19    6   21 1
    20    7    9 1
    21    8    9 1
