@<TRIPOS>MOLECULE
*****
   32    34     0     0     0
SMALL
NO_CHARGES

@<TRIPOS>ATOM
      1 C1         -3.3567   -3.9110    1.2264 C.ar      1 <0>         0.0000
      2 C2         -4.0187   -2.7595    1.6526 C.ar      1 <0>         0.0000
      3 C3         -2.0506   -3.8265    0.7443 C.ar      1 <0>         0.0000
      4 C4          1.0287    0.4254   -2.5176 C.ar      1 <0>         0.0000
      5 C5         -0.3575    0.3504   -2.6017 C.ar      1 <0>         0.0000
      6 C6         -3.3745   -1.5236    1.5967 C.ar      1 <0>         0.0000
      7 C7         -1.4063   -2.5906    0.6885 C.ar      1 <0>         0.0000
      8 C8          1.6559    0.3443   -1.2750 C.ar      1 <0>         0.0000
      9 C9         -1.1169    0.1928   -1.4432 C.ar      1 <0>         0.0000
     10 C10        -2.0683   -1.4391    1.1147 C.ar      1 <0>         0.0000
     11 C11         0.9049    0.1755   -0.1007 C.ar      1 <0>         0.0000
     12 C12        -0.4989    0.1034   -0.1828 C.ar      1 <0>         0.0000
     13 C13         1.6286    0.1459    1.2215 C.3       1 <0>         0.0000
     14 C14         0.7911   -0.4137    2.3671 C.3       1 <0>         0.0000
     15 C15        -0.6035    0.2018    2.3637 C.3       1 <0>         0.0000
     16 C16        -1.3641   -0.0869    1.0541 C.3       1 <0>         0.0000
     17 H1         -3.8587   -4.8732    1.2685 H         1 <0>         0.0000
     18 H2         -5.0360   -2.8248    2.0269 H         1 <0>         0.0000
     19 H3         -1.5353   -4.7228    0.4114 H         1 <0>         0.0000
     20 H4          1.6226    0.5520   -3.4180 H         1 <0>         0.0000
     21 H5         -0.8489    0.4162   -3.5679 H         1 <0>         0.0000
     22 H6         -3.8980   -0.6318    1.9311 H         1 <0>         0.0000
     23 H7         -0.3885   -2.5343    0.3115 H         1 <0>         0.0000
     24 H8          2.7399    0.4162   -1.2252 H         1 <0>         0.0000
     25 H9         -2.1999    0.1385   -1.5274 H         1 <0>         0.0000
     26 H10         2.5435   -0.4521    1.1321 H         1 <0>         0.0000
     27 H11         1.9294    1.1731    1.4641 H         1 <0>         0.0000
     28 H12         0.7172   -1.5043    2.2750 H         1 <0>         0.0000
     29 H13         1.2904   -0.2093    3.3211 H         1 <0>         0.0000
     30 H14        -1.1718   -0.1549    3.2316 H         1 <0>         0.0000
     31 H15        -0.5016    1.2892    2.4823 H         1 <0>         0.0000
     32 H16        -2.1919    0.6787    1.0026 H         1 <0>         0.0000
@<TRIPOS>BOND
     1    1    3 ar
     2    1    2 ar
     3    1   17 1
     4    2    6 ar
     5    2   18 1
     6    3    7 ar
     7    3   19 1
     8    4    5 ar
     9    4    8 ar
    10    4   20 1
    11    5    9 ar
    12    5   21 1
    13    6   10 ar
    14    6   22 1
    15    7   10 ar
    16    7   23 1
    17    8   11 ar
    18    8   24 1
    19    9   12 ar
    20    9   25 1
    21   10   16 1
    22   11   12 ar
    23   11   13 1
    24   12   16 1
    25   13   14 1
    26   13   26 1
    27   13   27 1
    28   14   15 1
    29   14   28 1
    30   14   29 1
    31   15   16 1
    32   15   30 1
    33   15   31 1
    34   16   32 1
