@<TRIPOS>MOLECULE
*****
   36    39     0     0     0
SMALL
NO_CHARGES

@<TRIPOS>ATOM
      1 C1         -4.8475    3.0986   -1.4083 C.ar      1 <0>         0.0000
      2 C2         -0.4900    3.0640   -3.5141 C.ar      1 <0>         0.0000
      3 C3          0.7000   -2.5254   -4.8819 C.2       1 <0>         0.0000
      4 C4         -3.8207    3.7929   -2.0082 C.ar      1 <0>         0.0000
      5 C5         -1.5868    3.7757   -3.0830 C.ar      1 <0>         0.0000
      6 C6         -4.7570    1.6981   -1.2464 C.ar      1 <0>         0.0000
      7 C7         -0.3891   -1.9918   -4.1400 C.2       1 <0>         0.0000
      8 C8         -0.4940    1.6602   -3.3350 C.ar      1 <0>         0.0000
      9 C9          0.9523   -3.8160   -4.4125 C.2       1 <0>         0.0000
     10 C10        -2.6724    3.0984   -2.4699 C.ar      1 <0>         0.0000
     11 C11        -3.6614    0.9696   -1.6833 C.ar      1 <0>         0.0000
     12 C12        -2.5841    1.6732   -2.3217 C.ar      1 <0>         0.0000
     13 C13        -0.7772   -2.9792   -3.2315 C.2       1 <0>         0.0000
     14 C14        -1.7456   -3.3091   -2.1976 C.2       1 <0>         0.0000
     15 C15        -3.7356   -0.5218   -1.3920 C.2       1 <0>         0.0000
     16 C16        -1.5596   -4.7897   -1.8659 C.3       1 <0>         0.0000
     17 C17        -0.2092   -5.1859   -2.5133 C.3       1 <0>         0.0000
     18 N1         -1.4858    0.9948   -2.7742 N.ar      1 <0>         0.0000
     19 N2         -2.6476   -2.6167   -1.5933 N.2       1 <0>         0.0000
     20 N3          0.0473   -4.0719   -3.4267 N.pl3     1 <0>         0.0000
     21 N4         -2.7267   -1.2880   -1.9207 N.am      1 <0>         0.0000
     22 O1         -4.6687   -0.9796   -0.7387 O.2       1 <0>         0.0000
     23 H1         -5.7302    3.6219   -1.0512 H         1 <0>         0.0000
     24 H2          0.3602    3.5499   -3.9831 H         1 <0>         0.0000
     25 H3          1.2388   -2.0342   -5.6825 H         1 <0>         0.0000
     26 H4         -3.8722    4.8721   -2.1337 H         1 <0>         0.0000
     27 H5         -1.6357    4.8557   -3.2027 H         1 <0>         0.0000
     28 H6         -5.5553    1.1473   -0.7597 H         1 <0>         0.0000
     29 H7         -0.8509   -1.0241   -4.2720 H         1 <0>         0.0000
     30 H8          0.3553    1.0646   -3.6689 H         1 <0>         0.0000
     31 H9          1.6932   -4.5444   -4.7134 H         1 <0>         0.0000
     32 H10        -1.5752   -4.9603   -0.7883 H         1 <0>         0.0000
     33 H11        -2.3818   -5.3627   -2.3061 H         1 <0>         0.0000
     34 H12         0.5950   -5.2557   -1.7727 H         1 <0>         0.0000
     35 H13        -0.2580   -6.1305   -3.0613 H         1 <0>         0.0000
     36 H14        -1.9590   -0.7938   -2.3884 H         1 <0>         0.0000
@<TRIPOS>BOND
     1    1    4 ar
     2    1    6 ar
     3    1   23 1
     4    2    5 ar
     5    2    8 ar
     6    2   24 1
     7    3    7 1
     8    3    9 2
     9    3   25 1
    10    4   10 ar
    11    4   26 1
    12    5   10 ar
    13    5   27 1
    14    6   11 ar
    15    6   28 1
    16    7   13 2
    17    7   29 1
    18    8   18 ar
    19    8   30 1
    20    9   20 1
    21    9   31 1
    22   10   12 ar
    23   11   12 ar
    24   11   15 1
    25   12   18 ar
    26   13   14 1
    27   13   20 1
    28   14   16 1
    29   14   19 2
    30   15   21 am
    31   15   22 2
    32   16   17 1
    33   16   32 1
    34   16   33 1
    35   17   20 1
    36   17   34 1
    37   17   35 1
    38   19   21 1
    39   21   36 1
