@<TRIPOS>MOLECULE
*****
   19    20     0     0     0
SMALL
NO_CHARGES

@<TRIPOS>ATOM
      1 C1          2.1558    1.9840   -0.8659 C.ar      1 <0>         0.0000
      2 C2          2.1636    1.0572   -1.9088 C.ar      1 <0>         0.0000
      3 C3          1.3515    1.7754    0.2576 C.ar      1 <0>         0.0000
      4 C4          1.3584   -0.0776   -1.8382 C.ar      1 <0>         0.0000
      5 C5          0.5462    0.6357    0.3324 C.ar      1 <0>         0.0000
      6 C6          0.5442   -0.2724   -0.7245 C.ar      1 <0>         0.0000
      7 C7         -0.2885    0.3168    1.5216 C.2       1 <0>         0.0000
      8 N1         -1.2526   -0.5613    1.4540 N.2       1 <0>         0.0000
      9 N2         -0.0148    0.9436    2.7146 N.pl3     1 <0>         0.0000
     10 O1         -2.0960   -2.6635    0.3734 O.2       1 <0>         0.0000
     11 O2         -2.5498   -0.4387   -0.7040 O.2       1 <0>         0.0000
     12 O3         -0.2368   -1.3939   -0.6850 O.3       1 <0>         0.0000
     13 S1         -1.6812   -1.3053    0.0727 S.o2      1 <0>         0.0000
     14 H1          2.7823    2.8696   -0.9249 H         1 <0>         0.0000
     15 H2          2.7957    1.2216   -2.7766 H         1 <0>         0.0000
     16 H3          1.3726    2.5158    1.0510 H         1 <0>         0.0000
     17 H4          1.3639   -0.7959   -2.6529 H         1 <0>         0.0000
     18 H5         -0.5796    0.7211    3.4986 H         1 <0>         0.0000
     19 H6          0.7356    1.5914    2.7398 H         1 <0>         0.0000
@<TRIPOS>BOND
     1    1    2 ar
     2    1    3 ar
     3    1   14 1
     4    2    4 ar
     5    2   15 1
     6    3    5 ar
     7    3   16 1
     8    4    6 ar
     9    4   17 1
    10    5    6 ar
    11    5    7 1
    12    6   12 1
    13    7    8 2
    14    7    9 1
    15    8   13 1
    16    9   18 1
    17    9   19 1
    18   10   13 2
    19   11   13 2
    20   12   13 1
