@<TRIPOS>MOLECULE
*****
   60    63     0     0     0
SMALL
NO_CHARGES

@<TRIPOS>ATOM
      1 C1          6.4213   -1.8479   -3.4897 C.1       1 <0>         0.0000
      2 C2          7.6054    0.4943   -6.1268 C.ar      1 <0>         0.0000
      3 C3          6.5795    1.4463   -6.1334 C.ar      1 <0>         0.0000
      4 C4          7.5260   -0.5925   -5.2595 C.ar      1 <0>         0.0000
      5 C5          5.4821    1.3042   -5.2833 C.ar      1 <0>         0.0000
      6 C6          3.7386    1.2028   -2.7805 C.ar      1 <0>         0.0000
      7 C7          3.4973   -1.1203   -3.3848 C.ar      1 <0>         0.0000
      8 C8          2.6440    1.0948   -1.9241 C.ar      1 <0>         0.0000
      9 C9          2.4085   -1.2281   -2.5242 C.ar      1 <0>         0.0000
     10 C10         1.9959   -2.0089    0.4437 C.ar      1 <0>         0.0000
     11 C11        -0.3713   -3.1950    1.2568 C.ar      1 <0>         0.0000
     12 C12         6.4214   -0.7341   -4.3999 C.ar      1 <0>         0.0000
     13 C13         4.1912    0.0936   -3.5159 C.ar      1 <0>         0.0000
     14 C14         5.3707    0.2154   -4.4042 C.ar      1 <0>         0.0000
     15 C15         1.9683   -0.1256   -1.7741 C.ar      1 <0>         0.0000
     16 C16         0.7724   -1.4499    0.0269 C.ar      1 <0>         0.0000
     17 C17        -0.4267   -2.0566    0.4483 C.ar      1 <0>         0.0000
     18 C18         2.0448   -3.1426    1.2475 C.ar      1 <0>         0.0000
     19 C19         0.8442   -3.7534    1.6583 C.ar      1 <0>         0.0000
     20 C20         0.8024   -0.2502   -0.8453 C.2       1 <0>         0.0000
     21 C21        -1.8164    2.1905   -0.5205 C.2       1 <0>         0.0000
     22 C22        -1.7445   -1.4195    0.1107 C.3       1 <0>         0.0000
     23 C23        -1.8530    0.0197    0.6559 C.3       1 <0>         0.0000
     24 C24        -1.3827    0.1725    2.1053 C.3       1 <0>         0.0000
     25 C25        -1.8030    4.2266   -1.8750 C.3       1 <0>         0.0000
     26 C26         3.7146   -4.7654    0.8695 C.3       1 <0>         0.0000
     27 C27         1.3687   -4.7871    3.7336 C.3       1 <0>         0.0000
     28 N1          6.4600   -2.7615   -2.7667 N.1       1 <0>         0.0000
     29 N2         -0.0212    0.7494   -0.9366 N.2       1 <0>         0.0000
     30 N3         -1.1603    0.9629   -0.2428 N.am      1 <0>         0.0000
     31 N4         -1.1698    3.0088   -1.3970 N.am      1 <0>         0.0000
     32 O1         -2.8803    2.4733    0.0330 O.2       1 <0>         0.0000
     33 O2          3.2688   -3.6397    1.6467 O.3       1 <0>         0.0000
     34 O3          0.8298   -4.9084    2.4042 O.3       1 <0>         0.0000
     35 H1          8.4595    0.6000   -6.7894 H         1 <0>         0.0000
     36 H2          6.6302    2.2958   -6.8091 H         1 <0>         0.0000
     37 H3          8.3179   -1.3345   -5.2280 H         1 <0>         0.0000
     38 H4          4.6786    2.0344   -5.3143 H         1 <0>         0.0000
     39 H5          4.2762    2.1451   -2.8476 H         1 <0>         0.0000
     40 H6          3.8030   -1.9851   -3.9653 H         1 <0>         0.0000
     41 H7          2.3224    1.9508   -1.3381 H         1 <0>         0.0000
     42 H8          1.8918   -2.1791   -2.4343 H         1 <0>         0.0000
     43 H9          2.9404   -1.5658    0.1467 H         1 <0>         0.0000
     44 H10        -1.2866   -3.6726    1.5966 H         1 <0>         0.0000
     45 H11        -1.9062   -1.3937   -0.9732 H         1 <0>         0.0000
     46 H12        -2.5594   -2.0068    0.5428 H         1 <0>         0.0000
     47 H13        -2.8983    0.3257    0.6067 H         1 <0>         0.0000
     48 H14        -0.3103   -0.0123    2.2068 H         1 <0>         0.0000
     49 H15        -1.9116   -0.5393    2.7489 H         1 <0>         0.0000
     50 H16        -1.6008    1.1843    2.4567 H         1 <0>         0.0000
     51 H17        -2.5199    4.0337   -2.6837 H         1 <0>         0.0000
     52 H18        -1.0313    4.9096   -2.2400 H         1 <0>         0.0000
     53 H19        -2.3382    4.7007   -1.0510 H         1 <0>         0.0000
     54 H20         4.6711   -5.0725    1.2964 H         1 <0>         0.0000
     55 H21         3.8605   -4.4734   -0.1771 H         1 <0>         0.0000
     56 H22         2.9964   -5.5904    0.9314 H         1 <0>         0.0000
     57 H23         1.2680   -5.7741    4.1887 H         1 <0>         0.0000
     58 H24         0.7882   -4.0568    4.3104 H         1 <0>         0.0000
     59 H25         2.4199   -4.4889    3.7094 H         1 <0>         0.0000
     60 H26        -0.3811    2.6062   -1.8868 H         1 <0>         0.0000
@<TRIPOS>BOND
     1    1   12 1
     2    1   28 3
     3    2    3 ar
     4    2    4 ar
     5    2   35 1
     6    3    5 ar
     7    3   36 1
     8    4   12 ar
     9    4   37 1
    10    5   14 ar
    11    5   38 1
    12    6    8 ar
    13    6   13 ar
    14    6   39 1
    15    7    9 ar
    16    7   13 ar
    17    7   40 1
    18    8   15 ar
    19    8   41 1
    20    9   15 ar
    21    9   42 1
    22   10   16 ar
    23   10   18 ar
    24   10   43 1
    25   11   17 ar
    26   11   19 ar
    27   11   44 1
    28   12   14 ar
    29   13   14 1
    30   15   20 1
    31   16   17 ar
    32   16   20 1
    33   17   22 1
    34   18   19 ar
    35   18   33 1
    36   19   34 1
    37   20   29 2
    38   21   30 am
    39   21   31 am
    40   21   32 2
    41   22   23 1
    42   22   45 1
    43   22   46 1
    44   23   24 1
    45   23   30 1
    46   23   47 1
    47   24   48 1
    48   24   49 1
    49   24   50 1
    50   25   31 1
    51   25   51 1
    52   25   52 1
    53   25   53 1
    54   26   33 1
    55   26   54 1
    56   26   55 1
    57   26   56 1
    58   27   34 1
    59   27   57 1
    60   27   58 1
    61   27   59 1
    62   29   30 1
    63   31   60 1
