@<TRIPOS>MOLECULE
*****
   35    36     0     0     0
SMALL
NO_CHARGES

@<TRIPOS>ATOM
      1 C1          9.0625   -2.2491   -1.0880 C.2       1 <0>         0.0000
      2 C2          7.6633   -1.1242    0.4213 C.2       1 <0>         0.0000
      3 C3          9.9284   -3.2027   -1.8571 C.2       1 <0>         0.0000
      4 C4         12.6574   -3.7877   -3.5303 C.3       1 <0>         0.0000
      5 C5         12.3887   -2.7521   -4.6016 C.3       1 <0>         0.0000
      6 C6         11.2386   -3.4447   -3.9112 C.3       1 <0>         0.0000
      7 C7          0.0275    0.1590    1.0471 C.3       1 <0>         0.0000
      8 C8          1.3545    0.1787    1.8136 C.3       1 <0>         0.0000
      9 C9          2.5544   -0.1935    0.9343 C.3       1 <0>         0.0000
     10 C10         3.8829   -0.1761    1.7028 C.3       1 <0>         0.0000
     11 C11         5.0579   -0.5509    0.8041 C.3       1 <0>         0.0000
     12 N1          8.7845   -1.0303   -1.4813 N.2       1 <0>         0.0000
     13 N2          7.9744   -0.3695   -0.5971 N.2       1 <0>         0.0000
     14 N3         10.4442   -2.6720   -2.9972 N.am      1 <0>         0.0000
     15 O1         10.1226   -4.3441   -1.4444 O.2       1 <0>         0.0000
     16 O2          6.5330   -1.7605    2.7378 O.2       1 <0>         0.0000
     17 S1          8.3439   -2.7242    0.4230 S.3       1 <0>         0.0000
     18 S2          6.6167   -0.5709    1.8020 S.o       1 <0>         0.0000
     19 H1         13.0301   -4.7632   -3.8252 H         1 <0>         0.0000
     20 H2         13.0014   -3.4370   -2.5633 H         1 <0>         0.0000
     21 H3         12.5693   -1.7113   -4.3482 H         1 <0>         0.0000
     22 H4         12.5793   -3.0075   -5.6393 H         1 <0>         0.0000
     23 H5         10.6843   -4.1924   -4.4743 H         1 <0>         0.0000
     24 H6          0.0426    0.8681    0.2114 H         1 <0>         0.0000
     25 H7         -0.1758   -0.8357    0.6343 H         1 <0>         0.0000
     26 H8         -0.8115    0.4279    1.6974 H         1 <0>         0.0000
     27 H9          1.3001   -0.5156    2.6618 H         1 <0>         0.0000
     28 H10         1.5161    1.1759    2.2431 H         1 <0>         0.0000
     29 H11         2.6118    0.4994    0.0840 H         1 <0>         0.0000
     30 H12         2.3954   -1.1928    0.5075 H         1 <0>         0.0000
     31 H13         3.8337   -0.8795    2.5412 H         1 <0>         0.0000
     32 H14         4.0471    0.8216    2.1294 H         1 <0>         0.0000
     33 H15         5.2211    0.1683   -0.0046 H         1 <0>         0.0000
     34 H16         4.9473   -1.5561    0.3856 H         1 <0>         0.0000
     35 H17        10.1356   -1.7400   -3.2544 H         1 <0>         0.0000
@<TRIPOS>BOND
     1    1    3 1
     2    1   12 2
     3    1   17 1
     4    2   13 2
     5    2   17 1
     6    2   18 1
     7    3   14 am
     8    3   15 2
     9    4    5 1
    10    4    6 1
    11    4   19 1
    12    4   20 1
    13    5    6 1
    14    5   21 1
    15    5   22 1
    16    6   14 1
    17    6   23 1
    18    7    8 1
    19    7   24 1
    20    7   25 1
    21    7   26 1
    22    8    9 1
    23    8   27 1
    24    8   28 1
    25    9   10 1
    26    9   29 1
    27    9   30 1
    28   10   11 1
    29   10   31 1
    30   10   32 1
    31   11   18 1
    32   11   33 1
    33   11   34 1
    34   12   13 1
    35   14   35 1
    36   16   18 2
