@<TRIPOS>MOLECULE
*****
   36    36     0     0     0
SMALL
NO_CHARGES

@<TRIPOS>ATOM
      1 C1         -1.0539    0.8927    5.2014 C.ar      1 <0>         0.0000
      2 C2          0.4769    2.5591    5.9442 C.ar      1 <0>         0.0000
      3 C3         -0.0476    1.2732    6.0922 C.ar      1 <0>         0.0000
      4 C4         -0.9345    2.9400    4.1799 C.ar      1 <0>         0.0000
      5 C5         -2.6386    1.4557   -1.0912 C.3       1 <0>         0.0000
      6 C6         -1.4818    8.6297    4.6317 C.3       1 <0>         0.0000
      7 C7         -3.1198    2.2321    0.1397 C.3       1 <0>         0.0000
      8 C8         -0.8414    7.5643    3.7347 C.3       1 <0>         0.0000
      9 C9         -1.9750    2.6235    1.0798 C.3       1 <0>         0.0000
     10 C10        -1.4536    6.1740    3.9344 C.3       1 <0>         0.0000
     11 C11        -2.4679    3.3847    2.3155 C.3       1 <0>         0.0000
     12 C12        -0.7956    5.1126    3.0457 C.3       1 <0>         0.0000
     13 N1         -1.4984    1.7059    4.2470 N.ar      1 <0>         0.0000
     14 N2          0.0433    3.3960    5.0053 N.ar      1 <0>         0.0000
     15 N3         -1.3832    3.7834    3.2120 N.pl3     1 <0>         0.0000
     16 Br1         0.5830    0.0876    7.4522 Br        1 <0>         0.0000
     17 H1         -1.5082   -0.0954    5.2582 H         1 <0>         0.0000
     18 H2          1.2635    2.9228    6.6038 H         1 <0>         0.0000
     19 H3         -2.1261    0.5325   -0.7981 H         1 <0>         0.0000
     20 H4         -3.4749    1.1814   -1.7432 H         1 <0>         0.0000
     21 H5         -1.9344    2.0513   -1.6836 H         1 <0>         0.0000
     22 H6         -1.3685    8.3717    5.6907 H         1 <0>         0.0000
     23 H7         -1.0231    9.6120    4.4758 H         1 <0>         0.0000
     24 H8         -2.5544    8.7254    4.4272 H         1 <0>         0.0000
     25 H9         -3.6537    3.1359   -0.1837 H         1 <0>         0.0000
     26 H10        -3.8492    1.6261    0.6927 H         1 <0>         0.0000
     27 H11        -0.9440    7.8623    2.6825 H         1 <0>         0.0000
     28 H12         0.2366    7.5158    3.9363 H         1 <0>         0.0000
     29 H13        -1.4450    1.7255    1.4165 H         1 <0>         0.0000
     30 H14        -1.2450    3.2409    0.5394 H         1 <0>         0.0000
     31 H15        -1.3443    5.8648    4.9798 H         1 <0>         0.0000
     32 H16        -2.5307    6.2087    3.7229 H         1 <0>         0.0000
     33 H17        -3.1761    2.7670    2.8711 H         1 <0>         0.0000
     34 H18        -2.9940    4.2968    2.0128 H         1 <0>         0.0000
     35 H19         0.2720    5.0564    3.2670 H         1 <0>         0.0000
     36 H20        -0.8990    5.3859    1.9899 H         1 <0>         0.0000
@<TRIPOS>BOND
     1    1    3 ar
     2    1   13 ar
     3    1   17 1
     4    2    3 ar
     5    2   14 ar
     6    2   18 1
     7    3   16 1
     8    4   13 ar
     9    4   14 ar
    10    4   15 1
    11    5    7 1
    12    5   19 1
    13    5   20 1
    14    5   21 1
    15    6    8 1
    16    6   22 1
    17    6   23 1
    18    6   24 1
    19    7    9 1
    20    7   25 1
    21    7   26 1
    22    8   10 1
    23    8   27 1
    24    8   28 1
    25    9   11 1
    26    9   29 1
    27    9   30 1
    28   10   12 1
    29   10   31 1
    30   10   32 1
    31   11   15 1
    32   11   33 1
    33   11   34 1
    34   12   15 1
    35   12   35 1
    36   12   36 1
