@<TRIPOS>MOLECULE
*****
   43    46     0     0     0
SMALL
NO_CHARGES

@<TRIPOS>ATOM
      1 C1          3.4525   -3.1270    0.4501 C.ar      1 <0>         0.0000
      2 C2          4.1844   -2.0812   -0.1126 C.ar      1 <0>         0.0000
      3 C3          4.8239   -4.6483   -0.8181 C.ar      1 <0>         0.0000
      4 C4          3.7815   -4.4313    0.0877 C.ar      1 <0>         0.0000
      5 C5          5.2117   -2.3855   -1.0135 C.ar      1 <0>         0.0000
      6 C6          5.6799    1.4737    0.3537 C.2       1 <0>         0.0000
      7 C7          4.7696    0.8171   -1.5981 C.2       1 <0>         0.0000
      8 C8          2.3855    1.6823   -0.0747 C.2       1 <0>         0.0000
      9 C9          5.8541    2.3234    1.5691 C.3       1 <0>         0.0000
     10 C10         4.5075    2.9510    1.9751 C.3       1 <0>         0.0000
     11 C11         3.8235    3.6098    0.7668 C.3       1 <0>         0.0000
     12 C12         0.1115    0.9357   -0.4787 C.3       1 <0>         0.0000
     13 C13        -1.0664    1.4419   -1.3010 C.3       1 <0>         0.0000
     14 C14         1.1814    2.4736   -2.1210 C.3       1 <0>         0.0000
     15 C15         3.5628    2.6281   -0.3939 C.3       1 <0>         0.0000
     16 C16         6.0493   -1.3205   -1.7048 C.3       1 <0>         0.0000
     17 N1          5.5231   -3.6450   -1.3555 N.ar      1 <0>         0.0000
     18 N2          6.3496    0.4067    0.0244 N.2       1 <0>         0.0000
     19 N3          4.7446    1.8073   -0.6102 N.am      1 <0>         0.0000
     20 N4          5.8185    0.0170   -1.2070 N.am      1 <0>         0.0000
     21 N5          1.2455    1.8163   -0.8013 N.am      1 <0>         0.0000
     22 O1          4.0023    0.7099   -2.5555 O.2       1 <0>         0.0000
     23 O2          2.4886    0.8667    0.8487 O.2       1 <0>         0.0000
     24 S1         -0.3416    1.8522   -2.9319 S.3       1 <0>         0.0000
     25 Cl1         2.9057   -5.7958    0.7562 Cl        1 <0>         0.0000
     26 H1          2.6486   -2.9282    1.1523 H         1 <0>         0.0000
     27 H2          3.9417   -1.0604    0.1599 H         1 <0>         0.0000
     28 H3          5.0969   -5.6598   -1.1124 H         1 <0>         0.0000
     29 H4          6.2783    1.7144    2.3704 H         1 <0>         0.0000
     30 H5          6.5788    3.1169    1.3443 H         1 <0>         0.0000
     31 H6          3.8543    2.1812    2.3912 H         1 <0>         0.0000
     32 H7          4.6763    3.7053    2.7501 H         1 <0>         0.0000
     33 H8          2.8711    4.0609    1.0621 H         1 <0>         0.0000
     34 H9          4.4569    4.4188    0.3835 H         1 <0>         0.0000
     35 H10        -0.0817    0.9807    0.5956 H         1 <0>         0.0000
     36 H11         0.3597   -0.0989   -0.7395 H         1 <0>         0.0000
     37 H12        -1.8291    0.6731   -1.4372 H         1 <0>         0.0000
     38 H13        -1.5233    2.3267   -0.8484 H         1 <0>         0.0000
     39 H14         1.1315    3.5611   -2.0082 H         1 <0>         0.0000
     40 H15         2.0358    2.1874   -2.7381 H         1 <0>         0.0000
     41 H16         3.3741    3.1923   -1.3071 H         1 <0>         0.0000
     42 H17         7.1084   -1.5593   -1.5903 H         1 <0>         0.0000
     43 H18         5.8153   -1.3193   -2.7725 H         1 <0>         0.0000
@<TRIPOS>BOND
     1    1    2 ar
     2    1    4 ar
     3    1   26 1
     4    2    5 ar
     5    2   27 1
     6    3    4 ar
     7    3   17 ar
     8    3   28 1
     9    4   25 1
    10    5   16 1
    11    5   17 ar
    12    6    9 1
    13    6   18 2
    14    6   19 1
    15    7   19 am
    16    7   20 am
    17    7   22 2
    18    8   15 1
    19    8   21 am
    20    8   23 2
    21    9   10 1
    22    9   29 1
    23    9   30 1
    24   10   11 1
    25   10   31 1
    26   10   32 1
    27   11   15 1
    28   11   33 1
    29   11   34 1
    30   12   13 1
    31   12   21 1
    32   12   35 1
    33   12   36 1
    34   13   24 1
    35   13   37 1
    36   13   38 1
    37   14   21 1
    38   14   24 1
    39   14   39 1
    40   14   40 1
    41   15   19 1
    42   15   41 1
    43   16   20 1
    44   16   42 1
    45   16   43 1
    46   18   20 1
