@<TRIPOS>MOLECULE
*****
   53    56     0     0     0
SMALL
NO_CHARGES

@<TRIPOS>ATOM
      1 C1         -1.4481    0.6799   -5.5878 C.1       1 <0>         0.0000
      2 C2          0.9545    3.0576    1.8262 C.ar      1 <0>         0.0000
      3 C3          0.9860    2.4150    0.5662 C.ar      1 <0>         0.0000
      4 C4          0.3786    2.4704    2.9572 C.ar      1 <0>         0.0000
      5 C5         -0.1072    0.5428    1.5461 C.ar      1 <0>         0.0000
      6 C6          0.4443    1.1394    0.4117 C.ar      1 <0>         0.0000
      7 C7         -0.7072   -0.7451    1.6654 C.2       1 <0>         0.0000
      8 C8         -0.1599    1.1886    2.7995 C.ar      1 <0>         0.0000
      9 C9         -1.1265   -0.8719    2.9706 C.2       1 <0>         0.0000
     10 C10        -0.6437   -1.6549    0.4758 C.3       1 <0>         0.0000
     11 C11        -0.0013    1.3063   -2.0791 C.3       1 <0>         0.0000
     12 C12        -0.3136   -0.8424   -3.3236 C.3       1 <0>         0.0000
     13 C13         0.3559    0.3635   -0.8975 C.3       1 <0>         0.0000
     14 C14        -0.7895    0.5974   -3.1921 C.3       1 <0>         0.0000
     15 C15        -0.6946   -0.7707   -0.7875 C.3       1 <0>         0.0000
     16 C16         0.9024   -5.0772   -3.0199 C.3       1 <0>         0.0000
     17 C17        -2.7495   -4.1346    3.3781 C.3       1 <0>         0.0000
     18 C18        -0.6554    1.3375   -4.5412 C.3       1 <0>         0.0000
     19 C19        -1.7931   -2.0024    3.6915 C.3       1 <0>         0.0000
     20 C20         0.1513   -3.7580   -3.2457 C.3       1 <0>         0.0000
     21 C21         0.2326   -2.8834   -1.9947 C.3       1 <0>         0.0000
     22 N1         -2.0782    0.0779   -6.3571 N.1       1 <0>         0.0000
     23 N2         -0.7964    0.3003    3.6562 N.pl3     1 <0>         0.0000
     24 N3         -0.6434   -1.6452   -2.0759 N.4       1 <0>         0.0000
     25 O1         -2.1224   -3.0141    2.7563 O.3       1 <0>         0.0000
     26 H1          1.3879    4.0494    1.9156 H         1 <0>         0.0000
     27 H2          1.4345    2.9393   -0.2734 H         1 <0>         0.0000
     28 H3          0.3587    2.9976    3.9069 H         1 <0>         0.0000
     29 H4          0.2989   -2.2115    0.5098 H         1 <0>         0.0000
     30 H5         -1.4613   -2.3804    0.4772 H         1 <0>         0.0000
     31 H6         -0.5889    2.1481   -1.7044 H         1 <0>         0.0000
     32 H7          0.9226    1.7253   -2.4909 H         1 <0>         0.0000
     33 H8         -0.7754   -1.3549   -4.1673 H         1 <0>         0.0000
     34 H9          0.7713   -0.8790   -3.4476 H         1 <0>         0.0000
     35 H10         1.3309   -0.1042   -1.0942 H         1 <0>         0.0000
     36 H11        -1.8569    0.5876   -2.9428 H         1 <0>         0.0000
     37 H12        -1.6869   -0.3125   -0.8195 H         1 <0>         0.0000
     38 H13         1.9595   -4.8999   -2.7974 H         1 <0>         0.0000
     39 H14         0.4711   -5.6473   -2.1910 H         1 <0>         0.0000
     40 H15         0.8511   -5.6989   -3.9167 H         1 <0>         0.0000
     41 H16        -2.9643   -4.8581    2.5897 H         1 <0>         0.0000
     42 H17        -3.6894   -3.8423    3.8656 H         1 <0>         0.0000
     43 H18        -2.0874   -4.5967    4.1229 H         1 <0>         0.0000
     44 H19         0.3913    1.3757   -4.8625 H         1 <0>         0.0000
     45 H20        -0.9946    2.3717   -4.4275 H         1 <0>         0.0000
     46 H21        -1.1221   -2.4038    4.4699 H         1 <0>         0.0000
     47 H22        -2.7015   -1.6419    4.2031 H         1 <0>         0.0000
     48 H23        -0.9006   -3.9702   -3.4785 H         1 <0>         0.0000
     49 H24         0.5747   -3.2450   -4.1132 H         1 <0>         0.0000
     50 H25        -0.1054   -3.4524   -1.1309 H         1 <0>         0.0000
     51 H26         1.2509   -2.5368   -1.8041 H         1 <0>         0.0000
     52 H27        -1.0110    0.4784    4.6283 H         1 <0>         0.0000
     53 H28        -1.5996   -1.9913   -2.1982 H         1 <0>         0.0000
@<TRIPOS>BOND
     1    1   18 1
     2    1   22 3
     3    2    3 ar
     4    2    4 ar
     5    2   26 1
     6    3    6 ar
     7    3   27 1
     8    4    8 ar
     9    4   28 1
    10    5    6 ar
    11    5    7 1
    12    5    8 ar
    13    6   13 1
    14    7    9 2
    15    7   10 1
    16    8   23 1
    17    9   19 1
    18    9   23 1
    19   10   15 1
    20   10   29 1
    21   10   30 1
    22   11   13 1
    23   11   14 1
    24   11   31 1
    25   11   32 1
    26   12   14 1
    27   12   24 1
    28   12   33 1
    29   12   34 1
    30   13   15 1
    31   13   35 1
    32   14   18 1
    33   14   36 1
    34   15   24 1
    35   15   37 1
    36   16   20 1
    37   16   38 1
    38   16   39 1
    39   16   40 1
    40   17   25 1
    41   17   41 1
    42   17   42 1
    43   17   43 1
    44   18   44 1
    45   18   45 1
    46   19   25 1
    47   19   46 1
    48   19   47 1
    49   20   21 1
    50   20   48 1
    51   20   49 1
    52   21   24 1
    53   21   50 1
    54   21   51 1
    55   23   52 1
    56   24   53 1
