@<TRIPOS>MOLECULE
*****
   41    42     0     0     0
SMALL
NO_CHARGES

@<TRIPOS>ATOM
      1 C1          2.5257   -0.5902   -0.8720 C.1       1 <0>         0.0000
      2 C2         -4.2977    0.5904   -1.4360 C.ar      1 <0>         0.0000
      3 C3         -3.8016    1.9031    0.5242 C.ar      1 <0>         0.0000
      4 C4         -5.6623    0.6504   -1.1446 C.ar      1 <0>         0.0000
      5 C5         -5.1630    1.9746    0.8368 C.ar      1 <0>         0.0000
      6 C6         -2.4976   -2.6216   -3.5961 C.2       1 <0>         0.0000
      7 C7         -1.8027   -0.6882   -4.0502 C.2       1 <0>         0.0000
      8 C8         -3.3501    1.2153   -0.6099 C.ar      1 <0>         0.0000
      9 C9         -6.0691    1.3430   -0.0079 C.ar      1 <0>         0.0000
     10 C10         1.3369    1.4826   -0.3982 C.3       1 <0>         0.0000
     11 C11         1.3797   -0.3977    1.2743 C.3       1 <0>         0.0000
     12 C12        -1.8711    1.0997   -0.9118 C.3       1 <0>         0.0000
     13 C13        -1.3148   -0.2484   -0.4034 C.3       1 <0>         0.0000
     14 C14         0.1792   -0.6666   -2.4483 C.3       1 <0>         0.0000
     15 C15         1.3015   -0.0545   -0.2326 C.3       1 <0>         0.0000
     16 C16         0.0611   -0.7565   -0.9037 C.3       1 <0>         0.0000
     17 N1          3.5062   -0.9545   -1.3800 N.1       1 <0>         0.0000
     18 N2         -2.7713   -1.5374   -4.3751 N.2       1 <0>         0.0000
     19 N3         -1.4259   -2.4890   -2.8202 N.2       1 <0>         0.0000
     20 N4         -0.9865   -1.2325   -3.1208 N.pl3     1 <0>         0.0000
     21 O1          0.1882   -2.1262   -0.5174 O.3       1 <0>         0.0000
     22 F1         -7.3949    1.4074    0.2838 F         1 <0>         0.0000
     23 H1         -3.9734    0.0499   -2.3222 H         1 <0>         0.0000
     24 H2         -3.0828    2.3953    1.1758 H         1 <0>         0.0000
     25 H3         -6.4020    0.1752   -1.7817 H         1 <0>         0.0000
     26 H4         -5.5218    2.5080    1.7117 H         1 <0>         0.0000
     27 H5         -3.0915   -3.5261   -3.5966 H         1 <0>         0.0000
     28 H6         -1.6578    0.3048   -4.4563 H         1 <0>         0.0000
     29 H7          0.5760    1.9466    0.2305 H         1 <0>         0.0000
     30 H8          1.1846    1.8045   -1.4311 H         1 <0>         0.0000
     31 H9          2.3097    1.8604   -0.0744 H         1 <0>         0.0000
     32 H10         0.5289    0.0383    1.8042 H         1 <0>         0.0000
     33 H11         1.3793   -1.4758    1.4294 H         1 <0>         0.0000
     34 H12         2.2946    0.0250    1.6983 H         1 <0>         0.0000
     35 H13        -1.3466    1.9405   -0.4554 H         1 <0>         0.0000
     36 H14        -1.7223    1.1923   -1.9913 H         1 <0>         0.0000
     37 H15        -2.0312   -1.0243   -0.6864 H         1 <0>         0.0000
     38 H16        -1.3120   -0.2528    0.6896 H         1 <0>         0.0000
     39 H17         1.0663   -1.2181   -2.7654 H         1 <0>         0.0000
     40 H18         0.2716    0.3638   -2.7936 H         1 <0>         0.0000
     41 H19        -0.3986   -2.6529   -1.0981 H         1 <0>         0.0000
@<TRIPOS>BOND
     1    1   15 1
     2    1   17 3
     3    2    4 ar
     4    2    8 ar
     5    2   23 1
     6    3    5 ar
     7    3    8 ar
     8    3   24 1
     9    4    9 ar
    10    4   25 1
    11    5    9 ar
    12    5   26 1
    13    6   18 1
    14    6   19 2
    15    6   27 1
    16    7   18 2
    17    7   20 1
    18    7   28 1
    19    8   12 1
    20    9   22 1
    21   10   15 1
    22   10   29 1
    23   10   30 1
    24   10   31 1
    25   11   15 1
    26   11   32 1
    27   11   33 1
    28   11   34 1
    29   12   13 1
    30   12   35 1
    31   12   36 1
    32   13   16 1
    33   13   37 1
    34   13   38 1
    35   14   16 1
    36   14   20 1
    37   14   39 1
    38   14   40 1
    39   15   16 1
    40   16   21 1
    41   19   20 1
    42   21   41 1
