@<TRIPOS>MOLECULE
*****
   14    13     0     0     0
SMALL
NO_CHARGES

@<TRIPOS>ATOM
      1 C1         -0.0911   -1.1248   -1.6140 C.3       1 <0>         0.0000
      2 C2         -0.2543   -0.7130   -0.1557 C.3       1 <0>         0.0000
      3 C3          0.0849    1.1207    1.5991 C.3       1 <0>         0.0000
      4 C4          0.2407    0.7123    0.1307 C.3       1 <0>         0.0000
      5 Cl1        -1.5963    1.0576    2.1854 Cl        1 <0>         0.0000
      6 Cl2        -0.5747    1.9021   -0.9344 Cl        1 <0>         0.0000
      7 H1          0.9507   -1.0265   -1.9350 H         1 <0>         0.0000
      8 H2         -0.3861   -2.1713   -1.7424 H         1 <0>         0.0000
      9 H3         -0.7162   -0.5208   -2.2780 H         1 <0>         0.0000
     10 H4         -1.3080   -0.8258    0.1250 H         1 <0>         0.0000
     11 H5          0.3153   -1.4193    0.4609 H         1 <0>         0.0000
     12 H6          0.4486    2.1409    1.7600 H         1 <0>         0.0000
     13 H7          0.6722    0.4557    2.2403 H         1 <0>         0.0000
     14 H8          1.3059    0.7737   -0.1197 H         1 <0>         0.0000
@<TRIPOS>BOND
     1    1    2 1
     2    1    7 1
     3    1    8 1
     4    1    9 1
     5    2    4 1
     6    2   10 1
     7    2   11 1
     8    3    4 1
     9    3    5 1
    10    3   12 1
    11    3   13 1
    12    4    6 1
    13    4   14 1
