@<TRIPOS>MOLECULE
*****
   24    25     0     0     0
SMALL
NO_CHARGES

@<TRIPOS>ATOM
      1 C1          2.0935   -5.0344    1.3599 C.ar      1 <0>         0.0000
      2 C2          3.1543   -4.1643    1.6057 C.ar      1 <0>         0.0000
      3 C3          0.9960   -5.0573    2.2199 C.ar      1 <0>         0.0000
      4 C4          2.0331   -3.3069    3.6203 C.ar      1 <0>         0.0000
      5 C5          3.1252   -3.3175    2.7152 C.ar      1 <0>         0.0000
      6 C6          0.9776   -4.2044    3.3200 C.ar      1 <0>         0.0000
      7 C7          4.6250    0.7735    8.4362 C.2       1 <0>         0.0000
      8 C8          3.5815   -0.5208    6.9777 C.2       1 <0>         0.0000
      9 C9          1.9102   -2.4315    4.7925 C.2       1 <0>         0.0000
     10 C10         5.8655    0.4104    7.6690 C.3       1 <0>         0.0000
     11 N1          3.4784    0.3079    8.0890 N.2       1 <0>         0.0000
     12 N2          2.5500   -1.0972    6.4609 N.2       1 <0>         0.0000
     13 N3          2.9181   -1.8775    5.3721 N.2       1 <0>         0.0000
     14 O1          4.7829    1.5940    9.4839 O.3       1 <0>         0.0000
     15 S1          5.2651   -0.7006    6.3438 S.3       1 <0>         0.0000
     16 Cl1         4.4955   -2.2464    2.8933 Cl        1 <0>         0.0000
     17 Cl2        -0.4324   -4.3110    4.3693 Cl        1 <0>         0.0000
     18 H1          2.1212   -5.6935    0.4970 H         1 <0>         0.0000
     19 H2          4.0093   -4.1316    0.9388 H         1 <0>         0.0000
     20 H3          0.1628   -5.7298    2.0465 H         1 <0>         0.0000
     21 H4          0.9076   -2.2681    5.1893 H         1 <0>         0.0000
     22 H5          6.3369    1.3089    7.2603 H         1 <0>         0.0000
     23 H6          6.5848   -0.0900    8.3238 H         1 <0>         0.0000
     24 H7          3.8992    1.7337    9.8770 H         1 <0>         0.0000
@<TRIPOS>BOND
     1    1    3 ar
     2    1    2 ar
     3    1   18 1
     4    2    5 ar
     5    2   19 1
     6    3    6 ar
     7    3   20 1
     8    4    6 ar
     9    4    5 ar
    10    4    9 1
    11    5   16 1
    12    6   17 1
    13    7   10 1
    14    7   11 2
    15    7   14 1
    16    8   11 1
    17    8   12 2
    18    8   15 1
    19    9   13 2
    20    9   21 1
    21   10   15 1
    22   10   22 1
    23   10   23 1
    24   12   13 1
    25   14   24 1
