@<TRIPOS>MOLECULE
*****
   22    23     0     0     0
SMALL
NO_CHARGES

@<TRIPOS>ATOM
      1 C1          0.1925   -0.2357    4.8971 C.2       1 <0>         0.0000
      2 C2          0.8008   -0.9369    3.8038 C.2       1 <0>         0.0000
      3 C3          0.1439   -1.0040    6.0236 C.2       1 <0>         0.0000
      4 C4          1.1937   -2.2156    4.1262 C.2       1 <0>         0.0000
      5 C5         -0.5941   -4.4023    0.4855 C.2       1 <0>         0.0000
      6 C6         -0.6482   -2.1266    1.1901 C.2       1 <0>         0.0000
      7 C7         -0.3551   -5.7518   -0.1154 C.3       1 <0>         0.0000
      8 N1         -1.3992   -4.1972    1.4962 N.2       1 <0>         0.0000
      9 N2         -1.4270   -2.8915    1.9073 N.2       1 <0>         0.0000
     10 N3         -0.5414   -0.7422    1.3932 N.pl3     1 <0>         0.0000
     11 O1          2.0039   -0.7146    1.4436 O.2       1 <0>         0.0000
     12 O2          0.6476    1.2521    2.3822 O.2       1 <0>         0.0000
     13 S1          0.8300   -2.5931    5.7861 S.3       1 <0>         0.0000
     14 S2          0.2053   -2.9523   -0.0861 S.3       1 <0>         0.0000
     15 S3          0.8797   -0.1744    2.1922 S.o2      1 <0>         0.0000
     16 Cl1        -0.4832   -0.5510    7.5662 Cl        1 <0>         0.0000
     17 Cl2         1.9498   -3.4089    3.1486 Cl        1 <0>         0.0000
     18 H1         -0.1584    0.7871    4.8309 H         1 <0>         0.0000
     19 H2         -0.6142   -5.7658   -1.1785 H         1 <0>         0.0000
     20 H3          0.6954   -6.0446   -0.0211 H         1 <0>         0.0000
     21 H4         -0.9745   -6.4806    0.4107 H         1 <0>         0.0000
     22 H5         -1.3675   -0.3739    1.8676 H         1 <0>         0.0000
@<TRIPOS>BOND
     1    1    2 1
     2    1    3 2
     3    1   18 1
     4    2    4 2
     5    2   15 1
     6    3   13 1
     7    3   16 1
     8    4   13 1
     9    4   17 1
    10    5    7 1
    11    5    8 2
    12    5   14 1
    13    6    9 2
    14    6   10 1
    15    6   14 1
    16    7   19 1
    17    7   20 1
    18    7   21 1
    19    8    9 1
    20   10   15 1
    21   10   22 1
    22   11   15 2
    23   12   15 2
