@<TRIPOS>MOLECULE
*****
   22    23     0     0     0
SMALL
NO_CHARGES

@<TRIPOS>ATOM
      1 C1         -1.7031    1.4134   -0.6951 C.2       1 <0>         0.0000
      2 C2         -0.7155    0.3734   -0.6857 C.2       1 <0>         0.0000
      3 C3         -2.5467    1.2974   -1.7611 C.2       1 <0>         0.0000
      4 C4         -0.8364   -0.5038   -1.7389 C.2       1 <0>         0.0000
      5 C5         -0.5210   -4.4427    0.6326 C.2       1 <0>         0.0000
      6 C6         -0.5479   -2.1544    1.2969 C.2       1 <0>         0.0000
      7 C7         -0.2347   -5.8563    0.2338 C.3       1 <0>         0.0000
      8 N1         -1.7094   -3.9007    0.5576 N.2       1 <0>         0.0000
      9 N2         -1.7263   -2.5839    0.9322 N.2       1 <0>         0.0000
     10 N3         -0.3220   -0.8504    1.7634 N.pl3     1 <0>         0.0000
     11 O1          0.4102    1.5323    1.3700 O.2       1 <0>         0.0000
     12 O2          1.6584   -0.3985    0.2287 O.2       1 <0>         0.0000
     13 S1         -2.1671   -0.0737   -2.7753 S.3       1 <0>         0.0000
     14 S2          0.7174   -3.3510    1.2182 S.3       1 <0>         0.0000
     15 S3          0.4356    0.2524    0.6727 S.o2      1 <0>         0.0000
     16 Cl1        -3.8594    2.3411   -2.1682 Cl        1 <0>         0.0000
     17 Cl2         0.1071   -1.8860   -2.1276 Cl        1 <0>         0.0000
     18 H1         -1.7476    2.2031    0.0453 H         1 <0>         0.0000
     19 H2          0.4828   -5.8951   -0.5920 H         1 <0>         0.0000
     20 H3          0.1817   -6.4289    1.0684 H         1 <0>         0.0000
     21 H4         -1.1683   -6.3226   -0.0860 H         1 <0>         0.0000
     22 H5         -1.1813   -0.4336    2.1252 H         1 <0>         0.0000
@<TRIPOS>BOND
     1    1    2 1
     2    1    3 2
     3    1   18 1
     4    2    4 2
     5    2   15 1
     6    3   13 1
     7    3   16 1
     8    4   13 1
     9    4   17 1
    10    5    7 1
    11    5    8 2
    12    5   14 1
    13    6    9 2
    14    6   10 1
    15    6   14 1
    16    7   19 1
    17    7   20 1
    18    7   21 1
    19    8    9 1
    20   10   15 1
    21   10   22 1
    22   11   15 2
    23   12   15 2
