@<TRIPOS>MOLECULE
*****
   41    43     0     0     0
SMALL
NO_CHARGES

@<TRIPOS>ATOM
      1 C1         -8.5040    5.2401   -5.5309 C.ar      1 <0>         0.0000
      2 C2         -7.3322    4.5719   -5.1730 C.ar      1 <0>         0.0000
      3 C3         -2.3136   -0.2467   -1.7679 C.ar      1 <0>         0.0000
      4 C4         -2.9844   -1.4481   -1.9832 C.ar      1 <0>         0.0000
      5 C5         -3.2962    1.7377   -4.7697 C.2       1 <0>         0.0000
      6 C6         -3.9017   -0.5899   -4.0648 C.ar      1 <0>         0.0000
      7 C7         -6.1346    5.8458   -6.8454 C.ar      1 <0>         0.0000
      8 C8         -3.2279    0.6301   -3.8550 C.ar      1 <0>         0.0000
      9 C9         -2.6401    2.9065   -4.5295 C.2       1 <0>         0.0000
     10 C10        -8.5228    6.2112   -6.5385 C.ar      1 <0>         0.0000
     11 C11        -7.3111    6.5133   -7.1991 C.ar      1 <0>         0.0000
     12 C12        -6.1348    4.8732   -5.8349 C.ar      1 <0>         0.0000
     13 C13        -2.4395    0.7849   -2.7008 C.ar      1 <0>         0.0000
     14 C14        -3.7761   -1.6085   -3.1318 C.ar      1 <0>         0.0000
     15 C15        -1.8417    3.0578   -3.2985 C.2       1 <0>         0.0000
     16 C16        -2.6760    4.0434   -5.4943 C.2       1 <0>         0.0000
     17 C17        -9.8076    6.9180   -6.9028 C.3       1 <0>         0.0000
     18 C18        -7.2767    7.5562   -8.2923 C.3       1 <0>         0.0000
     19 C19        -1.3679    4.5713   -6.0233 C.3       1 <0>         0.0000
     20 N1         -3.7660    4.5795   -5.9362 N.2       1 <0>         0.0000
     21 N2         -4.9751    4.1577   -5.4923 N.pl3     1 <0>         0.0000
     22 O1         -1.2481    4.0565   -2.9561 O.2       1 <0>         0.0000
     23 O2         -1.7723    1.9502   -2.4533 O.3       1 <0>         0.0000
     24 Br1        -4.6995   -3.2629   -3.4098 Br        1 <0>         0.0000
     25 H1         -9.4267    4.9975   -5.0083 H         1 <0>         0.0000
     26 H2         -7.3500    3.8223   -4.3837 H         1 <0>         0.0000
     27 H3         -1.6963   -0.0966   -0.8878 H         1 <0>         0.0000
     28 H4         -2.8964   -2.2569   -1.2654 H         1 <0>         0.0000
     29 H5         -3.8853    1.6303   -5.6781 H         1 <0>         0.0000
     30 H6         -4.5138   -0.7206   -4.9519 H         1 <0>         0.0000
     31 H7         -5.2015    6.0759   -7.3475 H         1 <0>         0.0000
     32 H8         -9.7431    7.9979   -6.7212 H         1 <0>         0.0000
     33 H9        -10.0564    6.7899   -7.9631 H         1 <0>         0.0000
     34 H10       -10.6467    6.5334   -6.3165 H         1 <0>         0.0000
     35 H11        -7.9186    7.2725   -9.1350 H         1 <0>         0.0000
     36 H12        -7.6378    8.5265   -7.9321 H         1 <0>         0.0000
     37 H13        -6.2628    7.6961   -8.6752 H         1 <0>         0.0000
     38 H14        -0.7616    3.7617   -6.4476 H         1 <0>         0.0000
     39 H15        -1.5661    5.3126   -6.8000 H         1 <0>         0.0000
     40 H16        -0.7838    5.0339   -5.2226 H         1 <0>         0.0000
     41 H17        -5.0172    3.6180   -4.6297 H         1 <0>         0.0000
@<TRIPOS>BOND
     1    1    2 ar
     2    1   10 ar
     3    1   25 1
     4    2   12 ar
     5    2   26 1
     6    3    4 ar
     7    3   13 ar
     8    3   27 1
     9    4   14 ar
    10    4   28 1
    11    5    8 1
    12    5    9 2
    13    5   29 1
    14    6    8 ar
    15    6   14 ar
    16    6   30 1
    17    7   11 ar
    18    7   12 ar
    19    7   31 1
    20    8   13 ar
    21    9   15 1
    22    9   16 1
    23   10   11 ar
    24   10   17 1
    25   11   18 1
    26   12   21 1
    27   13   23 1
    28   14   24 1
    29   15   22 2
    30   15   23 1
    31   16   19 1
    32   16   20 2
    33   17   32 1
    34   17   33 1
    35   17   34 1
    36   18   35 1
    37   18   36 1
    38   18   37 1
    39   19   38 1
    40   19   39 1
    41   19   40 1
    42   20   21 1
    43   21   41 1
