@<TRIPOS>MOLECULE
*****
   27    29     0     0     0
SMALL
NO_CHARGES

@<TRIPOS>ATOM
      1 C1          0.9688    0.2208    1.9290 C.ar      1 <0>         0.0000
      2 C2          0.6398    0.5197    3.2645 C.ar      1 <0>         0.0000
      3 C3         -2.3975   -2.1333   -0.9267 C.2       1 <0>         0.0000
      4 C4         -3.5160   -2.5294   -0.1379 C.2       1 <0>         0.0000
      5 C5         -1.2027    1.0502    1.1476 C.ar      1 <0>         0.0000
      6 C6          0.0633    0.4730    0.8946 C.ar      1 <0>         0.0000
      7 C7         -0.5986    1.0874    3.4991 C.ar      1 <0>         0.0000
      8 C8         -1.4944    1.3542    2.4619 C.ar      1 <0>         0.0000
      9 C9         -1.2272   -2.1256   -0.2072 C.2       1 <0>         0.0000
     10 C10        -3.1509   -2.8034    1.1586 C.2       1 <0>         0.0000
     11 C11        -2.5078    1.8313    4.3984 C.3       1 <0>         0.0000
     12 N1          0.4106    0.0883   -0.4397 N.pl3     1 <0>         0.0000
     13 O1          0.3336   -1.6418   -2.2635 O.2       1 <0>         0.0000
     14 O2          1.3659   -2.2322    0.0167 O.2       1 <0>         0.0000
     15 O3         -1.1393    1.5091    4.6946 O.3       1 <0>         0.0000
     16 O4         -2.6295    1.9459    2.9686 O.3       1 <0>         0.0000
     17 S1         -1.4501   -2.6013    1.4505 S.3       1 <0>         0.0000
     18 S2          0.3518   -1.5793   -0.8036 S.o2      1 <0>         0.0000
     19 Cl1        -4.1990   -3.3172    2.4336 Cl        1 <0>         0.0000
     20 H1          1.9236   -0.2319    1.6877 H         1 <0>         0.0000
     21 H2          1.3346    0.3233    4.0744 H         1 <0>         0.0000
     22 H3         -2.4399   -1.8793   -1.9804 H         1 <0>         0.0000
     23 H4         -4.5326   -2.6182   -0.5038 H         1 <0>         0.0000
     24 H5         -1.9201    1.2254    0.3515 H         1 <0>         0.0000
     25 H6         -3.1580    1.0197    4.7517 H         1 <0>         0.0000
     26 H7         -2.7634    2.7866    4.8603 H         1 <0>         0.0000
     27 H8         -0.1029    0.5884   -1.1638 H         1 <0>         0.0000
@<TRIPOS>BOND
     1    1    2 ar
     2    1    6 ar
     3    1   20 1
     4    2    7 ar
     5    2   21 1
     6    3    4 1
     7    3    9 2
     8    3   22 1
     9    4   10 2
    10    4   23 1
    11    5    6 ar
    12    5    8 ar
    13    5   24 1
    14    6   12 1
    15    7    8 ar
    16    7   15 1
    17    8   16 1
    18    9   17 1
    19    9   18 1
    20   10   17 1
    21   10   19 1
    22   11   15 1
    23   11   16 1
    24   11   25 1
    25   11   26 1
    26   12   18 1
    27   12   27 1
    28   13   18 2
    29   14   18 2
