@<TRIPOS>MOLECULE
*****
   18    18     0     0     0
SMALL
NO_CHARGES

@<TRIPOS>ATOM
      1 C1          1.7667   -1.1633    0.1780 C.ar      1 <0>         0.0000
      2 C2          0.6820   -0.5921    0.8446 C.ar      1 <0>         0.0000
      3 C3          2.6844   -1.9084    2.2953 C.ar      1 <0>         0.0000
      4 C4          1.5987   -1.3341    2.9458 C.ar      1 <0>         0.0000
      5 C5          2.7682   -1.8205    0.9019 C.ar      1 <0>         0.0000
      6 C6          0.5908   -0.6752    2.2362 C.ar      1 <0>         0.0000
      7 C7          5.3197   -1.1624    0.0578 C.2       1 <0>         0.0000
      8 C8          6.6549   -1.5218   -0.5614 C.3       1 <0>         0.0000
      9 O1          5.0556   -0.0809    0.5305 O.2       1 <0>         0.0000
     10 F1          1.5224   -1.4193    4.2892 F         1 <0>         0.0000
     11 S1          4.1521   -2.5594    0.0491 S.3       1 <0>         0.0000
     12 Cl1        -0.7566    0.0291    3.0858 Cl        1 <0>         0.0000
     13 H1          1.8362   -1.0922   -0.9026 H         1 <0>         0.0000
     14 H2         -0.0977   -0.0785    0.2912 H         1 <0>         0.0000
     15 H3          3.4491   -2.4076    2.8813 H         1 <0>         0.0000
     16 H4          7.3571   -1.7499    0.2476 H         1 <0>         0.0000
     17 H5          7.0353   -0.6569   -1.1095 H         1 <0>         0.0000
     18 H6          6.5902   -2.3896   -1.2217 H         1 <0>         0.0000
@<TRIPOS>BOND
     1    1    2 ar
     2    1    5 ar
     3    1   13 1
     4    2    6 ar
     5    2   14 1
     6    3    4 ar
     7    3    5 ar
     8    3   15 1
     9    4    6 ar
    10    4   10 1
    11    5   11 1
    12    6   12 1
    13    7    8 1
    14    7    9 2
    15    7   11 1
    16    8   16 1
    17    8   17 1
    18    8   18 1
