@<TRIPOS>MOLECULE
*****
   31    33     0     0     0
SMALL
NO_CHARGES

@<TRIPOS>ATOM
      1 C1         -2.1023    1.5920    1.2212 C.ar      1 <0>         0.0000
      2 C2         -1.6720    0.6418    0.2855 C.ar      1 <0>         0.0000
      3 C3         -7.4129    0.0851    6.5102 C.ar      1 <0>         0.0000
      4 C4         -6.4778    0.1970    5.4783 C.ar      1 <0>         0.0000
      5 C5         -3.1672    1.2933    2.0645 C.ar      1 <0>         0.0000
      6 C6         -8.7807    0.2036    6.2449 C.ar      1 <0>         0.0000
      7 C7         -2.3149   -0.5890    0.2033 C.ar      1 <0>         0.0000
      8 C8         -8.2705    0.5971    3.8915 C.ar      1 <0>         0.0000
      9 C9         -6.9059    0.4471    4.1662 C.ar      1 <0>         0.0000
     10 C10        -3.8303    0.0595    1.9834 C.ar      1 <0>         0.0000
     11 C11        -9.1775    0.4565    4.9344 C.ar      1 <0>         0.0000
     12 C12        -3.4031   -0.8935    1.0407 C.ar      1 <0>         0.0000
     13 C13        -5.9298    0.6880    3.0462 C.2       1 <0>         0.0000
     14 C14        -5.0396   -1.6336    3.2855 C.3       1 <0>         0.0000
     15 C15        -5.4415   -2.4855    2.0839 C.3       1 <0>         0.0000
     16 N1         -4.8904   -0.2264    2.9018 N.am      1 <0>         0.0000
     17 O1         -6.0451    1.6863    2.3425 O.2       1 <0>         0.0000
     18 F1        -10.5021    0.5800    4.6678 F         1 <0>         0.0000
     19 S1         -4.1308   -2.5014    0.8111 S.3       1 <0>         0.0000
     20 H1         -1.6078    2.5562    1.2958 H         1 <0>         0.0000
     21 H2         -0.8377    0.8584   -0.3762 H         1 <0>         0.0000
     22 H3         -7.0781   -0.0937    7.5281 H         1 <0>         0.0000
     23 H4         -5.4163    0.1100    5.6926 H         1 <0>         0.0000
     24 H5         -3.5091    2.0215    2.7916 H         1 <0>         0.0000
     25 H6         -9.5278    0.1133    7.0274 H         1 <0>         0.0000
     26 H7         -1.9819   -1.3281   -0.5215 H         1 <0>         0.0000
     27 H8         -8.6143    0.8324    2.8894 H         1 <0>         0.0000
     28 H9         -5.8072   -1.7177    4.0518 H         1 <0>         0.0000
     29 H10        -4.0944   -1.9891    3.7070 H         1 <0>         0.0000
     30 H11        -5.5871   -3.5268    2.3845 H         1 <0>         0.0000
     31 H12        -6.3754   -2.1108    1.6566 H         1 <0>         0.0000
@<TRIPOS>BOND
     1    1    2 ar
     2    1    5 ar
     3    1   20 1
     4    2    7 ar
     5    2   21 1
     6    3    4 ar
     7    3    6 ar
     8    3   22 1
     9    4    9 ar
    10    4   23 1
    11    5   10 ar
    12    5   24 1
    13    6   11 ar
    14    6   25 1
    15    7   12 ar
    16    7   26 1
    17    8    9 ar
    18    8   11 ar
    19    8   27 1
    20    9   13 1
    21   10   12 ar
    22   10   16 1
    23   11   18 1
    24   12   19 1
    25   13   16 am
    26   13   17 2
    27   14   15 1
    28   14   16 1
    29   14   28 1
    30   14   29 1
    31   15   19 1
    32   15   30 1
    33   15   31 1
