@<TRIPOS>MOLECULE
*****
   22    23     0     0     0
SMALL
NO_CHARGES

@<TRIPOS>ATOM
      1 C1          2.2296   -2.3261    3.6532 C.2       1 <0>         0.0000
      2 C2          1.1424   -1.4017    3.7748 C.2       1 <0>         0.0000
      3 C3          2.2196   -3.2436    4.6644 C.2       1 <0>         0.0000
      4 C4          0.3350   -1.6437    4.8597 C.2       1 <0>         0.0000
      5 C5         -0.6996   -4.2201    0.5501 C.2       1 <0>         0.0000
      6 C6         -0.7544   -2.0127    1.4541 C.2       1 <0>         0.0000
      7 C7         -0.4309   -5.5207   -0.1396 C.3       1 <0>         0.0000
      8 N1         -1.6544   -4.0473    1.4218 N.2       1 <0>         0.0000
      9 N2         -1.6814   -2.7825    1.9543 N.2       1 <0>         0.0000
     10 N3         -0.6370   -0.6631    1.8101 N.pl3     1 <0>         0.0000
     11 O1          1.8771   -0.3360    1.5211 O.2       1 <0>         0.0000
     12 O2          0.5353    1.1297    3.1384 O.2       1 <0>         0.0000
     13 S1          0.8903   -3.0127    5.7772 S.3       1 <0>         0.0000
     14 S2          0.2720   -2.7811    0.2680 S.3       1 <0>         0.0000
     15 S3          0.8406   -0.1566    2.5307 S.o2      1 <0>         0.0000
     16 Cl1         3.3460   -4.5268    4.9169 Cl        1 <0>         0.0000
     17 Cl2        -1.0911   -0.8072    5.3293 Cl        1 <0>         0.0000
     18 H1          2.9603   -2.2869    2.8548 H         1 <0>         0.0000
     19 H2         -0.4984   -5.4159   -1.2269 H         1 <0>         0.0000
     20 H3          0.5687   -5.8966    0.1012 H         1 <0>         0.0000
     21 H4         -1.1724   -6.2493    0.1934 H         1 <0>         0.0000
     22 H5         -1.4273   -0.3661    2.3854 H         1 <0>         0.0000
@<TRIPOS>BOND
     1    1    2 1
     2    1    3 2
     3    1   18 1
     4    2    4 2
     5    2   15 1
     6    3   13 1
     7    3   16 1
     8    4   13 1
     9    4   17 1
    10    5    7 1
    11    5    8 2
    12    5   14 1
    13    6    9 2
    14    6   10 1
    15    6   14 1
    16    7   19 1
    17    7   20 1
    18    7   21 1
    19    8    9 1
    20   10   15 1
    21   10   22 1
    22   11   15 2
    23   12   15 2
