@<TRIPOS>MOLECULE
*****
   28    29     0     0     0
SMALL
NO_CHARGES

@<TRIPOS>ATOM
      1 C1          2.9953   -6.5042    3.3218 C.ar      1 <0>         0.0000
      2 C2          4.1476   -6.6980    2.5417 C.ar      1 <0>         0.0000
      3 C3          2.1078   -5.4624    3.0462 C.ar      1 <0>         0.0000
      4 C4          4.4322   -5.8483    1.4671 C.ar      1 <0>         0.0000
      5 C5          2.3761   -4.5991    1.9747 C.ar      1 <0>         0.0000
      6 C6          3.5436   -4.8076    1.1969 C.ar      1 <0>         0.0000
      7 C7          2.0889   -2.9195    0.5640 C.2       1 <0>         0.0000
      8 C8          1.1157   -0.5417    2.3477 C.2       1 <0>         0.0000
      9 C9          1.1884   -0.8870    3.6425 C.2       1 <0>         0.0000
     10 C10         0.0461   -0.9214    1.3965 C.2       1 <0>         0.0000
     11 C11         0.2691   -1.8018    4.3976 C.3       1 <0>         0.0000
     12 N1          1.5800   -3.5281    1.5897 N.2       1 <0>         0.0000
     13 N2          0.2380   -1.4084    0.2075 N.2       1 <0>         0.0000
     14 N3         -1.2634   -0.7272    1.7973 N.pl3     1 <0>         0.0000
     15 N4          1.5913   -1.7736   -0.0278 N.pl3     1 <0>         0.0000
     16 S1          3.6324   -3.5801   -0.0638 S.3       1 <0>         0.0000
     17 H1          2.7911   -7.1768    4.1507 H         1 <0>         0.0000
     18 H2          4.8260   -7.5150    2.7711 H         1 <0>         0.0000
     19 H3          1.2111   -5.3086    3.6397 H         1 <0>         0.0000
     20 H4          5.3229   -5.9995    0.8637 H         1 <0>         0.0000
     21 H5          1.9303    0.0219    1.8985 H         1 <0>         0.0000
     22 H6          2.0520   -0.5216    4.1989 H         1 <0>         0.0000
     23 H7         -0.1695   -1.2902    5.2639 H         1 <0>         0.0000
     24 H8          0.8495   -2.6468    4.7876 H         1 <0>         0.0000
     25 H9         -0.5318   -2.1933    3.7712 H         1 <0>         0.0000
     26 H10        -1.4210    0.0714    2.3998 H         1 <0>         0.0000
     27 H11        -1.9427   -0.8369    1.0502 H         1 <0>         0.0000
     28 H12         1.7863   -1.7173   -1.0216 H         1 <0>         0.0000
@<TRIPOS>BOND
     1    1    2 ar
     2    1    3 ar
     3    1   17 1
     4    2    4 ar
     5    2   18 1
     6    3    5 ar
     7    3   19 1
     8    4    6 ar
     9    4   20 1
    10    5    6 ar
    11    5   12 1
    12    6   16 1
    13    7   12 2
    14    7   15 1
    15    7   16 1
    16    8    9 2
    17    8   10 1
    18    8   21 1
    19    9   11 1
    20    9   22 1
    21   10   13 2
    22   10   14 1
    23   11   23 1
    24   11   24 1
    25   11   25 1
    26   13   15 1
    27   14   26 1
    28   14   27 1
    29   15   28 1
