@<TRIPOS>MOLECULE
*****
   22    23     0     0     0
SMALL
NO_CHARGES

@<TRIPOS>ATOM
      1 C1          2.3705    0.2997    0.6518 C.2       1 <0>         0.0000
      2 C2          1.1643    0.4384    1.4129 C.2       1 <0>         0.0000
      3 C3          2.3547    1.0938   -0.4577 C.2       1 <0>         0.0000
      4 C4          0.2705    1.3330    0.8731 C.2       1 <0>         0.0000
      5 C5         -0.4395   -4.0974   -0.0421 C.2       1 <0>         0.0000
      6 C6         -0.5203   -2.4490    1.6897 C.2       1 <0>         0.0000
      7 C7         -0.2131   -4.9470   -1.2526 C.3       1 <0>         0.0000
      8 N1         -1.0612   -4.5016    1.0269 N.2       1 <0>         0.0000
      9 N2         -1.1031   -3.5636    2.0291 N.2       1 <0>         0.0000
     10 N3         -0.5407   -1.3183    2.5107 N.pl3     1 <0>         0.0000
     11 O1          0.5299    0.3670    4.0191 O.2       1 <0>         0.0000
     12 O2          2.0414   -1.4193    2.9977 O.2       1 <0>         0.0000
     13 S1          0.8819    2.0280   -0.6011 S.3       1 <0>         0.0000
     14 S2          0.1469   -2.4371    0.0710 S.3       1 <0>         0.0000
     15 S3          0.9144   -0.4953    2.9085 S.o2      1 <0>         0.0000
     16 Cl1         3.5890    1.2368   -1.6549 Cl        1 <0>         0.0000
     17 Cl2        -1.2768    1.7832    1.4597 Cl        1 <0>         0.0000
     18 H1          3.1776   -0.3671    0.9294 H         1 <0>         0.0000
     19 H2         -0.6431   -4.4884   -2.1485 H         1 <0>         0.0000
     20 H3          0.8559   -5.1010   -1.4311 H         1 <0>         0.0000
     21 H4         -0.6868   -5.9164   -1.0875 H         1 <0>         0.0000
     22 H5         -1.0982   -1.4613    3.3550 H         1 <0>         0.0000
@<TRIPOS>BOND
     1    1    2 1
     2    1    3 2
     3    1   18 1
     4    2    4 2
     5    2   15 1
     6    3   13 1
     7    3   16 1
     8    4   13 1
     9    4   17 1
    10    5    7 1
    11    5    8 2
    12    5   14 1
    13    6    9 2
    14    6   10 1
    15    6   14 1
    16    7   19 1
    17    7   20 1
    18    7   21 1
    19    8    9 1
    20   10   15 1
    21   10   22 1
    22   11   15 2
    23   12   15 2
