@<TRIPOS>MOLECULE
*****
   27    29     0     0     0
SMALL
NO_CHARGES

@<TRIPOS>ATOM
      1 C1          0.3869    1.8771    0.7018 C.ar      1 <0>         0.0000
      2 C2          0.4278    2.4635    1.9814 C.ar      1 <0>         0.0000
      3 C3          2.4361   -1.1942    0.8764 C.2       1 <0>         0.0000
      4 C4          3.7349   -0.6803    1.1612 C.2       1 <0>         0.0000
      5 C5         -1.1052    0.0957    1.4843 C.ar      1 <0>         0.0000
      6 C6         -0.3713    0.7271    0.4562 C.ar      1 <0>         0.0000
      7 C7         -0.2868    1.8319    2.9813 C.ar      1 <0>         0.0000
      8 C8         -1.0279    0.6732    2.7358 C.ar      1 <0>         0.0000
      9 C9          2.0645   -0.9838   -0.4278 C.2       1 <0>         0.0000
     10 C10         4.2974   -0.0799    0.0621 C.2       1 <0>         0.0000
     11 C11        -1.3960    1.3035    4.8521 C.3       1 <0>         0.0000
     12 N1         -0.4062    0.1538   -0.8538 N.pl3     1 <0>         0.0000
     13 O1         -0.1614   -2.3100   -0.2460 O.2       1 <0>         0.0000
     14 O2          0.5681   -1.4267   -2.5489 O.2       1 <0>         0.0000
     15 O3         -0.3793    2.1671    4.3147 O.3       1 <0>         0.0000
     16 O4         -1.6123    0.2429    3.9060 O.3       1 <0>         0.0000
     17 S1          3.2785   -0.1406   -1.3489 S.3       1 <0>         0.0000
     18 S2          0.4559   -1.2995   -1.0974 S.o2      1 <0>         0.0000
     19 Cl1         5.8626    0.6460   -0.0262 Cl        1 <0>         0.0000
     20 H1          0.9594    2.3240   -0.1066 H         1 <0>         0.0000
     21 H2          1.0082    3.3589    2.1776 H         1 <0>         0.0000
     22 H3          1.7932   -1.6930    1.5928 H         1 <0>         0.0000
     23 H4          4.2315   -0.7497    2.1223 H         1 <0>         0.0000
     24 H5         -1.6831   -0.7996    1.2874 H         1 <0>         0.0000
     25 H6         -1.0488    0.8806    5.7968 H         1 <0>         0.0000
     26 H7         -2.3266    1.8727    4.9781 H         1 <0>         0.0000
     27 H8         -0.1583    0.8040   -1.5979 H         1 <0>         0.0000
@<TRIPOS>BOND
     1    1    2 ar
     2    1    6 ar
     3    1   20 1
     4    2    7 ar
     5    2   21 1
     6    3    4 1
     7    3    9 2
     8    3   22 1
     9    4   10 2
    10    4   23 1
    11    5    6 ar
    12    5    8 ar
    13    5   24 1
    14    6   12 1
    15    7    8 ar
    16    7   15 1
    17    8   16 1
    18    9   17 1
    19    9   18 1
    20   10   17 1
    21   10   19 1
    22   11   15 1
    23   11   16 1
    24   11   25 1
    25   11   26 1
    26   12   18 1
    27   12   27 1
    28   13   18 2
    29   14   18 2
