@<TRIPOS>MOLECULE
*****
   33    34     0     0     0
SMALL
NO_CHARGES

@<TRIPOS>ATOM
      1 C1          5.7690    2.4076    0.3188 C.ar      1 <0>         0.0000
      2 C2          5.6650    2.6577    1.6889 C.ar      1 <0>         0.0000
      3 C3          5.5463    1.1140   -0.1606 C.ar      1 <0>         0.0000
      4 C4          2.2601   -0.2201    0.9158 C.ar      1 <0>         0.0000
      5 C5          1.1075    0.0884    1.6307 C.ar      1 <0>         0.0000
      6 C6          5.3546    1.6199    2.5767 C.ar      1 <0>         0.0000
      7 C7          2.2309   -2.4327    1.8901 C.ar      1 <0>         0.0000
      8 C8          1.0980   -2.1294    2.6422 C.ar      1 <0>         0.0000
      9 C9          2.8506   -1.4851    1.0623 C.ar      1 <0>         0.0000
     10 C10         5.1711    0.0823    0.7043 C.ar      1 <0>         0.0000
     11 C11         0.5281   -0.8396    2.5158 C.ar      1 <0>         0.0000
     12 C12         5.1198    0.3273    2.0962 C.ar      1 <0>         0.0000
     13 C13         0.4631   -3.1544    3.5501 C.3       1 <0>         0.0000
     14 C14         4.4191   -0.5078    4.2256 C.3       1 <0>         0.0000
     15 N1          3.9948   -1.9415    0.3458 N.2       1 <0>         0.0000
     16 N2          5.0040   -1.2238    0.1299 N.2       1 <0>         0.0000
     17 N3         -0.6576   -0.5218    3.1930 N.pl3     1 <0>         0.0000
     18 O1          4.8484   -0.7489    2.8902 O.3       1 <0>         0.0000
     19 H1          6.0297    3.2066   -0.3693 H         1 <0>         0.0000
     20 H2          5.8428    3.6564    2.0787 H         1 <0>         0.0000
     21 H3          5.6303    0.8862   -1.2200 H         1 <0>         0.0000
     22 H4          2.6828    0.5143    0.2401 H         1 <0>         0.0000
     23 H5          0.6412    1.0633    1.5015 H         1 <0>         0.0000
     24 H6          5.3036    1.8250    3.6405 H         1 <0>         0.0000
     25 H7          2.6777   -3.4217    1.9534 H         1 <0>         0.0000
     26 H8          0.4771   -2.8356    4.6020 H         1 <0>         0.0000
     27 H9         -0.5844   -3.3338    3.2793 H         1 <0>         0.0000
     28 H10         0.9930   -4.1082    3.4951 H         1 <0>         0.0000
     29 H11         4.1060   -1.4775    4.6148 H         1 <0>         0.0000
     30 H12         3.5687    0.1840    4.2436 H         1 <0>         0.0000
     31 H13         5.2332   -0.1140    4.8466 H         1 <0>         0.0000
     32 H14        -0.8388    0.4717    3.2772 H         1 <0>         0.0000
     33 H15        -0.7917   -0.9984    4.0768 H         1 <0>         0.0000
@<TRIPOS>BOND
     1    1    2 ar
     2    1    3 ar
     3    1   19 1
     4    2    6 ar
     5    2   20 1
     6    3   10 ar
     7    3   21 1
     8    4    5 ar
     9    4    9 ar
    10    4   22 1
    11    5   11 ar
    12    5   23 1
    13    6   12 ar
    14    6   24 1
    15    7    8 ar
    16    7    9 ar
    17    7   25 1
    18    8   11 ar
    19    8   13 1
    20    9   15 1
    21   10   12 ar
    22   10   16 1
    23   11   17 1
    24   12   18 1
    25   13   26 1
    26   13   27 1
    27   13   28 1
    28   14   18 1
    29   14   29 1
    30   14   30 1
    31   14   31 1
    32   15   16 2
    33   17   32 1
    34   17   33 1
