@<TRIPOS>MOLECULE
*****
   37    40     0     0     0
SMALL
NO_CHARGES

@<TRIPOS>ATOM
      1 C1         -2.4183   -5.0055   -0.1722 C.ar      1 <0>         0.0000
      2 C2         -1.1360   -0.3124   -0.1296 C.ar      1 <0>         0.0000
      3 C3         -1.3818   -4.0905   -0.3428 C.ar      1 <0>         0.0000
      4 C4         -0.6919   -1.6097   -0.3213 C.ar      1 <0>         0.0000
      5 C5         -3.7441   -4.6086    0.1566 C.ar      1 <0>         0.0000
      6 C6         -2.4920    0.0208    0.1928 C.ar      1 <0>         0.0000
      7 C7         -1.6153   -2.6942   -0.1926 C.ar      1 <0>         0.0000
      8 C8         -2.9341   -2.3454    0.1276 C.ar      1 <0>         0.0000
      9 C9         -3.9858   -3.2560    0.3044 C.ar      1 <0>         0.0000
     10 C10        -3.3867   -1.0184    0.3207 C.ar      1 <0>         0.0000
     11 C11        -6.0246    0.7895   -0.3108 C.2       1 <0>         0.0000
     12 C12        -5.7371    2.0591   -2.0168 C.2       1 <0>         0.0000
     13 C13        -5.1981   -2.4468    0.6423 C.2       1 <0>         0.0000
     14 C14        -5.9185    3.5172   -4.0316 C.3       1 <0>         0.0000
     15 C15        -3.8516    2.0718   -3.6465 C.3       1 <0>         0.0000
     16 C16        -5.6501    0.0109    0.9105 C.3       1 <0>         0.0000
     17 C17        -4.9756    2.9005   -2.9910 C.3       1 <0>         0.0000
     18 N1         -7.1757    0.8819   -0.8958 N.2       1 <0>         0.0000
     19 N2         -6.9879    1.7141   -2.0128 N.2       1 <0>         0.0000
     20 N3         -4.7562   -1.0961    0.6265 N.am      1 <0>         0.0000
     21 O1         -6.3374   -2.7984    0.9021 O.2       1 <0>         0.0000
     22 O2         -5.0547    1.5146   -0.9547 O.3       1 <0>         0.0000
     23 H1         -2.2074   -6.0646   -0.2941 H         1 <0>         0.0000
     24 H2         -0.4272    0.5054   -0.2301 H         1 <0>         0.0000
     25 H3         -0.3859   -4.4492   -0.5924 H         1 <0>         0.0000
     26 H4          0.3493   -1.8005   -0.5673 H         1 <0>         0.0000
     27 H5         -4.5311   -5.3463    0.2846 H         1 <0>         0.0000
     28 H6         -2.7812    1.0594    0.3118 H         1 <0>         0.0000
     29 H7         -6.4096    2.7378   -4.6207 H         1 <0>         0.0000
     30 H8         -5.3476    4.1582   -4.7103 H         1 <0>         0.0000
     31 H9         -6.6994    4.1171   -3.5573 H         1 <0>         0.0000
     32 H10        -4.2738    1.2572   -4.2439 H         1 <0>         0.0000
     33 H11        -3.1834    1.6362   -2.8981 H         1 <0>         0.0000
     34 H12        -3.2583    2.7093   -4.3094 H         1 <0>         0.0000
     35 H13        -5.1909    0.6743    1.6524 H         1 <0>         0.0000
     36 H14        -6.5664   -0.4092    1.3289 H         1 <0>         0.0000
     37 H15        -4.5062    3.7084   -2.4137 H         1 <0>         0.0000
@<TRIPOS>BOND
     1    1    3 ar
     2    1    5 ar
     3    1   23 1
     4    2    4 ar
     5    2    6 ar
     6    2   24 1
     7    3    7 ar
     8    3   25 1
     9    4    7 ar
    10    4   26 1
    11    5    9 ar
    12    5   27 1
    13    6   10 ar
    14    6   28 1
    15    7    8 ar
    16    8    9 ar
    17    8   10 ar
    18    9   13 1
    19   10   20 1
    20   11   16 1
    21   11   18 2
    22   11   22 1
    23   12   17 1
    24   12   19 2
    25   12   22 1
    26   13   20 am
    27   13   21 2
    28   14   17 1
    29   14   29 1
    30   14   30 1
    31   14   31 1
    32   15   17 1
    33   15   32 1
    34   15   33 1
    35   15   34 1
    36   16   20 1
    37   16   35 1
    38   16   36 1
    39   17   37 1
    40   18   19 1
