@<TRIPOS>MOLECULE
*****
   49    52     0     0     0
SMALL
NO_CHARGES

@<TRIPOS>ATOM
      1 C1         -0.1616    1.6031    6.6828 C.2       1 <0>         0.0000
      2 C2          0.2819   -0.6786    6.0302 C.2       1 <0>         0.0000
      3 C3          0.2958   -2.2719    1.1067 C.2       1 <0>         0.0000
      4 C4          2.3908   -3.3480    4.5164 C.3       1 <0>         0.0000
      5 C5          1.2668   -4.2692    2.3641 C.3       1 <0>         0.0000
      6 C6          1.9048   -1.9048    4.6570 C.3       1 <0>         0.0000
      7 C7          0.6584   -1.4060   -1.1509 C.3       1 <0>         0.0000
      8 C8          0.2120   -3.7982   -0.9064 C.3       1 <0>         0.0000
      9 C9          2.0122   -1.7424   -1.7968 C.3       1 <0>         0.0000
     10 C10         1.5729   -4.0958   -1.5674 C.3       1 <0>         0.0000
     11 C11        -0.1522   -3.0241    5.6040 C.3       1 <0>         0.0000
     12 C12        -0.0213   -3.4655    2.0204 C.3       1 <0>         0.0000
     13 C13         1.3248   -4.2819    3.9096 C.3       1 <0>         0.0000
     14 C14        -0.0936   -3.8221    4.3101 C.3       1 <0>         0.0000
     15 C15        -0.2019    3.0765    6.9455 C.3       1 <0>         0.0000
     16 C16         1.3529   -3.0445   -3.7664 C.3       1 <0>         0.0000
     17 N1         -1.0292    0.7539    7.1409 N.2       1 <0>         0.0000
     18 N2         -0.7902   -0.5501    6.7829 N.2       1 <0>         0.0000
     19 N3          0.7439   -1.8655    5.5523 N.pl3     1 <0>         0.0000
     20 N4          0.2556   -2.4908   -0.2476 N.am      1 <0>         0.0000
     21 N5          2.0341   -3.0446   -2.4734 N.3       1 <0>         0.0000
     22 O1          0.5991   -1.1810    1.5892 O.2       1 <0>         0.0000
     23 O2         -0.5368   -2.9757    3.2458 O.3       1 <0>         0.0000
     24 S1          1.1000    0.8520    5.6958 S.3       1 <0>         0.0000
     25 H1          3.3006   -3.3618    3.9075 H         1 <0>         0.0000
     26 H2          2.6701   -3.7157    5.5105 H         1 <0>         0.0000
     27 H3          1.2081   -5.2834    1.9594 H         1 <0>         0.0000
     28 H4          2.1569   -3.7990    1.9381 H         1 <0>         0.0000
     29 H5          2.7058   -1.3037    5.1021 H         1 <0>         0.0000
     30 H6          1.6491   -1.4739    3.6809 H         1 <0>         0.0000
     31 H7          0.7178   -0.4863   -0.5700 H         1 <0>         0.0000
     32 H8         -0.1202   -1.2868   -1.9144 H         1 <0>         0.0000
     33 H9         -0.5858   -3.7843   -1.6599 H         1 <0>         0.0000
     34 H10        -0.0304   -4.5863   -0.1952 H         1 <0>         0.0000
     35 H11         2.2904   -0.9645   -2.5152 H         1 <0>         0.0000
     36 H12         2.7766   -1.7538   -1.0099 H         1 <0>         0.0000
     37 H13         2.3215   -4.2135   -0.7728 H         1 <0>         0.0000
     38 H14         1.5200   -5.0430   -2.1153 H         1 <0>         0.0000
     39 H15        -1.1669   -2.6626    5.7754 H         1 <0>         0.0000
     40 H16         0.1066   -3.6836    6.4440 H         1 <0>         0.0000
     41 H17        -0.7746   -4.1187    1.5631 H         1 <0>         0.0000
     42 H18         1.5037   -5.2995    4.2689 H         1 <0>         0.0000
     43 H19        -0.7661   -4.6892    4.4044 H         1 <0>         0.0000
     44 H20         0.6999    3.4170    7.4660 H         1 <0>         0.0000
     45 H21        -0.2879    3.6478    6.0149 H         1 <0>         0.0000
     46 H22        -1.0710    3.2906    7.5712 H         1 <0>         0.0000
     47 H23         1.8154   -2.2929   -4.4138 H         1 <0>         0.0000
     48 H24         0.2704   -2.8325   -3.7278 H         1 <0>         0.0000
     49 H25         1.4849   -4.0216   -4.2423 H         1 <0>         0.0000
@<TRIPOS>BOND
     1    1   15 1
     2    1   17 2
     3    1   24 1
     4    2   18 2
     5    2   19 1
     6    2   24 1
     7    3   12 1
     8    3   20 am
     9    3   22 2
    10    4    6 1
    11    4   13 1
    12    4   25 1
    13    4   26 1
    14    5   12 1
    15    5   13 1
    16    5   27 1
    17    5   28 1
    18    6   19 1
    19    6   29 1
    20    6   30 1
    21    7    9 1
    22    7   20 1
    23    7   31 1
    24    7   32 1
    25    8   10 1
    26    8   20 1
    27    8   33 1
    28    8   34 1
    29    9   21 1
    30    9   35 1
    31    9   36 1
    32   10   21 1
    33   10   37 1
    34   10   38 1
    35   11   14 1
    36   11   19 1
    37   11   39 1
    38   11   40 1
    39   12   23 1
    40   12   41 1
    41   13   14 1
    42   13   42 1
    43   14   23 1
    44   14   43 1
    45   15   44 1
    46   15   45 1
    47   15   46 1
    48   16   21 1
    49   16   47 1
    50   16   48 1
    51   16   49 1
    52   17   18 1
