@<TRIPOS>MOLECULE
*****
   41    43     0     0     0
SMALL
NO_CHARGES

@<TRIPOS>ATOM
      1 C1         -6.6939    7.2712   -7.0932 C.ar      1 <0>         0.0000
      2 C2         -5.5682    6.4564   -6.9573 C.ar      1 <0>         0.0000
      3 C3         -1.8830   -0.0917   -2.3657 C.ar      1 <0>         0.0000
      4 C4         -2.7116   -1.2065   -2.4657 C.ar      1 <0>         0.0000
      5 C5         -3.0210    1.9808   -5.2512 C.2       1 <0>         0.0000
      6 C6         -3.7927   -0.2562   -4.4253 C.ar      1 <0>         0.0000
      7 C7         -6.6729    5.3404   -5.1169 C.ar      1 <0>         0.0000
      8 C8         -2.9593    0.8766   -4.3318 C.ar      1 <0>         0.0000
      9 C9         -2.2028    3.0620   -5.1270 C.2       1 <0>         0.0000
     10 C10        -7.8161    7.1470   -6.2653 C.ar      1 <0>         0.0000
     11 C11        -7.7968    6.1588   -5.2568 C.ar      1 <0>         0.0000
     12 C12        -5.5565    5.4778   -5.9571 C.ar      1 <0>         0.0000
     13 C13        -2.0102    0.9420   -3.2961 C.ar      1 <0>         0.0000
     14 C14        -3.6617   -1.2786   -3.4971 C.ar      1 <0>         0.0000
     15 C15        -1.2303    3.1210   -4.0195 C.2       1 <0>         0.0000
     16 C16        -2.2320    4.1902   -6.1028 C.2       1 <0>         0.0000
     17 C17        -9.0137    8.0504   -6.4469 C.3       1 <0>         0.0000
     18 C18        -8.9771    5.9829   -4.3300 C.3       1 <0>         0.0000
     19 C19        -0.9560    4.5413   -6.8225 C.3       1 <0>         0.0000
     20 N1         -3.2970    4.8577   -6.4018 N.2       1 <0>         0.0000
     21 N2         -4.4777    4.5910   -5.7878 N.pl3     1 <0>         0.0000
     22 O1         -0.4783    4.0408   -3.7842 O.2       1 <0>         0.0000
     23 O2         -1.1816    2.0193   -3.1655 O.3       1 <0>         0.0000
     24 Br1        -4.7944   -2.8172   -3.6209 Br        1 <0>         0.0000
     25 H1         -6.6949    8.0313   -7.8719 H         1 <0>         0.0000
     26 H2         -4.7079    6.5721   -7.6059 H         1 <0>         0.0000
     27 H3         -1.1406   -0.0109   -1.5779 H         1 <0>         0.0000
     28 H4         -2.6236   -2.0164   -1.7492 H         1 <0>         0.0000
     29 H5         -3.7376    1.9417   -6.0689 H         1 <0>         0.0000
     30 H6         -4.5286   -0.3185   -5.2211 H         1 <0>         0.0000
     31 H7         -6.6633    4.5798   -4.3367 H         1 <0>         0.0000
     32 H8         -9.9250    7.4799   -6.6642 H         1 <0>         0.0000
     33 H9         -9.2177    8.6419   -5.5459 H         1 <0>         0.0000
     34 H10        -8.8555    8.7492   -7.2728 H         1 <0>         0.0000
     35 H11        -9.1858    6.9014   -3.7691 H         1 <0>         0.0000
     36 H12        -9.8896    5.7376   -4.8860 H         1 <0>         0.0000
     37 H13        -8.8006    5.1823   -3.6067 H         1 <0>         0.0000
     38 H14        -0.5470    3.6659   -7.3421 H         1 <0>         0.0000
     39 H15        -1.1586    5.3263   -7.5537 H         1 <0>         0.0000
     40 H16        -0.1963    4.8904   -6.1176 H         1 <0>         0.0000
     41 H17        -4.4585    4.0753   -4.9095 H         1 <0>         0.0000
@<TRIPOS>BOND
     1    1    2 ar
     2    1   10 ar
     3    1   25 1
     4    2   12 ar
     5    2   26 1
     6    3    4 ar
     7    3   13 ar
     8    3   27 1
     9    4   14 ar
    10    4   28 1
    11    5    8 1
    12    5    9 2
    13    5   29 1
    14    6    8 ar
    15    6   14 ar
    16    6   30 1
    17    7   11 ar
    18    7   12 ar
    19    7   31 1
    20    8   13 ar
    21    9   15 1
    22    9   16 1
    23   10   11 ar
    24   10   17 1
    25   11   18 1
    26   12   21 1
    27   13   23 1
    28   14   24 1
    29   15   22 2
    30   15   23 1
    31   16   19 1
    32   16   20 2
    33   17   32 1
    34   17   33 1
    35   17   34 1
    36   18   35 1
    37   18   36 1
    38   18   37 1
    39   19   38 1
    40   19   39 1
    41   19   40 1
    42   20   21 1
    43   21   41 1
