@<TRIPOS>MOLECULE
*****
   28    29     0     0     0
SMALL
NO_CHARGES

@<TRIPOS>ATOM
      1 C1          0.6976    0.0233   -8.8998 C.ar      1 <0>         0.0000
      2 C2          0.6697   -1.0694   -8.0296 C.ar      1 <0>         0.0000
      3 C3          0.1684    1.2567   -8.5101 C.ar      1 <0>         0.0000
      4 C4         -0.4034    0.3173   -6.3107 C.ar      1 <0>         0.0000
      5 C5          0.1192   -0.9001   -6.7657 C.ar      1 <0>         0.0000
      6 C6         -0.3737    1.3686   -7.2381 C.ar      1 <0>         0.0000
      7 C7          4.2129    0.3111   -4.9948 C.2       1 <0>         0.0000
      8 C8          4.0711   -0.8897   -4.1490 C.2       1 <0>         0.0000
      9 C9          1.7476   -0.2128   -4.0841 C.2       1 <0>         0.0000
     10 C10        -1.0148    0.5394   -4.9867 C.2       1 <0>         0.0000
     11 C11         5.5770    0.6252   -5.5305 C.3       1 <0>         0.0000
     12 N1          3.2075    1.0821   -5.3062 N.2       1 <0>         0.0000
     13 N2          1.9409    0.8404   -4.8283 N.2       1 <0>         0.0000
     14 N3         -0.6739    0.1627   -3.8040 N.2       1 <0>         0.0000
     15 N4          2.7534   -1.0817   -3.7323 N.am      1 <0>         0.0000
     16 N5          0.4933   -0.5515   -3.5869 N.pl3     1 <0>         0.0000
     17 O1          4.9654   -1.6711   -3.8440 O.2       1 <0>         0.0000
     18 F1          0.0790   -1.9730   -5.9386 F         1 <0>         0.0000
     19 F2         -0.8837    2.5610   -6.8527 F         1 <0>         0.0000
     20 H1          1.1289   -0.0888   -9.8899 H         1 <0>         0.0000
     21 H2          1.0570   -2.0418   -8.3155 H         1 <0>         0.0000
     22 H3          0.1801    2.1213   -9.1653 H         1 <0>         0.0000
     23 H4         -1.9297    1.1289   -4.9899 H         1 <0>         0.0000
     24 H5          5.9545   -0.2075   -6.1333 H         1 <0>         0.0000
     25 H6          6.2884    0.7640   -4.7096 H         1 <0>         0.0000
     26 H7          5.5316    1.5305   -6.1375 H         1 <0>         0.0000
     27 H8          2.5529   -1.9486   -3.2394 H         1 <0>         0.0000
     28 H9          0.5108   -0.8712   -2.6245 H         1 <0>         0.0000
@<TRIPOS>BOND
     1    1    3 ar
     2    1    2 ar
     3    1   20 1
     4    2    5 ar
     5    2   21 1
     6    3    6 ar
     7    3   22 1
     8    4    6 ar
     9    4    5 ar
    10    4   10 1
    11    5   18 1
    12    6   19 1
    13    7    8 1
    14    7   11 1
    15    7   12 2
    16    8   15 am
    17    8   17 2
    18    9   13 2
    19    9   15 1
    20    9   16 1
    21   10   14 2
    22   10   23 1
    23   11   24 1
    24   11   25 1
    25   11   26 1
    26   12   13 1
    27   14   16 1
    28   15   27 1
    29   16   28 1
