@<TRIPOS>MOLECULE
*****
   41    43     0     0     0
SMALL
NO_CHARGES

@<TRIPOS>ATOM
      1 C1         -5.5239    8.6658   -5.1722 C.ar      1 <0>         0.0000
      2 C2         -4.5290    7.6864   -5.1917 C.ar      1 <0>         0.0000
      3 C3         -1.5844    0.2870   -1.4351 C.ar      1 <0>         0.0000
      4 C4         -1.3295    0.5575   -0.0929 C.ar      1 <0>         0.0000
      5 C5         -1.6201    3.7083   -2.9218 C.2       1 <0>         0.0000
      6 C6         -1.2572    2.9419   -0.5631 C.ar      1 <0>         0.0000
      7 C7         -5.6072    6.6393   -3.2959 C.ar      1 <0>         0.0000
      8 C8         -1.5159    2.6784   -1.9233 C.ar      1 <0>         0.0000
      9 C9         -1.8766    3.4166   -4.2268 C.2       1 <0>         0.0000
     10 C10        -6.5647    8.6616   -4.2357 C.ar      1 <0>         0.0000
     11 C11        -6.6008    7.6217   -3.2811 C.ar      1 <0>         0.0000
     12 C12        -4.5698    6.6597   -4.2417 C.ar      1 <0>         0.0000
     13 C13        -1.6766    1.3454   -2.3416 C.ar      1 <0>         0.0000
     14 C14        -1.1681    1.8861    0.3319 C.ar      1 <0>         0.0000
     15 C15        -2.0652    2.0132   -4.6400 C.2       1 <0>         0.0000
     16 C16        -1.9431    4.4767   -5.2744 C.2       1 <0>         0.0000
     17 C17        -7.6216    9.7413   -4.2505 C.3       1 <0>         0.0000
     18 C18        -7.7036    7.5625   -2.2499 C.3       1 <0>         0.0000
     19 C19        -1.0152    4.3684   -6.4562 C.3       1 <0>         0.0000
     20 N1         -2.7189    5.5078   -5.2088 N.2       1 <0>         0.0000
     21 N2         -3.5795    5.6632   -4.1708 N.pl3     1 <0>         0.0000
     22 O1         -2.3332    1.6329   -5.7582 O.2       1 <0>         0.0000
     23 O2         -1.9288    1.0416   -3.6486 O.3       1 <0>         0.0000
     24 Br1        -0.8191    2.2421    2.1805 Br        1 <0>         0.0000
     25 H1         -5.4869    9.4598   -5.9153 H         1 <0>         0.0000
     26 H2         -3.7346    7.7056   -5.9283 H         1 <0>         0.0000
     27 H3         -1.7135   -0.7308   -1.7895 H         1 <0>         0.0000
     28 H4         -1.2560   -0.2553    0.6219 H         1 <0>         0.0000
     29 H5         -1.4826    4.7448   -2.6209 H         1 <0>         0.0000
     30 H6         -1.1303    3.9670   -0.2285 H         1 <0>         0.0000
     31 H7         -5.6403    5.8391   -2.5572 H         1 <0>         0.0000
     32 H8         -8.6257    9.3262   -4.4002 H         1 <0>         0.0000
     33 H9         -7.6471   10.2992   -3.3064 H         1 <0>         0.0000
     34 H10        -7.4369   10.4591   -5.0544 H         1 <0>         0.0000
     35 H11        -7.7168    8.4637   -1.6256 H         1 <0>         0.0000
     36 H12        -8.6902    7.4909   -2.7227 H         1 <0>         0.0000
     37 H13        -7.5862    6.6995   -1.5891 H         1 <0>         0.0000
     38 H14        -1.2405    3.4756   -7.0461 H         1 <0>         0.0000
     39 H15        -1.1264    5.2544   -7.0844 H         1 <0>         0.0000
     40 H16         0.0287    4.2923   -6.1276 H         1 <0>         0.0000
     41 H17        -3.8105    4.8449   -3.6097 H         1 <0>         0.0000
@<TRIPOS>BOND
     1    1    2 ar
     2    1   10 ar
     3    1   25 1
     4    2   12 ar
     5    2   26 1
     6    3    4 ar
     7    3   13 ar
     8    3   27 1
     9    4   14 ar
    10    4   28 1
    11    5    8 1
    12    5    9 2
    13    5   29 1
    14    6    8 ar
    15    6   14 ar
    16    6   30 1
    17    7   11 ar
    18    7   12 ar
    19    7   31 1
    20    8   13 ar
    21    9   15 1
    22    9   16 1
    23   10   11 ar
    24   10   17 1
    25   11   18 1
    26   12   21 1
    27   13   23 1
    28   14   24 1
    29   15   22 2
    30   15   23 1
    31   16   19 1
    32   16   20 2
    33   17   32 1
    34   17   33 1
    35   17   34 1
    36   18   35 1
    37   18   36 1
    38   18   37 1
    39   19   38 1
    40   19   39 1
    41   19   40 1
    42   20   21 1
    43   21   41 1
