@<TRIPOS>MOLECULE
*****
   35    37     0     0     0
SMALL
NO_CHARGES

@<TRIPOS>ATOM
      1 C1         -1.1864   -0.0475   -1.7515 C.ar      1 <0>         0.0000
      2 C2         -2.1283   -1.0871   -1.6531 C.ar      1 <0>         0.0000
      3 C3         -3.3773   -6.2499   -5.5960 C.ar      1 <0>         0.0000
      4 C4         -2.5874   -6.3708   -7.8758 C.ar      1 <0>         0.0000
      5 C5         -0.0830   -0.1537   -2.6000 C.ar      1 <0>         0.0000
      6 C6         -2.0691   -6.1097   -5.1354 C.ar      1 <0>         0.0000
      7 C7         -1.2706   -6.2337   -7.4371 C.ar      1 <0>         0.0000
      8 C8         -3.6568   -6.3813   -6.9657 C.ar      1 <0>         0.0000
      9 C9         -2.0074   -2.2666   -2.3922 C.ar      1 <0>         0.0000
     10 C10        -0.8961   -2.3799   -3.2488 C.ar      1 <0>         0.0000
     11 C11         0.0477   -1.3303   -3.3404 C.ar      1 <0>         0.0000
     12 C12        -1.0309   -6.1018   -6.0681 C.ar      1 <0>         0.0000
     13 C13         0.4452   -3.3101   -4.7397 C.2       1 <0>         0.0000
     14 C14        -5.0760   -6.5638   -7.4475 C.3       1 <0>         0.0000
     15 C15        -3.0044   -3.3936   -2.2997 C.3       1 <0>         0.0000
     16 N1         -0.6408   -3.4803   -4.0596 N.2       1 <0>         0.0000
     17 N2          0.9350   -4.2289   -5.6555 N.pl3     1 <0>         0.0000
     18 O1          1.5686   -6.4701   -6.5041 O.2       1 <0>         0.0000
     19 O2          0.7217   -6.3216   -4.0988 O.2       1 <0>         0.0000
     20 S1          1.3117   -1.7770   -4.4830 S.3       1 <0>         0.0000
     21 S2          0.6488   -5.9296   -5.5010 S.o2      1 <0>         0.0000
     22 H1         -1.3179    0.8528   -1.1577 H         1 <0>         0.0000
     23 H2         -2.9763   -0.9705   -0.9826 H         1 <0>         0.0000
     24 H3         -4.1947   -6.2550   -4.8787 H         1 <0>         0.0000
     25 H4         -2.7860   -6.4751   -8.9397 H         1 <0>         0.0000
     26 H5          0.6442    0.6493   -2.6749 H         1 <0>         0.0000
     27 H6         -1.8484   -5.9950   -4.0810 H         1 <0>         0.0000
     28 H7         -0.4416   -6.2393   -8.1378 H         1 <0>         0.0000
     29 H8         -5.3460   -7.6266   -7.4555 H         1 <0>         0.0000
     30 H9         -5.7883   -6.0492   -6.7963 H         1 <0>         0.0000
     31 H10        -5.2054   -6.1840   -8.4648 H         1 <0>         0.0000
     32 H11        -3.4089   -3.6377   -3.2875 H         1 <0>         0.0000
     33 H12        -2.5280   -4.3028   -1.9168 H         1 <0>         0.0000
     34 H13        -3.8332   -3.1327   -1.6363 H         1 <0>         0.0000
     35 H14         1.8493   -4.0612   -6.0676 H         1 <0>         0.0000
@<TRIPOS>BOND
     1    1    2 ar
     2    1    5 ar
     3    1   22 1
     4    2    9 ar
     5    2   23 1
     6    3    6 ar
     7    3    8 ar
     8    3   24 1
     9    4    7 ar
    10    4    8 ar
    11    4   25 1
    12    5   11 ar
    13    5   26 1
    14    6   12 ar
    15    6   27 1
    16    7   12 ar
    17    7   28 1
    18    8   14 1
    19    9   10 ar
    20    9   15 1
    21   10   11 ar
    22   10   16 1
    23   11   20 1
    24   12   21 1
    25   13   16 2
    26   13   17 1
    27   13   20 1
    28   14   29 1
    29   14   30 1
    30   14   31 1
    31   15   32 1
    32   15   33 1
    33   15   34 1
    34   17   21 1
    35   17   35 1
    36   18   21 2
    37   19   21 2
