@<TRIPOS>MOLECULE
*****
   35    37     0     0     0
SMALL
NO_CHARGES

@<TRIPOS>ATOM
      1 C1          0.1795    0.1065   -1.5768 C.ar      1 <0>         0.0000
      2 C2          0.2837   -1.1918   -1.0476 C.ar      1 <0>         0.0000
      3 C3          3.7288   -5.2450   -6.3110 C.ar      1 <0>         0.0000
      4 C4          2.8656   -5.7656   -4.1159 C.ar      1 <0>         0.0000
      5 C5         -0.0529    0.3119   -2.9381 C.ar      1 <0>         0.0000
      6 C6          2.4299   -5.1254   -6.8039 C.ar      1 <0>         0.0000
      7 C7          1.5585   -5.6465   -4.5864 C.ar      1 <0>         0.0000
      8 C8          3.9660   -5.5651   -4.9641 C.ar      1 <0>         0.0000
      9 C9          0.1593   -2.3297   -1.8493 C.ar      1 <0>         0.0000
     10 C10        -0.0797   -2.1289   -3.2217 C.ar      1 <0>         0.0000
     11 C11        -0.1782   -0.8193   -3.7466 C.ar      1 <0>         0.0000
     12 C12         1.3583   -5.3240   -5.9299 C.ar      1 <0>         0.0000
     13 C13        -0.4292   -2.6775   -5.3349 C.2       1 <0>         0.0000
     14 C14         5.3758   -5.7245   -4.4477 C.3       1 <0>         0.0000
     15 C15         0.2817   -3.7289   -1.3019 C.3       1 <0>         0.0000
     16 N1         -0.2282   -3.1545   -4.1507 N.2       1 <0>         0.0000
     17 N2         -0.6132   -3.4464   -6.4702 N.pl3     1 <0>         0.0000
     18 O1         -1.2233   -5.8159   -5.6437 O.2       1 <0>         0.0000
     19 O2         -0.3148   -5.3722   -7.9934 O.2       1 <0>         0.0000
     20 S1         -0.4685   -0.9026   -5.4826 S.3       1 <0>         0.0000
     21 S2         -0.3043   -5.1432   -6.5478 S.o2      1 <0>         0.0000
     22 H1          0.2811    0.9642   -0.9176 H         1 <0>         0.0000
     23 H2          0.4652   -1.3158    0.0173 H         1 <0>         0.0000
     24 H3          4.5698   -5.0936   -6.9834 H         1 <0>         0.0000
     25 H4          3.0331   -6.0151   -3.0708 H         1 <0>         0.0000
     26 H5         -0.1321    1.3148   -3.3468 H         1 <0>         0.0000
     27 H6          2.2468   -4.8976   -7.8495 H         1 <0>         0.0000
     28 H7          0.7051   -5.7884   -3.9344 H         1 <0>         0.0000
     29 H8          5.7079   -6.7645   -4.5508 H         1 <0>         0.0000
     30 H9          6.0790   -5.0981   -5.0037 H         1 <0>         0.0000
     31 H10         5.4454   -5.4609   -3.3886 H         1 <0>         0.0000
     32 H11        -0.5873   -4.3348   -1.5763 H         1 <0>         0.0000
     33 H12         1.1632   -4.2297   -1.7176 H         1 <0>         0.0000
     34 H13         0.3734   -3.7192   -0.2126 H         1 <0>         0.0000
     35 H14        -0.5227   -3.0049   -7.3801 H         1 <0>         0.0000
@<TRIPOS>BOND
     1    1    2 ar
     2    1    5 ar
     3    1   22 1
     4    2    9 ar
     5    2   23 1
     6    3    6 ar
     7    3    8 ar
     8    3   24 1
     9    4    7 ar
    10    4    8 ar
    11    4   25 1
    12    5   11 ar
    13    5   26 1
    14    6   12 ar
    15    6   27 1
    16    7   12 ar
    17    7   28 1
    18    8   14 1
    19    9   10 ar
    20    9   15 1
    21   10   11 ar
    22   10   16 1
    23   11   20 1
    24   12   21 1
    25   13   16 2
    26   13   17 1
    27   13   20 1
    28   14   29 1
    29   14   30 1
    30   14   31 1
    31   15   32 1
    32   15   33 1
    33   15   34 1
    34   17   21 1
    35   17   35 1
    36   18   21 2
    37   19   21 2
