@<TRIPOS>MOLECULE
*****
   39    41     0     0     0
SMALL
NO_CHARGES

@<TRIPOS>ATOM
      1 C1         -1.1364    0.6154    2.0994 C.ar      1 <0>         0.0000
      2 C2         -2.0100    1.2036    1.1885 C.ar      1 <0>         0.0000
      3 C3          3.1823    3.9537   -0.4885 C.ar      1 <0>         0.0000
      4 C4         -0.0458   -0.1233    1.6442 C.ar      1 <0>         0.0000
      5 C5          3.5243    3.0651   -1.5073 C.ar      1 <0>         0.0000
      6 C6          2.7023    2.1170    0.9710 C.ar      1 <0>         0.0000
      7 C7         -1.8169    1.0600   -0.1917 C.ar      1 <0>         0.0000
      8 C8          2.7569    3.4984    0.7672 C.ar      1 <0>         0.0000
      9 C9          0.2029   -0.2538    0.2708 C.ar      1 <0>         0.0000
     10 C10        -0.7017    0.3238   -0.6451 C.ar      1 <0>         0.0000
     11 C11         3.4496    1.6823   -1.3036 C.ar      1 <0>         0.0000
     12 C12         3.0362    1.2129   -0.0448 C.ar      1 <0>         0.0000
     13 C13        -2.8318    1.7430   -1.0787 C.2       1 <0>         0.0000
     14 C14         1.2076   -1.4637   -1.5970 C.3       1 <0>         0.0000
     15 C15         0.6961   -0.3505   -2.4941 C.3       1 <0>         0.0000
     16 C16         2.3476    4.4602    1.8580 C.3       1 <0>         0.0000
     17 N1          1.3223   -1.0009   -0.2080 N.pl3     1 <0>         0.0000
     18 O1         -3.7485    2.3910   -0.6138 O.2       1 <0>         0.0000
     19 O2          3.8329   -1.3316   -0.4334 O.2       1 <0>         0.0000
     20 O3          2.8496   -0.6277    1.8024 O.2       1 <0>         0.0000
     21 O4         -0.5660    0.1470   -2.0059 O.3       1 <0>         0.0000
     22 O5          3.7379    0.7896   -2.3010 O.3       1 <0>         0.0000
     23 O6         -2.6951    1.6252   -2.4182 O.3       1 <0>         0.0000
     24 S1          2.8891   -0.5381    0.3446 S.o2      1 <0>         0.0000
     25 H1         -1.3105    0.7136    3.1668 H         1 <0>         0.0000
     26 H2         -2.8694    1.7790    1.5154 H         1 <0>         0.0000
     27 H3          3.2477    5.0222   -0.6792 H         1 <0>         0.0000
     28 H4          0.6324   -0.6026    2.3393 H         1 <0>         0.0000
     29 H5          3.8511    3.4453   -2.4738 H         1 <0>         0.0000
     30 H6          2.4080    1.7186    1.9359 H         1 <0>         0.0000
     31 H7          0.5112   -2.3083   -1.6061 H         1 <0>         0.0000
     32 H8          2.1817   -1.8131   -1.9376 H         1 <0>         0.0000
     33 H9          1.4077    0.4748   -2.5413 H         1 <0>         0.0000
     34 H10         0.4937   -0.7124   -3.5041 H         1 <0>         0.0000
     35 H11         1.2759    4.6829    1.7987 H         1 <0>         0.0000
     36 H12         2.5427    4.0428    2.8496 H         1 <0>         0.0000
     37 H13         2.8873    5.4080    1.7768 H         1 <0>         0.0000
     38 H14         4.1122    1.2721   -3.0558 H         1 <0>         0.0000
     39 H15        -1.9117    1.0731   -2.6213 H         1 <0>         0.0000
@<TRIPOS>BOND
     1    1    2 ar
     2    1    4 ar
     3    1   25 1
     4    2    7 ar
     5    2   26 1
     6    3    5 ar
     7    3    8 ar
     8    3   27 1
     9    4    9 ar
    10    4   28 1
    11    5   11 ar
    12    5   29 1
    13    6    8 ar
    14    6   12 ar
    15    6   30 1
    16    7   10 ar
    17    7   13 1
    18    8   16 1
    19    9   10 ar
    20    9   17 1
    21   10   21 1
    22   11   12 ar
    23   11   22 1
    24   12   24 1
    25   13   18 2
    26   13   23 1
    27   14   15 1
    28   14   17 1
    29   14   31 1
    30   14   32 1
    31   15   21 1
    32   15   33 1
    33   15   34 1
    34   16   35 1
    35   16   36 1
    36   16   37 1
    37   17   24 1
    38   19   24 2
    39   20   24 2
    40   22   38 1
    41   23   39 1
