@<TRIPOS>MOLECULE
*****
   28    29     0     0     0
SMALL
NO_CHARGES

@<TRIPOS>ATOM
      1 C1          3.2927   -6.8266    3.1347 C.ar      1 <0>         0.0000
      2 C2          4.6173   -6.4194    2.9022 C.ar      1 <0>         0.0000
      3 C3          2.2178   -5.9973    2.8107 C.ar      1 <0>         0.0000
      4 C4          4.8889   -5.1682    2.3385 C.ar      1 <0>         0.0000
      5 C5          2.4675   -4.7387    2.2451 C.ar      1 <0>         0.0000
      6 C6          3.8110   -4.3429    2.0184 C.ar      1 <0>         0.0000
      7 C7          2.0391   -2.7521    1.3836 C.2       1 <0>         0.0000
      8 C8          0.0375    0.2642   -0.5249 C.2       1 <0>         0.0000
      9 C9         -0.0696    1.5862   -0.7589 C.2       1 <0>         0.0000
     10 C10        -0.5523   -0.5087    0.5881 C.2       1 <0>         0.0000
     11 C11        -0.7463    2.6282    0.0851 C.3       1 <0>         0.0000
     12 N1          1.4939   -3.8207    1.8711 N.2       1 <0>         0.0000
     13 N2          0.0399   -1.4807    1.2055 N.2       1 <0>         0.0000
     14 N3         -1.8362   -0.1653    1.0238 N.pl3     1 <0>         0.0000
     15 N4          1.3781   -1.6623    0.8708 N.pl3     1 <0>         0.0000
     16 S1          3.8312   -2.7320    1.3068 S.3       1 <0>         0.0000
     17 H1          3.1025   -7.8027    3.5732 H         1 <0>         0.0000
     18 H2          5.4408   -7.0791    3.1615 H         1 <0>         0.0000
     19 H3          1.1909   -6.3041    2.9860 H         1 <0>         0.0000
     20 H4          5.9129   -4.8531    2.1587 H         1 <0>         0.0000
     21 H5          0.6238   -0.3381   -1.2173 H         1 <0>         0.0000
     22 H6          0.4188    1.9602   -1.6594 H         1 <0>         0.0000
     23 H7         -1.5736    3.0904   -0.4689 H         1 <0>         0.0000
     24 H8         -0.0392    3.4350    0.3133 H         1 <0>         0.0000
     25 H9         -1.1382    2.2212    1.0173 H         1 <0>         0.0000
     26 H10        -2.4816    0.0412    0.2677 H         1 <0>         0.0000
     27 H11        -2.2080   -0.8599    1.6675 H         1 <0>         0.0000
     28 H12         1.9392   -0.8272    0.7262 H         1 <0>         0.0000
@<TRIPOS>BOND
     1    1    2 ar
     2    1    3 ar
     3    1   17 1
     4    2    4 ar
     5    2   18 1
     6    3    5 ar
     7    3   19 1
     8    4    6 ar
     9    4   20 1
    10    5    6 ar
    11    5   12 1
    12    6   16 1
    13    7   12 2
    14    7   15 1
    15    7   16 1
    16    8    9 2
    17    8   10 1
    18    8   21 1
    19    9   11 1
    20    9   22 1
    21   10   13 2
    22   10   14 1
    23   11   23 1
    24   11   24 1
    25   11   25 1
    26   13   15 1
    27   14   26 1
    28   14   27 1
    29   15   28 1
