@<TRIPOS>MOLECULE
*****
   35    37     0     0     0
SMALL
NO_CHARGES

@<TRIPOS>ATOM
      1 C1          1.2770   -1.8335   -4.1390 C.1       1 <0>         0.0000
      2 C2          2.7521   -4.7197   -5.9525 C.ar      1 <0>         0.0000
      3 C3          1.9731   -0.5190   -0.3083 C.ar      1 <0>         0.0000
      4 C4          0.6048   -0.4871   -0.5997 C.ar      1 <0>         0.0000
      5 C5          1.8946   -5.7692   -5.6104 C.ar      1 <0>         0.0000
      6 C6          2.5276   -3.4415   -5.4435 C.ar      1 <0>         0.0000
      7 C7          2.6616   -1.7288   -0.3673 C.ar      1 <0>         0.0000
      8 C8         -0.0542   -1.6548   -0.9685 C.ar      1 <0>         0.0000
      9 C9          0.8260   -5.5409   -4.7413 C.ar      1 <0>         0.0000
     10 C10         1.4486   -3.1929   -4.5742 C.ar      1 <0>         0.0000
     11 C11         2.0240   -2.9177   -0.7493 C.ar      1 <0>         0.0000
     12 C12         0.6570   -2.8595   -1.0809 C.ar      1 <0>         0.0000
     13 C13         0.6089   -4.2666   -4.2142 C.ar      1 <0>         0.0000
     14 C14         2.7951   -4.2231   -0.6994 C.3       1 <0>         0.0000
     15 C15         2.0508   -5.4056   -1.3271 C.3       1 <0>         0.0000
     16 C16         0.5561   -5.3228   -1.0113 C.3       1 <0>         0.0000
     17 N1          1.2452   -0.6995   -3.8774 N.1       1 <0>         0.0000
     18 N2         -0.0355   -4.0530   -1.4865 N.pl3     1 <0>         0.0000
     19 O1         -1.3830   -2.8049   -3.2678 O.2       1 <0>         0.0000
     20 O2         -1.4999   -5.3479   -3.0855 O.2       1 <0>         0.0000
     21 S1         -0.7479   -4.0942   -3.0280 S.o2      1 <0>         0.0000
     22 H1          3.5881   -4.8916   -6.6243 H         1 <0>         0.0000
     23 H2          2.4956    0.3914   -0.0276 H         1 <0>         0.0000
     24 H3          0.0530    0.4468   -0.5468 H         1 <0>         0.0000
     25 H4          2.0536   -6.7633   -6.0185 H         1 <0>         0.0000
     26 H5          3.1756   -2.6153   -5.7181 H         1 <0>         0.0000
     27 H6          3.7197   -1.7618   -0.1141 H         1 <0>         0.0000
     28 H7         -1.1103   -1.6411   -1.2058 H         1 <0>         0.0000
     29 H8          0.1499   -6.3424   -4.4639 H         1 <0>         0.0000
     30 H9          3.7725   -4.0944   -1.1768 H         1 <0>         0.0000
     31 H10         3.0002   -4.4465    0.3558 H         1 <0>         0.0000
     32 H11         2.1949   -5.4145   -2.4100 H         1 <0>         0.0000
     33 H12         2.4522   -6.3507   -0.9457 H         1 <0>         0.0000
     34 H13        -0.0079   -6.1459   -1.4491 H         1 <0>         0.0000
     35 H14         0.3908   -5.3510    0.0712 H         1 <0>         0.0000
@<TRIPOS>BOND
     1    1   10 1
     2    1   17 3
     3    2    5 ar
     4    2    6 ar
     5    2   22 1
     6    3    4 ar
     7    3    7 ar
     8    3   23 1
     9    4    8 ar
    10    4   24 1
    11    5    9 ar
    12    5   25 1
    13    6   10 ar
    14    6   26 1
    15    7   11 ar
    16    7   27 1
    17    8   12 ar
    18    8   28 1
    19    9   13 ar
    20    9   29 1
    21   10   13 ar
    22   11   12 ar
    23   11   14 1
    24   12   18 1
    25   13   21 1
    26   14   15 1
    27   14   30 1
    28   14   31 1
    29   15   16 1
    30   15   32 1
    31   15   33 1
    32   16   18 1
    33   16   34 1
    34   16   35 1
    35   18   21 1
    36   19   21 2
    37   20   21 2
