@<TRIPOS>MOLECULE
*****
   16    16     0     0     0
SMALL
NO_CHARGES

@<TRIPOS>ATOM
      1 C1          1.4034   -0.0564    1.6504 C.ar      1 <0>         0.0000
      2 C2          1.6650   -0.6121    2.8954 C.ar      1 <0>         0.0000
      3 C3          0.2320   -0.4139    0.9713 C.ar      1 <0>         0.0000
      4 C4         -0.6441   -1.3310    1.5814 C.ar      1 <0>         0.0000
      5 C5          0.7212   -1.5158    3.4076 C.ar      1 <0>         0.0000
      6 C6         -1.9357   -1.7840    0.9344 C.2       1 <0>         0.0000
      7 C7         -0.0519    0.1920   -0.3849 C.3       1 <0>         0.0000
      8 N1         -0.3848   -1.8642    2.7853 N.ar      1 <0>         0.0000
      9 O1         -2.6886   -2.5741    1.4618 O.2       1 <0>         0.0000
     10 F1          0.9255    1.0421   -0.7692 F         1 <0>         0.0000
     11 F2         -0.1562   -0.7562   -1.3501 F         1 <0>         0.0000
     12 F3         -1.2138    0.8931   -0.3918 F         1 <0>         0.0000
     13 Cl1         1.0174   -2.2369    4.9752 Cl        1 <0>         0.0000
     14 H1          2.0999    0.6476    1.2084 H         1 <0>         0.0000
     15 H2          2.5596   -0.3629    3.4550 H         1 <0>         0.0000
     16 H3         -2.1621   -1.3535   -0.0556 H         1 <0>         0.0000
@<TRIPOS>BOND
     1    1    2 ar
     2    1    3 ar
     3    1   14 1
     4    2    5 ar
     5    2   15 1
     6    3    4 ar
     7    3    7 1
     8    4    6 1
     9    4    8 ar
    10    5    8 ar
    11    5   13 1
    12    6    9 2
    13    6   16 1
    14    7   10 1
    15    7   11 1
    16    7   12 1
