@<TRIPOS>MOLECULE
*****
   27    28     0     0     0
SMALL
NO_CHARGES

@<TRIPOS>ATOM
      1 C1          1.5533   -1.5832   -2.7158 C.1       1 <0>         0.0000
      2 C2          1.6562   -1.3834   -1.5237 C.1       1 <0>         0.0000
      3 C3          1.0639    0.0214    1.8821 C.ar      1 <0>         0.0000
      4 C4          0.9394   -0.2017    0.5110 C.ar      1 <0>         0.0000
      5 C5          2.0078   -0.6807    2.6296 C.ar      1 <0>         0.0000
      6 C6          2.7292   -1.8586    0.6309 C.ar      1 <0>         0.0000
      7 C7          6.1461   -5.0109    3.4955 C.ar      1 <0>         0.0000
      8 C8          5.8914   -2.9837    4.7421 C.ar      1 <0>         0.0000
      9 C9          1.7744   -1.1440   -0.1159 C.ar      1 <0>         0.0000
     10 C10         5.5605   -3.7446    3.6156 C.ar      1 <0>         0.0000
     11 C11         2.8445   -1.6237    2.0069 C.ar      1 <0>         0.0000
     12 C12         6.9881   -5.4741    4.4992 C.ar      1 <0>         0.0000
     13 C13         7.2304   -4.6303    5.6039 C.ar      1 <0>         0.0000
     14 C14         4.6697   -3.2820    2.4952 C.2       1 <0>         0.0000
     15 N1          6.7045   -3.4217    5.7096 N.ar      1 <0>         0.0000
     16 N2          3.7826   -2.2871    2.8312 N.am      1 <0>         0.0000
     17 O1          4.7537   -3.7879    1.3788 O.2       1 <0>         0.0000
     18 Cl1         7.7103   -7.0503    4.3595 Cl        1 <0>         0.0000
     19 Cl2         8.2657   -5.1495    6.9077 Cl        1 <0>         0.0000
     20 H1          1.4664   -1.7630   -3.7664 H         1 <0>         0.0000
     21 H2          0.4234    0.7472    2.3751 H         1 <0>         0.0000
     22 H3          0.2069    0.3415   -0.0773 H         1 <0>         0.0000
     23 H4          2.0975   -0.4970    3.6986 H         1 <0>         0.0000
     24 H5          3.3648   -2.5860    0.1469 H         1 <0>         0.0000
     25 H6          5.9386   -5.6132    2.6169 H         1 <0>         0.0000
     26 H7          5.5272   -1.9665    4.8753 H         1 <0>         0.0000
     27 H8          3.7326   -2.0373    3.8099 H         1 <0>         0.0000
@<TRIPOS>BOND
     1    1    2 3
     2    1   20 1
     3    2    9 1
     4    3    4 ar
     5    3    5 ar
     6    3   21 1
     7    4    9 ar
     8    4   22 1
     9    5   11 ar
    10    5   23 1
    11    6    9 ar
    12    6   11 ar
    13    6   24 1
    14    7   10 ar
    15    7   12 ar
    16    7   25 1
    17    8   10 ar
    18    8   15 ar
    19    8   26 1
    20   10   14 1
    21   11   16 1
    22   12   13 ar
    23   12   18 1
    24   13   15 ar
    25   13   19 1
    26   14   16 am
    27   14   17 2
    28   16   27 1
