@<TRIPOS>MOLECULE
*****
   18    18     0     0     0
SMALL
NO_CHARGES

@<TRIPOS>ATOM
      1 C1          2.0171   -0.9592   -0.0467 C.ar      1 <0>         0.0000
      2 C2          0.8750   -0.4300    0.5537 C.ar      1 <0>         0.0000
      3 C3          1.6940   -1.1230    2.7302 C.ar      1 <0>         0.0000
      4 C4          2.8478   -1.6156    2.1203 C.ar      1 <0>         0.0000
      5 C5          3.0181   -1.5395    0.7320 C.ar      1 <0>         0.0000
      6 C6          0.7210   -0.5153    1.9406 C.ar      1 <0>         0.0000
      7 C7          5.0566   -1.3411   -0.4434 C.3       1 <0>         0.0000
      8 N1          3.8681   -2.2200    2.9988 N.pl3     1 <0>         0.0000
      9 O1          3.4576   -2.7745    4.0231 O.3       1 <0>         0.0000
     10 O2          5.0495   -2.1117    2.6713 O.2       1 <0>         0.0000
     11 O3          4.1131   -2.1481    0.1298 O.3       1 <0>         0.0000
     12 F1          5.3791   -0.2882    0.3248 F         1 <0>         0.0000
     13 F2          4.6286   -0.8446   -1.6338 F         1 <0>         0.0000
     14 F3          6.1396   -2.0810   -0.6679 F         1 <0>         0.0000
     15 Cl1        -0.7145    0.1340    2.6943 Cl        1 <0>         0.0000
     16 H1          2.1364   -0.9309   -1.1242 H         1 <0>         0.0000
     17 H2          0.1026    0.0317   -0.0525 H         1 <0>         0.0000
     18 H3          1.5773   -1.2164    3.8035 H         1 <0>         0.0000
@<TRIPOS>BOND
     1    1    2 ar
     2    1    5 ar
     3    1   16 1
     4    2    6 ar
     5    2   17 1
     6    3    4 ar
     7    3    6 ar
     8    3   18 1
     9    4    5 ar
    10    4    8 1
    11    5   11 1
    12    6   15 1
    13    7   11 1
    14    7   12 1
    15    7   13 1
    16    7   14 1
    17    8    9 1
    18    8   10 2
