@<TRIPOS>MOLECULE
*****
   27    29     0     0     0
SMALL
NO_CHARGES

@<TRIPOS>ATOM
      1 C1          0.7210    0.0874    2.0327 C.ar      1 <0>         0.0000
      2 C2          0.7432    0.8741    3.2003 C.ar      1 <0>         0.0000
      3 C3          2.5181    0.7693   -1.6609 C.2       1 <0>         0.0000
      4 C4          3.4651    1.7795   -1.3252 C.2       1 <0>         0.0000
      5 C5         -1.5076    0.9139    1.4292 C.ar      1 <0>         0.0000
      6 C6         -0.3819    0.1013    1.1718 C.ar      1 <0>         0.0000
      7 C7         -0.3540    1.6821    3.4300 C.ar      1 <0>         0.0000
      8 C8         -1.4475    1.7022    2.5607 C.ar      1 <0>         0.0000
      9 C9          1.2342    1.1236   -1.3238 C.2       1 <0>         0.0000
     10 C10         2.8618    2.8666   -0.7391 C.2       1 <0>         0.0000
     11 C11        -1.7927    3.2388    4.1532 C.3       1 <0>         0.0000
     12 N1         -0.3806   -0.7035   -0.0118 N.pl3     1 <0>         0.0000
     13 O1          0.1241   -0.9608   -2.4610 O.2       1 <0>         0.0000
     14 O2         -1.3491    0.9863   -1.6510 O.2       1 <0>         0.0000
     15 O3         -0.5914    2.5245    4.4934 O.3       1 <0>         0.0000
     16 O4         -2.4095    2.5565    3.0484 O.3       1 <0>         0.0000
     17 S1          1.1389    2.6976   -0.5899 S.3       1 <0>         0.0000
     18 S2         -0.2010    0.0975   -1.5074 S.o2      1 <0>         0.0000
     19 Cl1         3.6475    4.3043   -0.1891 Cl        1 <0>         0.0000
     20 H1          1.5820   -0.5299    1.7905 H         1 <0>         0.0000
     21 H2          1.5887    0.8589    3.8800 H         1 <0>         0.0000
     22 H3          2.7579   -0.1707   -2.1462 H         1 <0>         0.0000
     23 H4          4.5308    1.7176   -1.5137 H         1 <0>         0.0000
     24 H5         -2.3578    0.9185    0.7577 H         1 <0>         0.0000
     25 H6         -2.4724    3.2310    5.0077 H         1 <0>         0.0000
     26 H7         -1.5329    4.2614    3.8490 H         1 <0>         0.0000
     27 H8          0.2827   -1.4762    0.0179 H         1 <0>         0.0000
@<TRIPOS>BOND
     1    1    2 ar
     2    1    6 ar
     3    1   20 1
     4    2    7 ar
     5    2   21 1
     6    3    4 1
     7    3    9 2
     8    3   22 1
     9    4   10 2
    10    4   23 1
    11    5    6 ar
    12    5    8 ar
    13    5   24 1
    14    6   12 1
    15    7    8 ar
    16    7   15 1
    17    8   16 1
    18    9   17 1
    19    9   18 1
    20   10   17 1
    21   10   19 1
    22   11   15 1
    23   11   16 1
    24   11   25 1
    25   11   26 1
    26   12   18 1
    27   12   27 1
    28   13   18 2
    29   14   18 2
