@<TRIPOS>MOLECULE
*****
   20    20     0     0     0
SMALL
NO_CHARGES

@<TRIPOS>ATOM
      1 C1          1.9685   -0.8380   -0.1925 C.ar      1 <0>         0.0000
      2 C2          0.8772   -0.3397    0.5206 C.ar      1 <0>         0.0000
      3 C3          3.0228   -1.4948    0.4503 C.ar      1 <0>         0.0000
      4 C4          1.8773   -1.1483    2.5784 C.ar      1 <0>         0.0000
      5 C5          0.8252   -0.4885    1.9175 C.ar      1 <0>         0.0000
      6 C6          2.9432   -1.6359    1.8330 C.ar      1 <0>         0.0000
      7 C7          3.9459   -3.5775    2.7254 C.3       1 <0>         0.0000
      8 N1         -1.4252    0.3392    1.9999 N.3       1 <0>         0.0000
      9 N2         -0.2204    0.0511    2.6847 N.pl3     1 <0>         0.0000
     10 O1          4.0205   -2.2430    2.5232 O.3       1 <0>         0.0000
     11 F1          2.8760   -3.9381    3.4789 F         1 <0>         0.0000
     12 F2          5.0564   -3.9588    3.3718 F         1 <0>         0.0000
     13 F3          3.8623   -4.2843    1.5735 F         1 <0>         0.0000
     14 H1          1.9981   -0.7124   -1.2716 H         1 <0>         0.0000
     15 H2          0.0622    0.1672    0.0180 H         1 <0>         0.0000
     16 H3          3.8761   -1.8865   -0.0925 H         1 <0>         0.0000
     17 H4          1.8741   -1.2770    3.6573 H         1 <0>         0.0000
     18 H5         -1.8496    1.1592    2.4252 H         1 <0>         0.0000
     19 H6         -2.0804   -0.4424    2.0531 H         1 <0>         0.0000
     20 H7         -0.3333   -0.4111    3.5838 H         1 <0>         0.0000
@<TRIPOS>BOND
     1    1    2 ar
     2    1    3 ar
     3    1   14 1
     4    2    5 ar
     5    2   15 1
     6    3    6 ar
     7    3   16 1
     8    4    5 ar
     9    4    6 ar
    10    4   17 1
    11    5    9 1
    12    6   10 1
    13    7   10 1
    14    7   11 1
    15    7   12 1
    16    7   13 1
    17    8    9 1
    18    8   18 1
    19    8   19 1
    20    9   20 1
