@<TRIPOS>MOLECULE
*****
   20    20     0     0     0
SMALL
NO_CHARGES

@<TRIPOS>ATOM
      1 C1          1.9543   -0.9137    0.0003 C.ar      1 <0>         0.0000
      2 C2          0.8056   -0.4120    0.6096 C.ar      1 <0>         0.0000
      3 C3          2.9702   -1.5082    0.7569 C.ar      1 <0>         0.0000
      4 C4          1.6554   -1.0919    2.7788 C.ar      1 <0>         0.0000
      5 C5          0.6434   -0.5009    2.0057 C.ar      1 <0>         0.0000
      6 C6          2.7893   -1.5746    2.1353 C.ar      1 <0>         0.0000
      7 C7          4.7772   -1.4556    3.4026 C.3       1 <0>         0.0000
      8 N1         -0.5210    0.2011    3.9818 N.3       1 <0>         0.0000
      9 N2         -0.5502   -0.0454    2.5887 N.pl3     1 <0>         0.0000
     10 O1          3.7738   -2.2223    2.9211 O.3       1 <0>         0.0000
     11 F1          5.5096   -0.8672    2.4249 F         1 <0>         0.0000
     12 F2          5.5928   -2.2452    4.1161 F         1 <0>         0.0000
     13 F3          4.3412   -0.4588    4.2110 F         1 <0>         0.0000
     14 H1          2.0614   -0.8411   -1.0786 H         1 <0>         0.0000
     15 H2          0.0240    0.0419    0.0037 H         1 <0>         0.0000
     16 H3          3.8708   -1.9044    0.3010 H         1 <0>         0.0000
     17 H4          1.5486   -1.1668    3.8536 H         1 <0>         0.0000
     18 H5         -1.4331   -0.0241    4.3699 H         1 <0>         0.0000
     19 H6         -0.3003    1.1771    4.1852 H         1 <0>         0.0000
     20 H7         -1.0166    0.6661    2.0310 H         1 <0>         0.0000
@<TRIPOS>BOND
     1    1    2 ar
     2    1    3 ar
     3    1   14 1
     4    2    5 ar
     5    2   15 1
     6    3    6 ar
     7    3   16 1
     8    4    5 ar
     9    4    6 ar
    10    4   17 1
    11    5    9 1
    12    6   10 1
    13    7   10 1
    14    7   11 1
    15    7   12 1
    16    7   13 1
    17    8    9 1
    18    8   18 1
    19    8   19 1
    20    9   20 1
