@<TRIPOS>MOLECULE
*****
   27    28     0     0     0
SMALL
NO_CHARGES

@<TRIPOS>ATOM
      1 C1          1.0433    2.8299    1.8895 C.1       1 <0>         0.0000
      2 C2          1.2600    1.6520    1.6957 C.1       1 <0>         0.0000
      3 C3          1.0141   -1.8203    0.3417 C.ar      1 <0>         0.0000
      4 C4          0.7428   -0.4689    0.5454 C.ar      1 <0>         0.0000
      5 C5          2.0392   -2.4736    1.0315 C.ar      1 <0>         0.0000
      6 C6          2.5470   -0.3864    2.1652 C.ar      1 <0>         0.0000
      7 C7          5.5814   -3.2870    4.8774 C.ar      1 <0>         0.0000
      8 C8          6.4534   -4.8254    3.2621 C.ar      1 <0>         0.0000
      9 C9          1.5165    0.2614    1.4673 C.ar      1 <0>         0.0000
     10 C10         5.4856   -3.8745    3.6111 C.ar      1 <0>         0.0000
     11 C11         2.8112   -1.7466    1.9530 C.ar      1 <0>         0.0000
     12 C12         6.6280   -3.6487    5.7235 C.ar      1 <0>         0.0000
     13 C13         7.5572   -4.5983    5.2582 C.ar      1 <0>         0.0000
     14 C14         4.3876   -3.5857    2.6267 C.2       1 <0>         0.0000
     15 N1          7.4648   -5.1653    4.0653 N.ar      1 <0>         0.0000
     16 N2          3.8586   -2.3181    2.7122 N.am      1 <0>         0.0000
     17 O1          4.0258   -4.4375    1.8193 O.2       1 <0>         0.0000
     18 Cl1         6.7354   -2.9320    7.3063 Cl        1 <0>         0.0000
     19 Cl2         8.8992   -5.0895    6.2583 Cl        1 <0>         0.0000
     20 H1          0.8490    3.8682    2.0568 H         1 <0>         0.0000
     21 H2          0.4190   -2.3854   -0.3705 H         1 <0>         0.0000
     22 H3         -0.0549    0.0291    0.0036 H         1 <0>         0.0000
     23 H4          2.2474   -3.5202    0.8605 H         1 <0>         0.0000
     24 H5          3.1400    0.1843    2.8763 H         1 <0>         0.0000
     25 H6          4.8391   -2.5816    5.2398 H         1 <0>         0.0000
     26 H7          6.3993   -5.3227    2.2977 H         1 <0>         0.0000
     27 H8          4.3396   -1.6703    3.3227 H         1 <0>         0.0000
@<TRIPOS>BOND
     1    1    2 3
     2    1   20 1
     3    2    9 1
     4    3    4 ar
     5    3    5 ar
     6    3   21 1
     7    4    9 ar
     8    4   22 1
     9    5   11 ar
    10    5   23 1
    11    6    9 ar
    12    6   11 ar
    13    6   24 1
    14    7   10 ar
    15    7   12 ar
    16    7   25 1
    17    8   10 ar
    18    8   15 ar
    19    8   26 1
    20   10   14 1
    21   11   16 1
    22   12   13 ar
    23   12   18 1
    24   13   15 ar
    25   13   19 1
    26   14   16 am
    27   14   17 2
    28   16   27 1
