@<TRIPOS>MOLECULE
*****
   20    20     0     0     0
SMALL
NO_CHARGES

@<TRIPOS>ATOM
      1 C1          1.8101   -1.2253   -0.0001 C.ar      1 <0>         0.0000
      2 C2          0.6846   -0.5962    0.5222 C.ar      1 <0>         0.0000
      3 C3          2.8671   -1.6246    0.8292 C.ar      1 <0>         0.0000
      4 C4          1.6353   -0.7401    2.7487 C.ar      1 <0>         0.0000
      5 C5          0.5813   -0.3455    1.9070 C.ar      1 <0>         0.0000
      6 C6          2.7438   -1.3721    2.1897 C.ar      1 <0>         0.0000
      7 C7          3.8042   -2.9375    3.6037 C.3       1 <0>         0.0000
      8 N1         -0.5852    0.8980    3.6688 N.3       1 <0>         0.0000
      9 N2         -0.5784    0.2486    2.4142 N.pl3     1 <0>         0.0000
     10 O1          3.8181   -1.7030    3.0489 O.3       1 <0>         0.0000
     11 F1          3.8231   -3.9302    2.6837 F         1 <0>         0.0000
     12 F2          2.7157   -3.1510    4.3835 F         1 <0>         0.0000
     13 F3          4.8967   -3.0547    4.3705 F         1 <0>         0.0000
     14 H1          1.8727   -1.4040   -1.0699 H         1 <0>         0.0000
     15 H2         -0.1252   -0.2934   -0.1378 H         1 <0>         0.0000
     16 H3          3.7540   -2.1106    0.4382 H         1 <0>         0.0000
     17 H4          1.6029   -0.5799    3.8201 H         1 <0>         0.0000
     18 H5          0.2970    1.3918    3.8255 H         1 <0>         0.0000
     19 H6         -0.6910    0.1970    4.3996 H         1 <0>         0.0000
     20 H7         -1.1114    0.7769    1.7338 H         1 <0>         0.0000
@<TRIPOS>BOND
     1    1    2 ar
     2    1    3 ar
     3    1   14 1
     4    2    5 ar
     5    2   15 1
     6    3    6 ar
     7    3   16 1
     8    4    5 ar
     9    4    6 ar
    10    4   17 1
    11    5    9 1
    12    6   10 1
    13    7   10 1
    14    7   11 1
    15    7   12 1
    16    7   13 1
    17    8    9 1
    18    8   18 1
    19    8   19 1
    20    9   20 1
