@<TRIPOS>MOLECULE
*****
   37    40     0     0     0
SMALL
NO_CHARGES

@<TRIPOS>ATOM
      1 C1         -2.3773   -5.5078    0.2921 C.ar      1 <0>         0.0000
      2 C2         -1.4226   -0.7926   -0.4438 C.ar      1 <0>         0.0000
      3 C3         -1.4194   -4.5701   -0.0885 C.ar      1 <0>         0.0000
      4 C4         -0.9039   -2.0759   -0.4805 C.ar      1 <0>         0.0000
      5 C5         -3.7004   -5.1436    0.6663 C.ar      1 <0>         0.0000
      6 C6         -2.7692   -0.4922   -0.0536 C.ar      1 <0>         0.0000
      7 C7         -1.7349   -3.1823   -0.1171 C.ar      1 <0>         0.0000
      8 C8         -3.0463   -2.8667    0.2613 C.ar      1 <0>         0.0000
      9 C9         -4.0214   -3.7994    0.6450 C.ar      1 <0>         0.0000
     10 C10        -3.5705   -1.5540    0.3023 C.ar      1 <0>         0.0000
     11 C11        -6.0779    0.1329   -0.4285 C.2       1 <0>         0.0000
     12 C12        -6.6333    0.3853   -2.4813 C.2       1 <0>         0.0000
     13 C13        -5.2615   -3.0182    0.9487 C.2       1 <0>         0.0000
     14 C14        -6.3034   -1.1683   -4.4031 C.3       1 <0>         0.0000
     15 C15        -7.2075    1.1885   -4.7710 C.3       1 <0>         0.0000
     16 C16        -5.8464   -0.5716    0.8694 C.3       1 <0>         0.0000
     17 C17        -7.1522   -0.0175   -3.8249 C.3       1 <0>         0.0000
     18 N1         -5.7731    1.3528   -0.7413 N.2       1 <0>         0.0000
     19 N2         -6.1429    1.5208   -2.0865 N.2       1 <0>         0.0000
     20 N3         -4.9047   -1.6637    0.7318 N.am      1 <0>         0.0000
     21 O1         -6.3673   -3.3940    1.3091 O.2       1 <0>         0.0000
     22 O2         -6.6277   -0.5516   -1.4753 O.3       1 <0>         0.0000
     23 H1         -2.1047   -6.5597    0.3031 H         1 <0>         0.0000
     24 H2         -0.7840    0.0402   -0.7261 H         1 <0>         0.0000
     25 H3         -0.4227   -4.9051   -0.3666 H         1 <0>         0.0000
     26 H4          0.1261   -2.2402   -0.7859 H         1 <0>         0.0000
     27 H5         -4.4250   -5.8995    0.9557 H         1 <0>         0.0000
     28 H6         -3.1230    0.5340   -0.0575 H         1 <0>         0.0000
     29 H7         -5.2727   -0.8391   -4.5712 H         1 <0>         0.0000
     30 H8         -6.7200   -1.4905   -5.3623 H         1 <0>         0.0000
     31 H9         -6.2845   -2.0300   -3.7303 H         1 <0>         0.0000
     32 H10        -6.2064    1.5937   -4.9433 H         1 <0>         0.0000
     33 H11        -7.8251    1.9912   -4.3602 H         1 <0>         0.0000
     34 H12        -7.6278    0.8807   -5.7332 H         1 <0>         0.0000
     35 H13        -5.4850    0.1713    1.5866 H         1 <0>         0.0000
     36 H14        -6.7767   -1.0063    1.2459 H         1 <0>         0.0000
     37 H15        -8.1712   -0.3959   -3.6693 H         1 <0>         0.0000
@<TRIPOS>BOND
     1    1    3 ar
     2    1    5 ar
     3    1   23 1
     4    2    4 ar
     5    2    6 ar
     6    2   24 1
     7    3    7 ar
     8    3   25 1
     9    4    7 ar
    10    4   26 1
    11    5    9 ar
    12    5   27 1
    13    6   10 ar
    14    6   28 1
    15    7    8 ar
    16    8    9 ar
    17    8   10 ar
    18    9   13 1
    19   10   20 1
    20   11   16 1
    21   11   18 2
    22   11   22 1
    23   12   17 1
    24   12   19 2
    25   12   22 1
    26   13   20 am
    27   13   21 2
    28   14   17 1
    29   14   29 1
    30   14   30 1
    31   14   31 1
    32   15   17 1
    33   15   32 1
    34   15   33 1
    35   15   34 1
    36   16   20 1
    37   16   35 1
    38   16   36 1
    39   17   37 1
    40   18   19 1
