@<TRIPOS>MOLECULE
*****
   49    53     0     0     0
SMALL
NO_CHARGES

@<TRIPOS>ATOM
      1 C1         -5.2839   -0.5615    2.7409 C.ar      1 <0>         0.0000
      2 C2          1.9916   -0.6627   -0.1314 C.ar      1 <0>         0.0000
      3 C3         -4.2372    0.3489    2.6001 C.ar      1 <0>         0.0000
      4 C4          0.9043   -0.0743    0.5131 C.ar      1 <0>         0.0000
      5 C5         -5.4455   -1.2891    3.9262 C.ar      1 <0>         0.0000
      6 C6          4.6898   -1.2990   -1.3407 C.ar      1 <0>         0.0000
      7 C7          1.8943   -0.7594    2.6169 C.ar      1 <0>         0.0000
      8 C8          4.4537   -3.3029   -0.0668 C.ar      1 <0>         0.0000
      9 C9         -3.4682   -0.1904    4.8296 C.ar      1 <0>         0.0000
     10 C10         5.6146   -1.9825   -2.1315 C.ar      1 <0>         0.0000
     11 C11         3.0353   -1.3084    0.5526 C.ar      1 <0>         0.0000
     12 C12         4.0826   -1.9676   -0.2687 C.ar      1 <0>         0.0000
     13 C13         3.0005   -1.3404    1.9722 C.ar      1 <0>         0.0000
     14 C14        -3.3220    0.5460    3.6477 C.ar      1 <0>         0.0000
     15 C15         0.8600   -0.1400    1.9134 C.ar      1 <0>         0.0000
     16 C16        -4.5289   -1.0894    4.9568 C.ar      1 <0>         0.0000
     17 C17         5.3939   -3.9069   -0.9046 C.ar      1 <0>         0.0000
     18 C18         4.0507   -1.8961    2.8328 C.2       1 <0>         0.0000
     19 C19        -1.2748    1.1427    2.3005 C.2       1 <0>         0.0000
     20 C20        -2.4779    2.9975    3.6215 C.3       1 <0>         0.0000
     21 C21        -1.6174    2.2767    4.6397 C.3       1 <0>         0.0000
     22 C22        -2.1951    1.5228    3.4607 C.3       1 <0>         0.0000
     23 C23         5.8504   -5.3247   -0.6602 C.3       1 <0>         0.0000
     24 N1          5.3371   -2.1092    2.4868 N.2       1 <0>         0.0000
     25 N2          5.9708   -3.2585   -1.9375 N.ar      1 <0>         0.0000
     26 N3          3.8282   -2.2025    4.1323 N.2       1 <0>         0.0000
     27 N4          5.9189   -2.5648    3.6072 N.2       1 <0>         0.0000
     28 N5          5.0148   -2.6254    4.5893 N.2       1 <0>         0.0000
     29 N6         -0.1972    0.4056    2.6888 N.am      1 <0>         0.0000
     30 O1         -1.5420    1.4642    1.1413 O.2       1 <0>         0.0000
     31 Cl1        -4.7078   -1.9962    6.4571 Cl        1 <0>         0.0000
     32 H1         -5.9856   -0.7123    1.9246 H         1 <0>         0.0000
     33 H2          2.0161   -0.6530   -1.2181 H         1 <0>         0.0000
     34 H3         -4.1052    0.9051    1.6768 H         1 <0>         0.0000
     35 H4          0.1115    0.4086   -0.0413 H         1 <0>         0.0000
     36 H5         -6.2597   -1.9968    4.0455 H         1 <0>         0.0000
     37 H6          4.4651   -0.2551   -1.5424 H         1 <0>         0.0000
     38 H7          1.8823   -0.7983    3.7035 H         1 <0>         0.0000
     39 H8          4.0269   -3.8643    0.7569 H         1 <0>         0.0000
     40 H9         -2.7617   -0.0735    5.6449 H         1 <0>         0.0000
     41 H10         6.0989   -1.4733   -2.9657 H         1 <0>         0.0000
     42 H11        -3.4840    3.2791    3.9180 H         1 <0>         0.0000
     43 H12        -1.9960    3.6721    2.9207 H         1 <0>         0.0000
     44 H13        -0.5518    2.4881    4.6374 H         1 <0>         0.0000
     45 H14        -2.0387    2.1004    5.6250 H         1 <0>         0.0000
     46 H15         6.0172   -5.8424   -1.6093 H         1 <0>         0.0000
     47 H16         6.7992   -5.3185   -0.1105 H         1 <0>         0.0000
     48 H17         5.1254   -5.8847   -0.0628 H         1 <0>         0.0000
     49 H18        -0.1246    0.2277    3.6832 H         1 <0>         0.0000
@<TRIPOS>BOND
     1    1    3 ar
     2    1    5 ar
     3    1   32 1
     4    2    4 ar
     5    2   11 ar
     6    2   33 1
     7    3   14 ar
     8    3   34 1
     9    4   15 ar
    10    4   35 1
    11    5   16 ar
    12    5   36 1
    13    6   10 ar
    14    6   12 ar
    15    6   37 1
    16    7   13 ar
    17    7   15 ar
    18    7   38 1
    19    8   12 ar
    20    8   17 ar
    21    8   39 1
    22    9   14 ar
    23    9   16 ar
    24    9   40 1
    25   10   25 ar
    26   10   41 1
    27   11   12 1
    28   11   13 ar
    29   13   18 1
    30   14   22 1
    31   15   29 1
    32   16   31 1
    33   17   23 1
    34   17   25 ar
    35   18   24 1
    36   18   26 2
    37   19   22 1
    38   19   29 am
    39   19   30 2
    40   20   21 1
    41   20   22 1
    42   20   42 1
    43   20   43 1
    44   21   22 1
    45   21   44 1
    46   21   45 1
    47   23   46 1
    48   23   47 1
    49   23   48 1
    50   24   27 1
    51   26   28 1
    52   27   28 2
    53   29   49 1
