@<TRIPOS>MOLECULE
*****
   49    53     0     0     0
SMALL
NO_CHARGES

@<TRIPOS>ATOM
      1 C1         -2.7315   -1.1615    5.5035 C.ar      1 <0>         0.0000
      2 C2          2.6996   -0.1224    0.1398 C.ar      1 <0>         0.0000
      3 C3         -2.4246   -0.0555    4.7079 C.ar      1 <0>         0.0000
      4 C4          1.4538    0.3590    0.5403 C.ar      1 <0>         0.0000
      5 C5         -3.5883   -2.1607    5.0319 C.ar      1 <0>         0.0000
      6 C6          5.6298   -0.8317   -0.1053 C.ar      1 <0>         0.0000
      7 C7          1.3152   -1.5232    2.0603 C.ar      1 <0>         0.0000
      8 C8          4.7658   -3.0372   -0.3904 C.ar      1 <0>         0.0000
      9 C9         -3.8174   -0.9366    2.9396 C.ar      1 <0>         0.0000
     10 C10         6.7980   -1.2739   -0.7267 C.ar      1 <0>         0.0000
     11 C11         3.2791   -1.2904    0.6631 C.ar      1 <0>         0.0000
     12 C12         4.5704   -1.7323    0.0775 C.ar      1 <0>         0.0000
     13 C13         2.5779   -2.0033    1.6719 C.ar      1 <0>         0.0000
     14 C14        -2.9619    0.0666    3.4168 C.ar      1 <0>         0.0000
     15 C15         0.7520   -0.3689    1.5121 C.ar      1 <0>         0.0000
     16 C16        -4.1260   -2.0282    3.7510 C.ar      1 <0>         0.0000
     17 C17         5.9731   -3.3962   -0.9949 C.ar      1 <0>         0.0000
     18 C18         3.0829   -3.1853    2.3804 C.2       1 <0>         0.0000
     19 C19        -1.2597    1.1225    1.7617 C.2       1 <0>         0.0000
     20 C20        -3.6597    2.0031    1.8251 C.3       1 <0>         0.0000
     21 C21        -2.9250    2.6279    2.9771 C.3       1 <0>         0.0000
     22 C22        -2.5709    1.2132    2.5333 C.3       1 <0>         0.0000
     23 C23         6.2181   -4.8182   -1.4387 C.3       1 <0>         0.0000
     24 N1          4.3469   -4.6519    3.2694 N.2       1 <0>         0.0000
     25 N2          6.9860   -2.5234   -1.1720 N.ar      1 <0>         0.0000
     26 N3          4.3746   -3.5594    2.4898 N.2       1 <0>         0.0000
     27 N4          2.2658   -4.0123    3.0734 N.2       1 <0>         0.0000
     28 N5          3.0851   -4.9250    3.6136 N.2       1 <0>         0.0000
     29 N6         -0.5303   -0.0034    1.9995 N.am      1 <0>         0.0000
     30 O1         -0.9242    2.0316    0.9968 O.2       1 <0>         0.0000
     31 Cl1        -5.2111   -3.2717    3.1399 Cl        1 <0>         0.0000
     32 H1         -2.2954   -1.2575    6.4940 H         1 <0>         0.0000
     33 H2          3.2336    0.4122   -0.6418 H         1 <0>         0.0000
     34 H3         -1.7520    0.7139    5.0776 H         1 <0>         0.0000
     35 H4          1.0307    1.2576    0.1132 H         1 <0>         0.0000
     36 H5         -3.8268   -3.0275    5.6397 H         1 <0>         0.0000
     37 H6          5.5557    0.1917    0.2527 H         1 <0>         0.0000
     38 H7          0.7904   -2.0841    2.8300 H         1 <0>         0.0000
     39 H8          3.9861   -3.7801   -0.2630 H         1 <0>         0.0000
     40 H9         -4.2304   -0.8666    1.9381 H         1 <0>         0.0000
     41 H10         7.6317   -0.5857   -0.8712 H         1 <0>         0.0000
     42 H11        -4.6838    1.6803    1.9870 H         1 <0>         0.0000
     43 H12        -3.4176    2.3582    0.8293 H         1 <0>         0.0000
     44 H13        -2.1956    3.3970    2.7463 H         1 <0>         0.0000
     45 H14        -3.4441    2.7232    3.9262 H         1 <0>         0.0000
     46 H15         6.9073   -4.8391   -2.2873 H         1 <0>         0.0000
     47 H16         6.6708   -5.3894   -0.6192 H         1 <0>         0.0000
     48 H17         5.2861   -5.3214   -1.7132 H         1 <0>         0.0000
     49 H18        -0.9218   -0.6619    2.6615 H         1 <0>         0.0000
@<TRIPOS>BOND
     1    1    3 ar
     2    1    5 ar
     3    1   32 1
     4    2    4 ar
     5    2   11 ar
     6    2   33 1
     7    3   14 ar
     8    3   34 1
     9    4   15 ar
    10    4   35 1
    11    5   16 ar
    12    5   36 1
    13    6   10 ar
    14    6   12 ar
    15    6   37 1
    16    7   13 ar
    17    7   15 ar
    18    7   38 1
    19    8   12 ar
    20    8   17 ar
    21    8   39 1
    22    9   14 ar
    23    9   16 ar
    24    9   40 1
    25   10   25 ar
    26   10   41 1
    27   11   12 1
    28   11   13 ar
    29   13   18 1
    30   14   22 1
    31   15   29 1
    32   16   31 1
    33   17   23 1
    34   17   25 ar
    35   18   26 2
    36   18   27 1
    37   19   22 1
    38   19   29 am
    39   19   30 2
    40   20   21 1
    41   20   22 1
    42   20   42 1
    43   20   43 1
    44   21   22 1
    45   21   44 1
    46   21   45 1
    47   23   46 1
    48   23   47 1
    49   23   48 1
    50   24   26 1
    51   24   28 1
    52   27   28 2
    53   29   49 1
