@<TRIPOS>MOLECULE
*****
   66    68     0     0     0
SMALL
NO_CHARGES

@<TRIPOS>ATOM
      1 C1        -10.0776   -2.2090    8.5110 C.1       1 <0>         0.0000
      2 C2         -8.0481   -3.2406    9.3813 C.ar      1 <0>         0.0000
      3 C3         -6.6644   -3.3979    9.4054 C.ar      1 <0>         0.0000
      4 C4         -6.4485   -1.6983    7.6874 C.ar      1 <0>         0.0000
      5 C5         -8.6454   -2.3226    8.5049 C.ar      1 <0>         0.0000
      6 C6         -7.8295   -1.5462    7.6549 C.ar      1 <0>         0.0000
      7 C7         -5.8686   -2.6310    8.5537 C.ar      1 <0>         0.0000
      8 C8         -3.7168   -2.7114    9.7765 C.2       1 <0>         0.0000
      9 C9         -3.6192   -3.0083    7.4724 C.2       1 <0>         0.0000
     10 C10         4.0685   -0.5731    0.1506 C.2       1 <0>         0.0000
     11 C11         3.9106   -0.1920    2.5675 C.3       1 <0>         0.0000
     12 C12         2.8453   -2.1943    1.6554 C.3       1 <0>         0.0000
     13 C13         2.6633    0.0583    3.4096 C.3       1 <0>         0.0000
     14 C14         1.6195   -1.9078    2.5247 C.3       1 <0>         0.0000
     15 C15        -2.2494   -2.8984    9.3911 C.3       1 <0>         0.0000
     16 C16        -1.7139   -4.1731   10.0648 C.3       1 <0>         0.0000
     17 C17        -1.4427   -1.6597    9.8054 C.3       1 <0>         0.0000
     18 C18         3.9735   -1.7418   -3.3449 C.3       1 <0>         0.0000
     19 C19         3.7126   -1.4809   -1.0356 C.3       1 <0>         0.0000
     20 C20        -0.7445   -1.9770    6.3399 C.3       1 <0>         0.0000
     21 C21         0.3840   -2.2623    5.3445 C.3       1 <0>         0.0000
     22 C22        -1.1943   -3.2535    7.0599 C.3       1 <0>         0.0000
     23 C23         0.8616   -0.9868    4.6445 C.3       1 <0>         0.0000
     24 C24        -8.4490   -0.5417    6.7082 C.3       1 <0>         0.0000
     25 N1        -11.2399   -2.1522    8.5509 N.1       1 <0>         0.0000
     26 N2         -4.4543   -2.7769    8.5963 N.am      1 <0>         0.0000
     27 N3         -2.3473   -3.0462    7.9320 N.pl3     1 <0>         0.0000
     28 N4          3.5684   -0.9599    1.3725 N.am      1 <0>         0.0000
     29 N5          2.0017   -1.2062    3.7512 N.3       1 <0>         0.0000
     30 O1         -4.1549   -2.5440   10.8980 O.2       1 <0>         0.0000
     31 O2          4.7471    0.4368    0.0052 O.2       1 <0>         0.0000
     32 O3          4.2667   -0.9460   -2.2089 O.3       1 <0>         0.0000
     33 F1         -7.5086    0.1283    6.0032 F         1 <0>         0.0000
     34 F2         -9.2698   -1.1410    5.8152 F         1 <0>         0.0000
     35 F3         -9.1833    0.3810    7.3733 F         1 <0>         0.0000
     36 S1         -4.1387   -3.2256    5.9117 S.2       1 <0>         0.0000
     37 H1         -8.6770   -3.8330   10.0375 H         1 <0>         0.0000
     38 H2         -6.2063   -4.1071   10.0852 H         1 <0>         0.0000
     39 H3         -5.8228   -1.1003    7.0386 H         1 <0>         0.0000
     40 H4          4.3625    0.7463    2.2476 H         1 <0>         0.0000
     41 H5          4.6461   -0.7512    3.1624 H         1 <0>         0.0000
     42 H6          3.5049   -2.8960    2.1857 H         1 <0>         0.0000
     43 H7          2.5195   -2.6719    0.7321 H         1 <0>         0.0000
     44 H8          2.9567    0.5613    4.3369 H         1 <0>         0.0000
     45 H9          1.9840    0.7358    2.8583 H         1 <0>         0.0000
     46 H10         0.8897   -1.3179    1.9362 H         1 <0>         0.0000
     47 H11         1.1483   -2.8606    2.7803 H         1 <0>         0.0000
     48 H12        -0.6539   -4.3160    9.8375 H         1 <0>         0.0000
     49 H13        -2.2659   -5.0545    9.7263 H         1 <0>         0.0000
     50 H14        -1.8260   -4.0816   11.1478 H         1 <0>         0.0000
     51 H15        -0.3877   -1.7879    9.5468 H         1 <0>         0.0000
     52 H16        -1.5228   -1.5217   10.8864 H         1 <0>         0.0000
     53 H17        -1.8191   -0.7618    9.3081 H         1 <0>         0.0000
     54 H18         4.4398   -1.2530   -4.2028 H         1 <0>         0.0000
     55 H19         2.8887   -1.8165   -3.5193 H         1 <0>         0.0000
     56 H20         4.3828   -2.7593   -3.2444 H         1 <0>         0.0000
     57 H21         2.6155   -1.5608   -1.1235 H         1 <0>         0.0000
     58 H22         4.0984   -2.4980   -0.8491 H         1 <0>         0.0000
     59 H23        -1.6065   -1.5534    5.8151 H         1 <0>         0.0000
     60 H24        -0.4180   -1.2356    7.0784 H         1 <0>         0.0000
     61 H25         1.2416   -2.7192    5.8537 H         1 <0>         0.0000
     62 H26         0.0257   -2.9926    4.6102 H         1 <0>         0.0000
     63 H27        -0.3825   -3.6537    7.6730 H         1 <0>         0.0000
     64 H28        -1.4646   -4.0186    6.3269 H         1 <0>         0.0000
     65 H29         0.0140   -0.5156    4.1105 H         1 <0>         0.0000
     66 H30         1.1819   -0.2718    5.4110 H         1 <0>         0.0000
@<TRIPOS>BOND
     1    1    5 1
     2    1   25 3
     3    2    3 ar
     4    2    5 ar
     5    2   37 1
     6    3    7 ar
     7    3   38 1
     8    4    6 ar
     9    4    7 ar
    10    4   39 1
    11    5    6 ar
    12    6   24 1
    13    7   26 1
    14    8   15 1
    15    8   26 am
    16    8   30 2
    17    9   26 1
    18    9   27 1
    19    9   36 2
    20   10   19 1
    21   10   28 am
    22   10   31 2
    23   11   13 1
    24   11   28 1
    25   11   40 1
    26   11   41 1
    27   12   14 1
    28   12   28 1
    29   12   42 1
    30   12   43 1
    31   13   29 1
    32   13   44 1
    33   13   45 1
    34   14   29 1
    35   14   46 1
    36   14   47 1
    37   15   16 1
    38   15   17 1
    39   15   27 1
    40   16   48 1
    41   16   49 1
    42   16   50 1
    43   17   51 1
    44   17   52 1
    45   17   53 1
    46   18   32 1
    47   18   54 1
    48   18   55 1
    49   18   56 1
    50   19   32 1
    51   19   57 1
    52   19   58 1
    53   20   21 1
    54   20   22 1
    55   20   59 1
    56   20   60 1
    57   21   23 1
    58   21   61 1
    59   21   62 1
    60   22   27 1
    61   22   63 1
    62   22   64 1
    63   23   29 1
    64   23   65 1
    65   23   66 1
    66   24   33 1
    67   24   34 1
    68   24   35 1
