@<TRIPOS>MOLECULE
*****
   24    25     0     0     0
SMALL
NO_CHARGES

@<TRIPOS>ATOM
      1 C1          5.8380    0.9730    0.1850 C.ar      1 <0>         0.0000
      2 C2         -0.8770   -3.0160   -2.5200 C.ar      1 <0>         0.0000
      3 C3          5.3840    1.4660    1.4000 C.ar      1 <0>         0.0000
      4 C4         -1.9220   -3.0150   -1.6030 C.ar      1 <0>         0.0000
      5 C5          4.9650    0.2130   -0.5780 C.ar      1 <0>         0.0000
      6 C6          0.2950   -2.3650   -2.1720 C.ar      1 <0>         0.0000
      7 C7          4.0840    1.1880    1.8140 C.ar      1 <0>         0.0000
      8 C8         -1.7640   -2.3680   -0.3800 C.ar      1 <0>         0.0000
      9 C9          3.6640   -0.0400   -0.1220 C.ar      1 <0>         0.0000
     10 C10         0.3740   -1.7400   -0.9200 C.ar      1 <0>         0.0000
     11 C11         2.7310   -0.8460   -0.9320 C.2       1 <0>         0.0000
     12 N1          3.2540    0.4590    1.0750 N.ar      1 <0>         0.0000
     13 N2         -0.6350   -1.7430   -0.0500 N.ar      1 <0>         0.0000
     14 N3          1.4660   -1.0480   -0.4210 N.am      1 <0>         0.0000
     15 O1          3.0280   -1.3350   -2.0180 O.2       1 <0>         0.0000
     16 H1          6.8250    1.1720   -0.1510 H         1 <0>         0.0000
     17 H2         -0.9730   -3.5000   -3.4580 H         1 <0>         0.0000
     18 H3          6.0210    2.0520    2.0110 H         1 <0>         0.0000
     19 H4         -2.8340   -3.5020   -1.8320 H         1 <0>         0.0000
     20 H5          5.2770   -0.1800   -1.5120 H         1 <0>         0.0000
     21 H6          1.1070   -2.3440   -2.8470 H         1 <0>         0.0000
     22 H7          3.7300    1.5620    2.7420 H         1 <0>         0.0000
     23 H8         -2.5580   -2.3630    0.3240 H         1 <0>         0.0000
     24 H9          1.3060   -0.6230    0.5010 H         1 <0>         0.0000
@<TRIPOS>BOND
     1    1    3 ar
     2    1    5 ar
     3    1   16 1
     4    2    4 ar
     5    2    6 ar
     6    2   17 1
     7    3    7 ar
     8    3   18 1
     9    4    8 ar
    10    4   19 1
    11    5    9 ar
    12    5   20 1
    13    6   10 ar
    14    6   21 1
    15    7   12 ar
    16    7   22 1
    17    8   13 ar
    18    8   23 1
    19    9   11 1
    20    9   12 ar
    21   10   13 ar
    22   10   14 1
    23   11   14 am
    24   11   15 2
    25   14   24 1
