@<TRIPOS>MOLECULE
*****
   21    21     0     0     0
SMALL
NO_CHARGES

@<TRIPOS>ATOM
      1 C1          1.6520   -0.6227    2.8997 C.ar      1 <0>         0.0000
      2 C2         -0.6317   -1.3224    1.5803 C.ar      1 <0>         0.0000
      3 C3          0.2265   -0.4197    0.9733 C.ar      1 <0>         0.0000
      4 C4          1.3879   -0.0684    1.6522 C.ar      1 <0>         0.0000
      5 C5          0.7299   -1.5161    3.4206 C.ar      1 <0>         0.0000
      6 C6          3.4398    1.1104    1.8888 C.3       1 <0>         0.0000
      7 C7         -0.0104   -2.9847    5.1385 C.3       1 <0>         0.0000
      8 N1         -0.4092   -1.8816    2.7908 N.ar      1 <0>         0.0000
      9 N2         -0.0855    0.1190   -0.3021 N.pl3     1 <0>         0.0000
     10 O1         -0.7520    1.1805   -0.3682 O.3       1 <0>         0.0000
     11 O2          0.3132   -0.4806   -1.3303 O.2       1 <0>         0.0000
     12 O3          2.2784    0.8132    1.1166 O.3       1 <0>         0.0000
     13 O4          0.9671   -2.0741    4.6495 O.3       1 <0>         0.0000
     14 H1          2.5518   -0.3635    3.4481 H         1 <0>         0.0000
     15 H2         -1.5549   -1.6365    1.1019 H         1 <0>         0.0000
     16 H3          4.0650    1.8250    1.3479 H         1 <0>         0.0000
     17 H4          3.9988    0.1902    2.0767 H         1 <0>         0.0000
     18 H5          3.1311    1.5477    2.8413 H         1 <0>         0.0000
     19 H6          0.2949   -3.3558    6.1199 H         1 <0>         0.0000
     20 H7         -0.1161   -3.8176    4.4388 H         1 <0>         0.0000
     21 H8         -0.9668   -2.4643    5.2297 H         1 <0>         0.0000
@<TRIPOS>BOND
     1    1    4 ar
     2    1    5 ar
     3    1   14 1
     4    2    3 ar
     5    2    8 ar
     6    2   15 1
     7    3    4 ar
     8    3    9 1
     9    4   12 1
    10    5    8 ar
    11    5   13 1
    12    6   12 1
    13    6   16 1
    14    6   17 1
    15    6   18 1
    16    7   13 1
    17    7   19 1
    18    7   20 1
    19    7   21 1
    20    9   10 1
    21    9   11 2
