@<TRIPOS>MOLECULE
*****
   44    46     0     0     0
SMALL
NO_CHARGES

@<TRIPOS>ATOM
      1 C1         -0.9994   -7.9870    3.1682 C.ar      1 <0>         0.0000
      2 C2         -0.5315   -7.4256    1.9771 C.ar      1 <0>         0.0000
      3 C3         -2.4464   -6.1037    3.4883 C.ar      1 <0>         0.0000
      4 C4         -2.9774   -2.1201    1.6734 C.2       1 <0>         0.0000
      5 C5         -1.9613   -7.3329    3.9497 C.ar      1 <0>         0.0000
      6 C6         -0.9995   -6.1894    1.5147 C.ar      1 <0>         0.0000
      7 C7         -1.9715   -5.5498    2.2995 C.ar      1 <0>         0.0000
      8 C8         -3.5522   -2.8985    0.6209 C.2       1 <0>         0.0000
      9 C9         -2.2944   -3.0616    2.4388 C.2       1 <0>         0.0000
     10 C10        -3.0393   -0.6596    1.7956 C.2       1 <0>         0.0000
     11 C11        -3.5174    0.7483    5.0270 C.3       1 <0>         0.0000
     12 C12        -4.4943   -1.3259    4.2775 C.3       1 <0>         0.0000
     13 C13        -3.5651    0.2209    6.4556 C.3       1 <0>         0.0000
     14 C14        -4.5362   -1.7826    5.7339 C.3       1 <0>         0.0000
     15 C15        -2.4454   -7.9180    5.2561 C.3       1 <0>         0.0000
     16 C16        -0.4872   -5.5716    0.2378 C.3       1 <0>         0.0000
     17 C17        -4.4024   -2.4070   -0.5093 C.3       1 <0>         0.0000
     18 N1         -3.2686   -4.1936    0.7530 N.2       1 <0>         0.0000
     19 N2         -3.1722    0.1190    2.8160 N.2       1 <0>         0.0000
     20 N3         -2.4930   -4.2879    1.8752 N.pl3     1 <0>         0.0000
     21 N4         -3.3839   -0.3767    4.0920 N.pl3     1 <0>         0.0000
     22 O1         -4.6492   -0.6895    6.6393 O.3       1 <0>         0.0000
     23 Cl1        -1.2770   -2.8463    3.8068 Cl        1 <0>         0.0000
     24 H1         -0.6083   -8.9483    3.4946 H         1 <0>         0.0000
     25 H2          0.2197   -7.9553    1.3960 H         1 <0>         0.0000
     26 H3         -3.2046   -5.5656    4.0517 H         1 <0>         0.0000
     27 H4         -2.9223   -0.1157    0.8574 H         1 <0>         0.0000
     28 H5         -4.4284    1.3297    4.8120 H         1 <0>         0.0000
     29 H6         -2.6532    1.4037    4.8959 H         1 <0>         0.0000
     30 H7         -4.3645   -2.1998    3.6403 H         1 <0>         0.0000
     31 H8         -5.4476   -0.8437    4.0041 H         1 <0>         0.0000
     32 H9         -2.6145   -0.2777    6.7004 H         1 <0>         0.0000
     33 H10        -3.7254    1.0407    7.1604 H         1 <0>         0.0000
     34 H11        -5.4117   -2.4159    5.9010 H         1 <0>         0.0000
     35 H12        -3.6288   -2.3636    5.9579 H         1 <0>         0.0000
     36 H13        -1.8478   -7.5458    6.0969 H         1 <0>         0.0000
     37 H14        -3.4882   -7.6511    5.4520 H         1 <0>         0.0000
     38 H15        -2.3694   -9.0092    5.2562 H         1 <0>         0.0000
     39 H16        -1.2572   -5.5850   -0.5393 H         1 <0>         0.0000
     40 H17        -0.2077   -4.5240    0.3902 H         1 <0>         0.0000
     41 H18         0.3893   -6.1115   -0.1291 H         1 <0>         0.0000
     42 H19        -3.8562   -1.6901   -1.1328 H         1 <0>         0.0000
     43 H20        -4.7084   -3.2482   -1.1349 H         1 <0>         0.0000
     44 H21        -5.2991   -1.8994   -0.1387 H         1 <0>         0.0000
@<TRIPOS>BOND
     1    1    2 ar
     2    1    5 ar
     3    1   24 1
     4    2    6 ar
     5    2   25 1
     6    3    5 ar
     7    3    7 ar
     8    3   26 1
     9    4    8 1
    10    4    9 2
    11    4   10 1
    12    5   15 1
    13    6    7 ar
    14    6   16 1
    15    7   20 1
    16    8   17 1
    17    8   18 2
    18    9   20 1
    19    9   23 1
    20   10   19 2
    21   10   27 1
    22   11   13 1
    23   11   21 1
    24   11   28 1
    25   11   29 1
    26   12   14 1
    27   12   21 1
    28   12   30 1
    29   12   31 1
    30   13   22 1
    31   13   32 1
    32   13   33 1
    33   14   22 1
    34   14   34 1
    35   14   35 1
    36   15   36 1
    37   15   37 1
    38   15   38 1
    39   16   39 1
    40   16   40 1
    41   16   41 1
    42   17   42 1
    43   17   43 1
    44   17   44 1
    45   18   20 1
    46   19   21 1
