@<TRIPOS>MOLECULE
*****
   50    52     0     0     0
SMALL
NO_CHARGES

@<TRIPOS>ATOM
      1 C1          1.7780   -4.4681    1.7228 C.ar      1 <0>         0.0000
      2 C2          1.1856   -5.6889    1.3774 C.ar      1 <0>         0.0000
      3 C3          1.8451   -3.4325    0.7897 C.ar      1 <0>         0.0000
      4 C4          0.6668   -5.8607    0.0939 C.ar      1 <0>         0.0000
      5 C5         -1.2119   -5.0778   -3.8398 C.2       1 <0>         0.0000
      6 C6          1.3216   -3.5865   -0.5020 C.ar      1 <0>         0.0000
      7 C7          0.7339   -4.8155   -0.8326 C.ar      1 <0>         0.0000
      8 C8          0.1371   -5.2310   -4.2613 C.2       1 <0>         0.0000
      9 C9         -1.1593   -4.9293   -2.4625 C.2       1 <0>         0.0000
     10 C10         1.1324    1.2880   -1.0706 C.3       1 <0>         0.0000
     11 C11         1.4255   -0.0454   -1.7587 C.3       1 <0>         0.0000
     12 C12        -0.3555   -1.1020   -0.5221 C.3       1 <0>         0.0000
     13 C13        -0.7204    0.1981    0.2025 C.3       1 <0>         0.0000
     14 C14        -0.3385    1.4328   -0.6410 C.3       1 <0>         0.0000
     15 C15         0.6634   -5.4331   -5.6511 C.3       1 <0>         0.0000
     16 C16        -2.2369   -4.6954   -1.4509 C.3       1 <0>         0.0000
     17 C17        -2.1874    0.1815    0.6452 C.3       1 <0>         0.0000
     18 C18        -1.2589    1.6519   -1.8499 C.3       1 <0>         0.0000
     19 C19         1.4011   -2.4457   -1.4960 C.3       1 <0>         0.0000
     20 N1          0.9720   -5.1779   -3.2208 N.2       1 <0>         0.0000
     21 N2          0.1660   -5.0058   -2.1288 N.pl3     1 <0>         0.0000
     22 N3          1.0624   -1.1597   -0.8838 N.3       1 <0>         0.0000
     23 O1         -0.4646    2.5594    0.2541 O.3       1 <0>         0.0000
     24 H1          2.1861   -4.3250    2.7201 H         1 <0>         0.0000
     25 H2          1.1342   -6.5000    2.0987 H         1 <0>         0.0000
     26 H3          2.2815   -2.4741    1.0561 H         1 <0>         0.0000
     27 H4          0.2135   -6.8013   -0.2063 H         1 <0>         0.0000
     28 H5         -2.1030   -5.0749   -4.4545 H         1 <0>         0.0000
     29 H6          1.7520    1.3671   -0.1713 H         1 <0>         0.0000
     30 H7          1.4086    2.1139   -1.7396 H         1 <0>         0.0000
     31 H8          0.8956   -0.1022   -2.7295 H         1 <0>         0.0000
     32 H9          2.4961   -0.1151   -1.9805 H         1 <0>         0.0000
     33 H10        -0.5737   -1.9431    0.1431 H         1 <0>         0.0000
     34 H11        -0.9984   -1.2325   -1.4160 H         1 <0>         0.0000
     35 H12        -0.0925    0.2556    1.0996 H         1 <0>         0.0000
     36 H13         0.3568   -4.6165   -6.3142 H         1 <0>         0.0000
     37 H14         1.7550   -5.4745   -5.6333 H         1 <0>         0.0000
     38 H15         0.2895   -6.3667   -6.0860 H         1 <0>         0.0000
     39 H16        -2.2982   -5.5114   -0.7235 H         1 <0>         0.0000
     40 H17        -2.0629   -3.7711   -0.8900 H         1 <0>         0.0000
     41 H18        -3.2032   -4.6134   -1.9534 H         1 <0>         0.0000
     42 H19        -2.8648   -0.0071   -0.1949 H         1 <0>         0.0000
     43 H20        -2.4646    1.1347    1.1022 H         1 <0>         0.0000
     44 H21        -2.3518   -0.6110    1.3838 H         1 <0>         0.0000
     45 H22        -2.2786    1.8642   -1.5207 H         1 <0>         0.0000
     46 H23        -1.2850    0.7858   -2.5169 H         1 <0>         0.0000
     47 H24        -0.9087    2.5079   -2.4401 H         1 <0>         0.0000
     48 H25         2.4294   -2.3825   -1.8705 H         1 <0>         0.0000
     49 H26         0.7679   -2.6618   -2.3707 H         1 <0>         0.0000
     50 H27        -0.2237    3.3590   -0.2413 H         1 <0>         0.0000
@<TRIPOS>BOND
     1    1    2 ar
     2    1    3 ar
     3    1   24 1
     4    2    4 ar
     5    2   25 1
     6    3    6 ar
     7    3   26 1
     8    4    7 ar
     9    4   27 1
    10    5    8 1
    11    5    9 2
    12    5   28 1
    13    6    7 ar
    14    6   19 1
    15    7   21 1
    16    8   15 1
    17    8   20 2
    18    9   16 1
    19    9   21 1
    20   10   11 1
    21   10   14 1
    22   10   29 1
    23   10   30 1
    24   11   22 1
    25   11   31 1
    26   11   32 1
    27   12   13 1
    28   12   22 1
    29   12   33 1
    30   12   34 1
    31   13   14 1
    32   13   17 1
    33   13   35 1
    34   14   18 1
    35   14   23 1
    36   15   36 1
    37   15   37 1
    38   15   38 1
    39   16   39 1
    40   16   40 1
    41   16   41 1
    42   17   42 1
    43   17   43 1
    44   17   44 1
    45   18   45 1
    46   18   46 1
    47   18   47 1
    48   19   22 1
    49   19   48 1
    50   19   49 1
    51   20   21 1
    52   23   50 1
