@<TRIPOS>MOLECULE
*****
   34    36     0     0     0
SMALL
NO_CHARGES

@<TRIPOS>ATOM
      1 C1         -0.4910   -2.0430    0.1232 C.ar      1 <0>         0.0000
      2 C2          0.3730   -1.1796   -0.5913 C.ar      1 <0>         0.0000
      3 C3          3.0435   -5.3758    0.4386 C.ar      1 <0>         0.0000
      4 C4         -0.0322   -3.2738    0.5406 C.ar      1 <0>         0.0000
      5 C5          1.6729   -1.5508   -0.8784 C.ar      1 <0>         0.0000
      6 C6          1.7563   -4.9626    0.7013 C.ar      1 <0>         0.0000
      7 C7          3.9174   -4.5268   -0.2725 C.ar      1 <0>         0.0000
      8 C8          1.2990   -3.6890    0.2632 C.ar      1 <0>         0.0000
      9 C9          2.1788   -2.8147   -0.4620 C.ar      1 <0>         0.0000
     10 C10         3.5239   -3.2699   -0.7255 C.ar      1 <0>         0.0000
     11 C11         5.2773    2.8686   -4.2464 C.ar      1 <0>         0.0000
     12 C12         6.4534    2.0730   -4.2893 C.ar      1 <0>         0.0000
     13 C13         5.3636    0.4719   -3.1453 C.ar      1 <0>         0.0000
     14 C14         4.5493   -2.5152   -1.4460 C.2       1 <0>         0.0000
     15 C15         5.2079    4.2342   -4.8664 C.3       1 <0>         0.0000
     16 N1          4.2054    2.3783   -3.6334 N.ar      1 <0>         0.0000
     17 N2          6.5100    0.8772   -3.7447 N.ar      1 <0>         0.0000
     18 N3          4.2212    1.1658   -3.0664 N.ar      1 <0>         0.0000
     19 N4          4.3825   -1.3387   -1.9417 N.2       1 <0>         0.0000
     20 N5          5.4371   -0.7795   -2.5803 N.pl3     1 <0>         0.0000
     21 O1          7.5482    2.5614   -4.9095 O.3       1 <0>         0.0000
     22 H1         -1.5105   -1.7346    0.3402 H         1 <0>         0.0000
     23 H2          0.0121   -0.2088   -0.9209 H         1 <0>         0.0000
     24 H3          3.3919   -6.3489    0.7737 H         1 <0>         0.0000
     25 H4         -0.6841   -3.9487    1.0908 H         1 <0>         0.0000
     26 H5          2.3153   -0.8746   -1.4257 H         1 <0>         0.0000
     27 H6          1.0708   -5.6057    1.2484 H         1 <0>         0.0000
     28 H7          4.9314   -4.8664   -0.4728 H         1 <0>         0.0000
     29 H8          5.5172   -3.0288   -1.5479 H         1 <0>         0.0000
     30 H9          5.4155    4.1908   -5.9410 H         1 <0>         0.0000
     31 H10         4.2097    4.6468   -4.7099 H         1 <0>         0.0000
     32 H11         5.9494    4.9072   -4.4227 H         1 <0>         0.0000
     33 H12         6.3288   -1.2674   -2.6679 H         1 <0>         0.0000
     34 H13         8.2435    1.8803   -4.8354 H         1 <0>         0.0000
@<TRIPOS>BOND
     1    1    2 ar
     2    1    4 ar
     3    1   22 1
     4    2    5 ar
     5    2   23 1
     6    3    6 ar
     7    3    7 ar
     8    3   24 1
     9    4    8 ar
    10    4   25 1
    11    5    9 ar
    12    5   26 1
    13    6    8 ar
    14    6   27 1
    15    7   10 ar
    16    7   28 1
    17    8    9 ar
    18    9   10 ar
    19   10   14 1
    20   11   12 ar
    21   11   15 1
    22   11   16 ar
    23   12   17 ar
    24   12   21 1
    25   13   17 ar
    26   13   18 ar
    27   13   20 1
    28   14   19 2
    29   14   29 1
    30   15   30 1
    31   15   31 1
    32   15   32 1
    33   16   18 ar
    34   19   20 1
    35   20   33 1
    36   21   34 1
