@<TRIPOS>MOLECULE
*****
   43    46     0     0     0
SMALL
NO_CHARGES

@<TRIPOS>ATOM
      1 C1          8.0850   -0.6172    0.7440 C.ar      1 <0>         0.0000
      2 C2          8.8819   -0.4619    1.8584 C.ar      1 <0>         0.0000
      3 C3          7.2575    1.0701    2.8540 C.ar      1 <0>         0.0000
      4 C4          4.4461    1.3783    0.4144 C.ar      1 <0>         0.0000
      5 C5          6.4344    0.9115    1.7095 C.ar      1 <0>         0.0000
      6 C6          6.8399    0.0607    0.6345 C.ar      1 <0>         0.0000
      7 C7          5.1864    1.5808    1.5604 C.ar      1 <0>         0.0000
      8 C8          8.4468    0.3863    2.8988 C.ar      1 <0>         0.0000
      9 C9          4.9380    0.4991   -0.5889 C.ar      1 <0>         0.0000
     10 C10        -0.7743   -1.6125   -3.2359 C.3       1 <0>         0.0000
     11 C11        -1.1530   -0.8061   -1.0087 C.3       1 <0>         0.0000
     12 C12         1.9234   -0.4870   -0.7621 C.3       1 <0>         0.0000
     13 C13         2.2535   -1.2087   -2.7155 C.3       1 <0>         0.0000
     14 C14        -2.1138   -1.0133   -3.6526 C.3       1 <0>         0.0000
     15 C15        -2.4847   -0.2247   -1.4735 C.3       1 <0>         0.0000
     16 C16         1.0810   -1.3658   -1.7175 C.3       1 <0>         0.0000
     17 C17         4.1022    0.2357   -1.8244 C.3       1 <0>         0.0000
     18 N1          6.0930   -0.1343   -0.4925 N.ar      1 <0>         0.0000
     19 N2         -0.2062   -0.8387   -2.1275 N.3       1 <0>         0.0000
     20 N3          3.1152   -0.8075   -1.5803 N.3       1 <0>         0.0000
     21 O1         -3.0294   -0.9722   -2.5592 O.3       1 <0>         0.0000
     22 O2          4.7988    2.4016    2.5801 O.3       1 <0>         0.0000
     23 F1          9.2531    0.5199    3.9843 F         1 <0>         0.0000
     24 H1          8.3829   -1.2614   -0.0773 H         1 <0>         0.0000
     25 H2          9.8341   -0.9744    1.9572 H         1 <0>         0.0000
     26 H3          6.9562    1.7144    3.6723 H         1 <0>         0.0000
     27 H4          3.4945    1.8850    0.2676 H         1 <0>         0.0000
     28 H5         -0.9204   -2.6730   -2.9559 H         1 <0>         0.0000
     29 H6         -0.0828   -1.5823   -4.0852 H         1 <0>         0.0000
     30 H7         -0.7419   -0.1789   -0.2095 H         1 <0>         0.0000
     31 H8         -1.3219   -1.8170   -0.5915 H         1 <0>         0.0000
     32 H9          1.6111    0.5682   -0.8436 H         1 <0>         0.0000
     33 H10         1.9978   -0.7721    0.2921 H         1 <0>         0.0000
     34 H11         2.6025   -2.0906   -3.2627 H         1 <0>         0.0000
     35 H12         2.0515   -0.3854   -3.4200 H         1 <0>         0.0000
     36 H13        -1.9554    0.0028   -4.0458 H         1 <0>         0.0000
     37 H14        -2.5855   -1.6231   -4.4274 H         1 <0>         0.0000
     38 H15        -3.2246   -0.2637   -0.6697 H         1 <0>         0.0000
     39 H16        -2.3420    0.8242   -1.7762 H         1 <0>         0.0000
     40 H17         1.0102   -2.4026   -1.3466 H         1 <0>         0.0000
     41 H18         3.6216    1.1752   -2.1612 H         1 <0>         0.0000
     42 H19         4.7707   -0.1098   -2.6172 H         1 <0>         0.0000
     43 H20         3.9408    2.8004    2.3613 H         1 <0>         0.0000
@<TRIPOS>BOND
     1    1    2 ar
     2    1    6 ar
     3    1   24 1
     4    2    8 ar
     5    2   25 1
     6    3    5 ar
     7    3    8 ar
     8    3   26 1
     9    4    7 ar
    10    4    9 ar
    11    4   27 1
    12    5    6 ar
    13    5    7 ar
    14    6   18 ar
    15    7   22 1
    16    8   23 1
    17    9   17 1
    18    9   18 ar
    19   10   14 1
    20   10   19 1
    21   10   28 1
    22   10   29 1
    23   11   15 1
    24   11   19 1
    25   11   30 1
    26   11   31 1
    27   12   16 1
    28   12   20 1
    29   12   32 1
    30   12   33 1
    31   13   16 1
    32   13   20 1
    33   13   34 1
    34   13   35 1
    35   14   21 1
    36   14   36 1
    37   14   37 1
    38   15   21 1
    39   15   38 1
    40   15   39 1
    41   16   19 1
    42   16   40 1
    43   17   20 1
    44   17   41 1
    45   17   42 1
    46   22   43 1
