@<TRIPOS>MOLECULE
*****
   23    24     0     0     0
SMALL
NO_CHARGES

@<TRIPOS>ATOM
      1 C1         -3.4968    0.2473   -4.2755 C.2       1 <0>         0.0000
      2 C2         -4.2042   -0.7809   -3.5858 C.2       1 <0>         0.0000
      3 C3         -2.2283    0.4303   -3.7817 C.2       1 <0>         0.0000
      4 C4         -3.4635   -1.3651   -2.5766 C.2       1 <0>         0.0000
      5 C5         -4.7655   -4.4508    0.1788 C.2       1 <0>         0.0000
      6 C6         -6.3341   -5.7574    0.9890 C.2       1 <0>         0.0000
      7 C7         -3.9060   -2.4311   -1.7023 C.2       1 <0>         0.0000
      8 N1         -5.8553   -4.2496   -0.5255 N.2       1 <0>         0.0000
      9 N2         -6.8545   -5.0866   -0.0001 N.2       1 <0>         0.0000
     10 N3         -3.1093   -2.8760   -0.7841 N.2       1 <0>         0.0000
     11 N4         -5.0001   -5.4011    1.1660 N.pl3     1 <0>         0.0000
     12 N5         -4.1317   -5.9516    2.1069 N.3       1 <0>         0.0000
     13 N6         -3.5080   -3.9062    0.0303 N.pl3     1 <0>         0.0000
     14 S1         -1.8740   -0.6456   -2.4692 S.3       1 <0>         0.0000
     15 S2         -7.1729   -6.9326    1.9905 S.3       1 <0>         0.0000
     16 H1         -3.9073    0.8237   -5.0980 H         1 <0>         0.0000
     17 H2         -5.2205   -1.0854   -3.8160 H         1 <0>         0.0000
     18 H3         -1.4798    1.1381   -4.1157 H         1 <0>         0.0000
     19 H4         -4.9126   -2.8184   -1.8556 H         1 <0>         0.0000
     20 H5         -3.8146   -5.2434    2.7676 H         1 <0>         0.0000
     21 H6         -3.3396   -6.3977    1.6463 H         1 <0>         0.0000
     22 H7         -2.8571   -4.0465    0.7901 H         1 <0>         0.0000
     23 H8         -6.0636   -7.2474    2.6955 H         1 <0>         0.0000
@<TRIPOS>BOND
     1    1    2 1
     2    1    3 2
     3    1   16 1
     4    2    4 2
     5    2   17 1
     6    3   14 1
     7    3   18 1
     8    4    7 1
     9    4   14 1
    10    5    8 2
    11    5   11 1
    12    5   13 1
    13    6    9 2
    14    6   11 1
    15    6   15 1
    16    7   10 2
    17    7   19 1
    18    8    9 1
    19   10   13 1
    20   11   12 1
    21   12   20 1
    22   12   21 1
    23   13   22 1
    24   15   23 1
