@<TRIPOS>MOLECULE
*****
   43    45     0     0     0
SMALL
NO_CHARGES

@<TRIPOS>ATOM
      1 C1         -5.6736    0.4912   -3.2090 C.ar      1 <0>         0.0000
      2 C2         -5.4285    1.8267   -2.8261 C.ar      1 <0>         0.0000
      3 C3         -4.6233   -0.3359   -3.6043 C.ar      1 <0>         0.0000
      4 C4         -4.1391    2.3632   -2.8125 C.ar      1 <0>         0.0000
      5 C5         -3.3323    0.1995   -3.6097 C.ar      1 <0>         0.0000
      6 C6         -3.0950    1.5190   -3.2033 C.ar      1 <0>         0.0000
      7 C7         -2.0346   -0.4036   -3.9537 C.2       1 <0>         0.0000
      8 C8          0.8507    0.9107   -2.3257 C.2       1 <0>         0.0000
      9 C9         -1.5312   -0.8464   -0.5509 C.3       1 <0>         0.0000
     10 C10        -0.1944   -1.1115   -1.2527 C.3       1 <0>         0.0000
     11 C11         0.8986    0.6163    0.0891 C.3       1 <0>         0.0000
     12 C12        -0.4115    0.9418    0.8291 C.3       1 <0>         0.0000
     13 C13        -1.3645   -0.2830    0.8734 C.3       1 <0>         0.0000
     14 C14        -0.1193    1.5433    2.2067 C.3       1 <0>         0.0000
     15 C15        -0.9046   -1.3673    1.8504 C.3       1 <0>         0.0000
     16 C16         0.3202    0.4691   -3.7006 C.3       1 <0>         0.0000
     17 N1         -1.7137    1.7765   -3.1977 N.pl3     1 <0>         0.0000
     18 N2         -1.1195    0.6345   -3.7993 N.am      1 <0>         0.0000
     19 N3          0.6280    0.0993   -1.2531 N.am      1 <0>         0.0000
     20 O1         -1.7388   -1.5577   -4.2654 O.2       1 <0>         0.0000
     21 O2          1.4405    1.9924   -2.2466 O.2       1 <0>         0.0000
     22 O3         -2.6558    0.1227    1.3713 O.3       1 <0>         0.0000
     23 H1         -6.6907    0.1107   -3.1943 H         1 <0>         0.0000
     24 H2         -6.2635    2.4538   -2.5253 H         1 <0>         0.0000
     25 H3         -4.7869   -1.3666   -3.9053 H         1 <0>         0.0000
     26 H4         -3.9583    3.3885   -2.5013 H         1 <0>         0.0000
     27 H5         -2.0958   -0.1194   -1.1450 H         1 <0>         0.0000
     28 H6         -2.1259   -1.7650   -0.5173 H         1 <0>         0.0000
     29 H7          0.3621   -1.8946   -0.7236 H         1 <0>         0.0000
     30 H8         -0.3614   -1.4759   -2.2643 H         1 <0>         0.0000
     31 H9          1.5128    1.5103   -0.0114 H         1 <0>         0.0000
     32 H10         1.4775   -0.1328    0.6436 H         1 <0>         0.0000
     33 H11        -0.9233    1.7034    0.2227 H         1 <0>         0.0000
     34 H12         0.5341    0.8949    2.8001 H         1 <0>         0.0000
     35 H13        -1.0458    1.6954    2.7669 H         1 <0>         0.0000
     36 H14         0.3833    2.5107    2.1025 H         1 <0>         0.0000
     37 H15        -0.9217   -0.9894    2.8748 H         1 <0>         0.0000
     38 H16         0.1072   -1.7168    1.6292 H         1 <0>         0.0000
     39 H17        -1.5840   -2.2225    1.7962 H         1 <0>         0.0000
     40 H18         0.5230   -0.5747   -3.9487 H         1 <0>         0.0000
     41 H19         0.8248    1.1064   -4.4313 H         1 <0>         0.0000
     42 H20        -1.4168    2.6356   -3.6601 H         1 <0>         0.0000
     43 H21        -3.0430    0.7358    0.7247 H         1 <0>         0.0000
@<TRIPOS>BOND
     1    1    2 ar
     2    1    3 ar
     3    1   23 1
     4    2    4 ar
     5    2   24 1
     6    3    5 ar
     7    3   25 1
     8    4    6 ar
     9    4   26 1
    10    5    6 ar
    11    5    7 1
    12    6   17 1
    13    7   18 am
    14    7   20 2
    15    8   16 1
    16    8   19 am
    17    8   21 2
    18    9   10 1
    19    9   13 1
    20    9   27 1
    21    9   28 1
    22   10   19 1
    23   10   29 1
    24   10   30 1
    25   11   12 1
    26   11   19 1
    27   11   31 1
    28   11   32 1
    29   12   13 1
    30   12   14 1
    31   12   33 1
    32   13   15 1
    33   13   22 1
    34   14   34 1
    35   14   35 1
    36   14   36 1
    37   15   37 1
    38   15   38 1
    39   15   39 1
    40   16   18 1
    41   16   40 1
    42   16   41 1
    43   17   18 1
    44   17   42 1
    45   22   43 1
