@<TRIPOS>MOLECULE
*****
   38    40     0     0     0
SMALL
NO_CHARGES

@<TRIPOS>ATOM
      1 C1         -8.5301    4.6855    0.2723 C.ar      1 <0>         0.0000
      2 C2         -7.1729    4.3676    0.2331 C.ar      1 <0>         0.0000
      3 C3         -9.3368    4.2636    1.3338 C.ar      1 <0>         0.0000
      4 C4         -7.3945    3.2121    2.3632 C.ar      1 <0>         0.0000
      5 C5         -3.2070    2.3703    1.2720 C.2       1 <0>         0.0000
      6 C6         -6.6130    3.6232    1.2781 C.ar      1 <0>         0.0000
      7 C7         -8.7521    3.5305    2.3674 C.ar      1 <0>         0.0000
      8 C8         -3.1501    3.7303    0.8335 C.2       1 <0>         0.0000
      9 C9         -4.5619    2.1558    1.5091 C.2       1 <0>         0.0000
     10 C10        -2.0621    1.4819    1.4006 C.2       1 <0>         0.0000
     11 C11         0.2495   -0.0431    1.8030 C.3       1 <0>         0.0000
     12 C12        -1.2859   -1.5626    2.9555 C.3       1 <0>         0.0000
     13 C13         1.2558   -1.1951    1.7748 C.3       1 <0>         0.0000
     14 C14        -0.2282   -2.6515    2.8390 C.3       1 <0>         0.0000
     15 C15        -1.9370    4.5165    0.4402 C.3       1 <0>         0.0000
     16 N1         -4.3550    4.2917    0.8066 N.2       1 <0>         0.0000
     17 N2         -2.1833    0.2733    1.8377 N.2       1 <0>         0.0000
     18 N3         -5.2253    3.3243    1.2336 N.pl3     1 <0>         0.0000
     19 N4         -1.1109   -0.5742    1.8858 N.pl3     1 <0>         0.0000
     20 O1          1.0857   -2.0933    2.8636 O.3       1 <0>         0.0000
     21 Cl1        -9.7401    3.0102    3.7227 Cl        1 <0>         0.0000
     22 Cl2        -5.3725    0.7078    1.9577 Cl        1 <0>         0.0000
     23 H1         -8.9709    5.2620   -0.5361 H         1 <0>         0.0000
     24 H2         -6.5397    4.6916   -0.5849 H         1 <0>         0.0000
     25 H3        -10.3951    4.5015    1.3630 H         1 <0>         0.0000
     26 H4         -6.9580    2.6716    3.1937 H         1 <0>         0.0000
     27 H5         -1.1080    1.9137    1.0908 H         1 <0>         0.0000
     28 H6          0.4561    0.6357    2.6487 H         1 <0>         0.0000
     29 H7          0.3674    0.5239    0.8740 H         1 <0>         0.0000
     30 H8         -2.2899   -1.9827    2.8592 H         1 <0>         0.0000
     31 H9         -1.2076   -1.0791    3.9425 H         1 <0>         0.0000
     32 H10         1.1556   -1.7393    0.8230 H         1 <0>         0.0000
     33 H11         2.2730   -0.8021    1.8476 H         1 <0>         0.0000
     34 H12        -0.2921   -3.3378    3.6867 H         1 <0>         0.0000
     35 H13        -0.3733   -3.2208    1.9080 H         1 <0>         0.0000
     36 H14        -1.4169    4.0517   -0.4049 H         1 <0>         0.0000
     37 H15        -2.2334    5.5268    0.1500 H         1 <0>         0.0000
     38 H16        -1.2234    4.5896    1.2683 H         1 <0>         0.0000
@<TRIPOS>BOND
     1    1    2 ar
     2    1    3 ar
     3    1   23 1
     4    2    6 ar
     5    2   24 1
     6    3    7 ar
     7    3   25 1
     8    4    6 ar
     9    4    7 ar
    10    4   26 1
    11    5    8 1
    12    5    9 2
    13    5   10 1
    14    6   18 1
    15    7   21 1
    16    8   15 1
    17    8   16 2
    18    9   18 1
    19    9   22 1
    20   10   17 2
    21   10   27 1
    22   11   13 1
    23   11   19 1
    24   11   28 1
    25   11   29 1
    26   12   14 1
    27   12   19 1
    28   12   30 1
    29   12   31 1
    30   13   20 1
    31   13   32 1
    32   13   33 1
    33   14   20 1
    34   14   34 1
    35   14   35 1
    36   15   36 1
    37   15   37 1
    38   15   38 1
    39   16   18 1
    40   17   19 1
