@<TRIPOS>MOLECULE
*****
   41    43     0     0     0
SMALL
NO_CHARGES

@<TRIPOS>ATOM
      1 C1          0.4857   -6.0782    2.7900 C.ar      1 <0>         0.0000
      2 C2          0.2000   -4.7952    3.2711 C.ar      1 <0>         0.0000
      3 C3          0.2714   -6.3731    1.4404 C.ar      1 <0>         0.0000
      4 C4         -0.2972   -3.8139    2.4105 C.ar      1 <0>         0.0000
      5 C5         -0.2258   -5.3882    0.5806 C.ar      1 <0>         0.0000
      6 C6         -0.5150   -4.1040    1.0560 C.ar      1 <0>         0.0000
      7 C7          0.0446   -2.0767   -0.3476 C.2       1 <0>         0.0000
      8 C8          0.4645    1.2161   -1.9320 C.3       1 <0>         0.0000
      9 C9         -2.1362    0.6683   -0.5944 C.3       1 <0>         0.0000
     10 C10         0.6996   -0.2942   -1.8960 C.3       1 <0>         0.0000
     11 C11        -1.7033   -0.6007   -1.3896 C.3       1 <0>         0.0000
     12 C12         1.4354    1.6087    0.4319 C.3       1 <0>         0.0000
     13 C13         0.2573    1.8812   -0.5654 C.3       1 <0>         0.0000
     14 C14        -1.0660    1.4876    0.1451 C.3       1 <0>         0.0000
     15 C15        -1.0460   -3.0390    0.1267 C.3       1 <0>         0.0000
     16 N1          1.1083    0.5072    1.3485 N.pl3     1 <0>         0.0000
     17 N2         -0.3319   -1.0213   -1.1498 N.am      1 <0>         0.0000
     18 O1          1.2315   -2.2391   -0.0470 O.2       1 <0>         0.0000
     19 O2         -1.1346   -0.6215    1.9574 O.2       1 <0>         0.0000
     20 O3         -0.6338    1.7313    2.7719 O.2       1 <0>         0.0000
     21 S1         -0.5212    0.6968    1.7402 S.o2      1 <0>         0.0000
     22 H1          0.8713   -6.8412    3.4617 H         1 <0>         0.0000
     23 H2          0.3651   -4.5588    4.3194 H         1 <0>         0.0000
     24 H3          0.4904   -7.3668    1.0574 H         1 <0>         0.0000
     25 H4         -0.5131   -2.8160    2.7815 H         1 <0>         0.0000
     26 H5         -0.3864   -5.6220   -0.4702 H         1 <0>         0.0000
     27 H6          1.3377    1.6723   -2.4136 H         1 <0>         0.0000
     28 H7         -0.3876    1.4549   -2.5783 H         1 <0>         0.0000
     29 H8         -2.6433    1.3545   -1.2823 H         1 <0>         0.0000
     30 H9         -2.8842    0.3823    0.1509 H         1 <0>         0.0000
     31 H10         0.7297   -0.6737   -2.9274 H         1 <0>         0.0000
     32 H11         1.6598   -0.5338   -1.4418 H         1 <0>         0.0000
     33 H12        -2.3818   -1.4169   -1.1528 H         1 <0>         0.0000
     34 H13        -1.8159   -0.4144   -2.4631 H         1 <0>         0.0000
     35 H14         2.3557    1.3553   -0.0981 H         1 <0>         0.0000
     36 H15         1.6286    2.5004    1.0329 H         1 <0>         0.0000
     37 H16         0.2249    2.9602   -0.7427 H         1 <0>         0.0000
     38 H17        -1.5569    2.3903    0.5141 H         1 <0>         0.0000
     39 H18        -1.4954   -3.5003   -0.7612 H         1 <0>         0.0000
     40 H19        -1.8277   -2.4661    0.6281 H         1 <0>         0.0000
     41 H20         1.2830   -0.4291    0.9663 H         1 <0>         0.0000
@<TRIPOS>BOND
     1    1    3 ar
     2    1    2 ar
     3    1   22 1
     4    2    4 ar
     5    2   23 1
     6    3    5 ar
     7    3   24 1
     8    4    6 ar
     9    4   25 1
    10    5    6 ar
    11    5   26 1
    12    6   15 1
    13    7   15 1
    14    7   17 am
    15    7   18 2
    16    8   10 1
    17    8   13 1
    18    8   27 1
    19    8   28 1
    20    9   11 1
    21    9   14 1
    22    9   29 1
    23    9   30 1
    24   10   17 1
    25   10   31 1
    26   10   32 1
    27   11   17 1
    28   11   33 1
    29   11   34 1
    30   12   13 1
    31   12   16 1
    32   12   35 1
    33   12   36 1
    34   13   14 1
    35   13   37 1
    36   14   21 1
    37   14   38 1
    38   15   39 1
    39   15   40 1
    40   16   21 1
    41   16   41 1
    42   19   21 2
    43   20   21 2
