@<TRIPOS>MOLECULE
*****
   50    52     0     0     0
SMALL
NO_CHARGES

@<TRIPOS>ATOM
      1 C1          1.9447   -4.1329    1.7131 C.ar      1 <0>         0.0000
      2 C2          1.2270   -5.2994    1.4202 C.ar      1 <0>         0.0000
      3 C3          2.0430   -3.1151    0.7640 C.ar      1 <0>         0.0000
      4 C4          0.6071   -5.4307    0.1775 C.ar      1 <0>         0.0000
      5 C5         -0.3779   -4.9797   -4.1423 C.2       1 <0>         0.0000
      6 C6          1.4373   -3.2368   -0.4950 C.ar      1 <0>         0.0000
      7 C7          0.7133   -4.4054   -0.7676 C.ar      1 <0>         0.0000
      8 C8         -1.4227   -4.2275   -3.5396 C.2       1 <0>         0.0000
      9 C9          0.5654   -5.1749   -3.1450 C.2       1 <0>         0.0000
     10 C10         1.0518    1.6016   -1.2182 C.3       1 <0>         0.0000
     11 C11         1.4826    0.2716   -1.8379 C.3       1 <0>         0.0000
     12 C12        -0.3492   -0.8600   -0.7466 C.3       1 <0>         0.0000
     13 C13        -0.8454    0.4318   -0.0889 C.3       1 <0>         0.0000
     14 C14        -0.4582    1.6684   -0.9269 C.3       1 <0>         0.0000
     15 C15        -2.6984   -3.7372   -4.1572 C.3       1 <0>         0.0000
     16 C16         1.8921   -5.8667   -3.1540 C.3       1 <0>         0.0000
     17 C17        -2.3437    0.3416    0.2212 C.3       1 <0>         0.0000
     18 C18        -1.2746    1.8060   -2.2196 C.3       1 <0>         0.0000
     19 C19         1.5807   -2.1159   -1.5039 C.3       1 <0>         0.0000
     20 N1         -1.1488   -3.9708   -2.2582 N.2       1 <0>         0.0000
     21 N2          0.0623   -4.5638   -2.0299 N.pl3     1 <0>         0.0000
     22 N3          1.1021   -0.8400   -0.9677 N.3       1 <0>         0.0000
     23 O1         -0.7270    2.8079   -0.0798 O.3       1 <0>         0.0000
     24 H1          2.4235   -4.0184    2.6823 H         1 <0>         0.0000
     25 H2          1.1429   -6.0933    2.1574 H         1 <0>         0.0000
     26 H3          2.5794   -2.1981    0.9922 H         1 <0>         0.0000
     27 H4          0.0255   -6.3145   -0.0693 H         1 <0>         0.0000
     28 H5         -0.3192   -5.3339   -5.1636 H         1 <0>         0.0000
     29 H6          1.5805    1.7381   -0.2692 H         1 <0>         0.0000
     30 H7          1.3410    2.4266   -1.8832 H         1 <0>         0.0000
     31 H8          1.0487    0.1613   -2.8511 H         1 <0>         0.0000
     32 H9          2.5720    0.2613   -1.9590 H         1 <0>         0.0000
     33 H10        -0.5874   -1.7042   -0.0946 H         1 <0>         0.0000
     34 H11        -0.8919   -1.0471   -1.6909 H         1 <0>         0.0000
     35 H12        -0.3051    0.5441    0.8589 H         1 <0>         0.0000
     36 H13        -3.3268   -4.5714   -4.4886 H         1 <0>         0.0000
     37 H14        -3.2623   -3.1500   -3.4286 H         1 <0>         0.0000
     38 H15        -2.4997   -3.1086   -5.0323 H         1 <0>         0.0000
     39 H16         2.6992   -5.1876   -2.8582 H         1 <0>         0.0000
     40 H17         1.9113   -6.7147   -2.4613 H         1 <0>         0.0000
     41 H18         2.1090   -6.2401   -4.1572 H         1 <0>         0.0000
     42 H19        -2.9294    0.0940   -0.6706 H         1 <0>         0.0000
     43 H20        -2.7135    1.2871    0.6262 H         1 <0>         0.0000
     44 H21        -2.5298   -0.4443    0.9610 H         1 <0>         0.0000
     45 H22        -2.3303    1.9663   -1.9890 H         1 <0>         0.0000
     46 H23        -1.1926    0.9232   -2.8594 H         1 <0>         0.0000
     47 H24        -0.9201    2.6666   -2.8008 H         1 <0>         0.0000
     48 H25         2.6456   -1.9943   -1.7382 H         1 <0>         0.0000
     49 H26         1.0731   -2.3825   -2.4446 H         1 <0>         0.0000
     50 H27        -0.4991    3.6078   -0.5808 H         1 <0>         0.0000
@<TRIPOS>BOND
     1    1    2 ar
     2    1    3 ar
     3    1   24 1
     4    2    4 ar
     5    2   25 1
     6    3    6 ar
     7    3   26 1
     8    4    7 ar
     9    4   27 1
    10    5    8 1
    11    5    9 2
    12    5   28 1
    13    6    7 ar
    14    6   19 1
    15    7   21 1
    16    8   15 1
    17    8   20 2
    18    9   16 1
    19    9   21 1
    20   10   11 1
    21   10   14 1
    22   10   29 1
    23   10   30 1
    24   11   22 1
    25   11   31 1
    26   11   32 1
    27   12   13 1
    28   12   22 1
    29   12   33 1
    30   12   34 1
    31   13   14 1
    32   13   17 1
    33   13   35 1
    34   14   18 1
    35   14   23 1
    36   15   36 1
    37   15   37 1
    38   15   38 1
    39   16   39 1
    40   16   40 1
    41   16   41 1
    42   17   42 1
    43   17   43 1
    44   17   44 1
    45   18   45 1
    46   18   46 1
    47   18   47 1
    48   19   22 1
    49   19   48 1
    50   19   49 1
    51   20   21 1
    52   23   50 1
