@<TRIPOS>MOLECULE
*****
   29    30     0     0     0
SMALL
NO_CHARGES

@<TRIPOS>ATOM
      1 C1          2.9432   -5.8136   -1.3230 C.ar      1 <0>         0.0000
      2 C2          2.3224   -4.7180   -1.9292 C.ar      1 <0>         0.0000
      3 C3          3.5499   -5.6648   -0.0707 C.ar      1 <0>         0.0000
      4 C4          2.2826   -3.4820   -1.2787 C.ar      1 <0>         0.0000
      5 C5          3.5399   -4.4243    0.5684 C.ar      1 <0>         0.0000
      6 C6          0.5840   -4.0495    2.7494 C.ar      1 <0>         0.0000
      7 C7          0.7699   -5.3874    3.0844 C.ar      1 <0>         0.0000
      8 C8         -0.0908   -4.7127    0.5074 C.ar      1 <0>         0.0000
      9 C9          2.8856   -3.3299   -0.0202 C.ar      1 <0>         0.0000
     10 C10         0.1780   -3.7301    1.4529 C.ar      1 <0>         0.0000
     11 C11         0.5393   -6.3908    2.1350 C.ar      1 <0>         0.0000
     12 C12         0.0909   -6.0543    0.8486 C.ar      1 <0>         0.0000
     13 C13         2.8250   -2.0368    0.6966 C.2       1 <0>         0.0000
     14 C14         1.7225   -1.3883    1.0931 C.2       1 <0>         0.0000
     15 O1         -0.4382   -1.9593   -0.4176 O.2       1 <0>         0.0000
     16 O2         -0.6905   -1.2858    2.0391 O.2       1 <0>         0.0000
     17 S1          0.0341   -1.9975    0.9750 S.o2      1 <0>         0.0000
     18 Cl1         0.8289   -8.0483    2.5852 Cl        1 <0>         0.0000
     19 Cl2        -0.2317   -7.2750   -0.3519 Cl        1 <0>         0.0000
     20 H1          2.9475   -6.7806   -1.8176 H         1 <0>         0.0000
     21 H2          1.8490   -4.8286   -2.9009 H         1 <0>         0.0000
     22 H3          4.0265   -6.5156    0.4085 H         1 <0>         0.0000
     23 H4          1.7682   -2.6407   -1.7315 H         1 <0>         0.0000
     24 H5          4.0056   -4.3120    1.5444 H         1 <0>         0.0000
     25 H6          0.7602   -3.2683    3.4819 H         1 <0>         0.0000
     26 H7          1.0975   -5.6675    4.0802 H         1 <0>         0.0000
     27 H8         -0.4149   -4.4354   -0.4888 H         1 <0>         0.0000
     28 H9          3.7778   -1.5693    0.9490 H         1 <0>         0.0000
     29 H10         1.7473   -0.4333    1.6110 H         1 <0>         0.0000
@<TRIPOS>BOND
     1    1    3 ar
     2    1    2 ar
     3    1   20 1
     4    2    4 ar
     5    2   21 1
     6    3    5 ar
     7    3   22 1
     8    4    9 ar
     9    4   23 1
    10    5    9 ar
    11    5   24 1
    12    6    7 ar
    13    6   10 ar
    14    6   25 1
    15    7   11 ar
    16    7   26 1
    17    8   10 ar
    18    8   12 ar
    19    8   27 1
    20    9   13 1
    21   10   17 1
    22   11   12 ar
    23   11   18 1
    24   12   19 1
    25   13   14 2
    26   13   28 1
    27   14   17 1
    28   14   29 1
    29   15   17 2
    30   16   17 2
