@<TRIPOS>MOLECULE
*****
   41    43     0     0     0
SMALL
NO_CHARGES

@<TRIPOS>ATOM
      1 C1         -2.1696   -6.7157    1.2894 C.ar      1 <0>         0.0000
      2 C2         -2.4228   -5.5470    0.5598 C.ar      1 <0>         0.0000
      3 C3         -0.9016   -7.2999    1.2325 C.ar      1 <0>         0.0000
      4 C4         -1.4229   -4.9754   -0.2321 C.ar      1 <0>         0.0000
      5 C5          0.1000   -6.7207    0.4471 C.ar      1 <0>         0.0000
      6 C6         -0.1501   -5.5651   -0.3054 C.ar      1 <0>         0.0000
      7 C7          0.3683   -4.7372   -2.6122 C.2       1 <0>         0.0000
      8 C8         -0.8888   -6.8052   -5.3454 C.3       1 <0>         0.0000
      9 C9          0.5786   -8.0567   -2.7547 C.3       1 <0>         0.0000
     10 C10        -0.2188   -5.5195   -4.8374 C.3       1 <0>         0.0000
     11 C11         1.3262   -6.9106   -3.4467 C.3       1 <0>         0.0000
     12 C12        -2.4519   -7.0039   -3.2531 C.3       1 <0>         0.0000
     13 C13        -1.5562   -7.7166   -4.3020 C.3       1 <0>         0.0000
     14 C14        -0.5990   -8.6516   -3.5355 C.3       1 <0>         0.0000
     15 C15         0.9286   -4.9807   -1.2099 C.3       1 <0>         0.0000
     16 N1         -2.6531   -7.9221   -2.1084 N.pl3     1 <0>         0.0000
     17 N2          0.5227   -5.6966   -3.5843 N.am      1 <0>         0.0000
     18 O1         -0.2856   -3.7096   -2.8190 O.2       1 <0>         0.0000
     19 O2         -1.2047   -9.7703   -1.0636 O.2       1 <0>         0.0000
     20 O3         -2.6427  -10.3177   -3.0884 O.2       1 <0>         0.0000
     21 S1         -1.8041   -9.3747   -2.3446 S.o2      1 <0>         0.0000
     22 H1         -2.9554   -7.1712    1.8855 H         1 <0>         0.0000
     23 H2         -3.4062   -5.0854    0.5985 H         1 <0>         0.0000
     24 H3         -0.6976   -8.2191    1.7727 H         1 <0>         0.0000
     25 H4         -1.6269   -4.0798   -0.8111 H         1 <0>         0.0000
     26 H5          1.0791   -7.1925    0.4028 H         1 <0>         0.0000
     27 H6         -1.6474   -6.4956   -6.0734 H         1 <0>         0.0000
     28 H7         -0.1750   -7.4138   -5.9120 H         1 <0>         0.0000
     29 H8          1.2836   -8.8635   -2.5293 H         1 <0>         0.0000
     30 H9          0.2292   -7.6913   -1.7901 H         1 <0>         0.0000
     31 H10         0.4498   -5.1312   -5.6171 H         1 <0>         0.0000
     32 H11        -0.9613   -4.7456   -4.6485 H         1 <0>         0.0000
     33 H12         2.2354   -6.6901   -2.8836 H         1 <0>         0.0000
     34 H13         1.6607   -7.2032   -4.4466 H         1 <0>         0.0000
     35 H14        -1.9924   -6.0843   -2.8890 H         1 <0>         0.0000
     36 H15        -3.4176   -6.7518   -3.7007 H         1 <0>         0.0000
     37 H16        -2.2067   -8.3923   -4.8664 H         1 <0>         0.0000
     38 H17        -0.2792   -9.4697   -4.1849 H         1 <0>         0.0000
     39 H18         1.2321   -3.9968   -0.8420 H         1 <0>         0.0000
     40 H19         1.8077   -5.6264   -1.1944 H         1 <0>         0.0000
     41 H20        -2.4022   -7.5225   -1.2050 H         1 <0>         0.0000
@<TRIPOS>BOND
     1    1    3 ar
     2    1    2 ar
     3    1   22 1
     4    2    4 ar
     5    2   23 1
     6    3    5 ar
     7    3   24 1
     8    4    6 ar
     9    4   25 1
    10    5    6 ar
    11    5   26 1
    12    6   15 1
    13    7   15 1
    14    7   17 am
    15    7   18 2
    16    8   10 1
    17    8   13 1
    18    8   27 1
    19    8   28 1
    20    9   11 1
    21    9   14 1
    22    9   29 1
    23    9   30 1
    24   10   17 1
    25   10   31 1
    26   10   32 1
    27   11   17 1
    28   11   33 1
    29   11   34 1
    30   12   13 1
    31   12   16 1
    32   12   35 1
    33   12   36 1
    34   13   14 1
    35   13   37 1
    36   14   21 1
    37   14   38 1
    38   15   39 1
    39   15   40 1
    40   16   21 1
    41   16   41 1
    42   19   21 2
    43   20   21 2
