@<TRIPOS>MOLECULE
*****
   39    41     0     0     0
SMALL
NO_CHARGES

@<TRIPOS>ATOM
      1 C1          1.0765   -6.6223    0.9257 C.ar      1 <0>         0.0000
      2 C2          1.4327   -6.2081    2.2184 C.ar      1 <0>         0.0000
      3 C3         -0.2196   -6.4220    0.4377 C.ar      1 <0>         0.0000
      4 C4          0.5014   -5.5795    3.0555 C.ar      1 <0>         0.0000
      5 C5         -6.3746   -7.3566    0.2202 C.2       1 <0>         0.0000
      6 C6         -1.1506   -5.8018    1.2690 C.ar      1 <0>         0.0000
      7 C7         -5.7365   -6.6160    1.2716 C.2       1 <0>         0.0000
      8 C8         -0.7764   -5.3930    2.5461 C.ar      1 <0>         0.0000
      9 C9         -6.3107   -8.6895    0.5376 C.2       1 <0>         0.0000
     10 C10        -5.3130   -7.5406    2.2327 C.2       1 <0>         0.0000
     11 C11        -2.5722   -5.4984    0.9302 C.2       1 <0>         0.0000
     12 C12        -5.6107   -5.1604    1.2091 C.2       1 <0>         0.0000
     13 C13        -6.7915   -9.8861   -0.2207 C.3       1 <0>         0.0000
     14 C14        -4.6958   -7.3806    3.5857 C.3       1 <0>         0.0000
     15 C15        -5.4749  -10.0278    2.5120 C.3       1 <0>         0.0000
     16 C16        -4.5459   -4.3928    2.0220 C.3       1 <0>         0.0000
     17 N1         -5.6588   -8.7915    1.7694 N.pl3     1 <0>         0.0000
     18 N2         -3.2294   -5.0378    2.0759 N.am      1 <0>         0.0000
     19 O1         -3.0963   -5.6338   -0.1600 O.2       1 <0>         0.0000
     20 O2         -6.3488   -4.4745    0.5082 O.2       1 <0>         0.0000
     21 O3         -2.5322   -5.2954    4.5868 O.2       1 <0>         0.0000
     22 O4         -2.0000   -3.1440    3.3890 O.2       1 <0>         0.0000
     23 S1         -2.1513   -4.5981    3.3595 S.o2      1 <0>         0.0000
     24 H1          1.8197   -7.1045    0.2971 H         1 <0>         0.0000
     25 H2          2.4451   -6.3730    2.5760 H         1 <0>         0.0000
     26 H3         -0.5138   -6.7344   -0.5597 H         1 <0>         0.0000
     27 H4          0.7687   -5.2529    4.0558 H         1 <0>         0.0000
     28 H5         -6.7915   -6.9242   -0.6788 H         1 <0>         0.0000
     29 H6         -5.9713  -10.5559   -0.5090 H         1 <0>         0.0000
     30 H7         -7.5195  -10.4781    0.3476 H         1 <0>         0.0000
     31 H8         -7.2811   -9.5532   -1.1385 H         1 <0>         0.0000
     32 H9         -5.2245   -7.9829    4.3330 H         1 <0>         0.0000
     33 H10        -3.6420   -7.6812    3.6055 H         1 <0>         0.0000
     34 H11        -4.7338   -6.3490    3.9243 H         1 <0>         0.0000
     35 H12        -4.5166  -10.0168    3.0350 H         1 <0>         0.0000
     36 H13        -6.2750  -10.1794    3.2466 H         1 <0>         0.0000
     37 H14        -5.4745  -10.8718    1.8216 H         1 <0>         0.0000
     38 H15        -4.9043   -4.2820    3.0506 H         1 <0>         0.0000
     39 H16        -4.4712   -3.3980    1.5775 H         1 <0>         0.0000
@<TRIPOS>BOND
     1    1    2 ar
     2    1    3 ar
     3    1   24 1
     4    2    4 ar
     5    2   25 1
     6    3    6 ar
     7    3   26 1
     8    4    8 ar
     9    4   27 1
    10    5    7 1
    11    5    9 2
    12    5   28 1
    13    6    8 ar
    14    6   11 1
    15    7   10 2
    16    7   12 1
    17    8   23 1
    18    9   13 1
    19    9   17 1
    20   10   14 1
    21   10   17 1
    22   11   18 am
    23   11   19 2
    24   12   16 1
    25   12   20 2
    26   13   29 1
    27   13   30 1
    28   13   31 1
    29   14   32 1
    30   14   33 1
    31   14   34 1
    32   15   17 1
    33   15   35 1
    34   15   36 1
    35   15   37 1
    36   16   18 1
    37   16   38 1
    38   16   39 1
    39   18   23 1
    40   21   23 2
    41   22   23 2
