@<TRIPOS>MOLECULE
*****
   41    43     0     0     0
SMALL
NO_CHARGES

@<TRIPOS>ATOM
      1 C1         -0.1259   -8.6434    4.8056 C.ar      1 <0>         0.0000
      2 C2          1.2220   -8.9670    4.6305 C.ar      1 <0>         0.0000
      3 C3         -0.8492   -8.1026    3.7348 C.ar      1 <0>         0.0000
      4 C4          1.8362   -8.7556    3.3921 C.ar      1 <0>         0.0000
      5 C5         -0.2357   -7.9012    2.4952 C.ar      1 <0>         0.0000
      6 C6          1.1152   -8.2374    2.3076 C.ar      1 <0>         0.0000
      7 C7          0.9108   -8.7095   -0.1447 C.2       1 <0>         0.0000
      8 C8         -0.1844  -12.0824   -1.0113 C.3       1 <0>         0.0000
      9 C9          2.0552  -11.5109    1.2441 C.3       1 <0>         0.0000
     10 C10         0.1623  -10.6414   -1.4151 C.3       1 <0>         0.0000
     11 C11         2.2857  -10.8180   -0.1043 C.3       1 <0>         0.0000
     12 C12        -1.1860  -11.3601    1.2988 C.3       1 <0>         0.0000
     13 C13        -0.3406  -12.3801    0.4892 C.3       1 <0>         0.0000
     14 C14         0.9781  -12.6016    1.2573 C.3       1 <0>         0.0000
     15 C15         1.7770   -8.0743    0.9443 C.3       1 <0>         0.0000
     16 N1         -0.8849  -11.5406    2.7377 N.pl3     1 <0>         0.0000
     17 N2          1.1502  -10.0047   -0.5374 N.am      1 <0>         0.0000
     18 O1         -0.0436   -8.0661   -0.5938 O.2       1 <0>         0.0000
     19 O2          1.2158  -12.2978    4.0104 O.2       1 <0>         0.0000
     20 O3         -0.3593  -14.0544    3.0612 O.2       1 <0>         0.0000
     21 S1          0.2918  -12.7460    2.9607 S.o2      1 <0>         0.0000
     22 H1         -0.6112   -8.8209    5.7613 H         1 <0>         0.0000
     23 H2          1.7890   -9.4095    5.4436 H         1 <0>         0.0000
     24 H3         -1.8981   -7.8474    3.8622 H         1 <0>         0.0000
     25 H4          2.8830   -9.0227    3.2663 H         1 <0>         0.0000
     26 H5         -0.8032   -7.4990    1.6614 H         1 <0>         0.0000
     27 H6         -1.1257  -12.3302   -1.5153 H         1 <0>         0.0000
     28 H7          0.5539  -12.7841   -1.4154 H         1 <0>         0.0000
     29 H8          2.9959  -11.9528    1.5885 H         1 <0>         0.0000
     30 H9          1.8049  -10.7424    1.9742 H         1 <0>         0.0000
     31 H10         0.5237  -10.6365   -2.4520 H         1 <0>         0.0000
     32 H11        -0.7240  -10.0091   -1.3899 H         1 <0>         0.0000
     33 H12         3.1804  -10.1959   -0.0342 H         1 <0>         0.0000
     34 H13         2.4929  -11.5471   -0.8935 H         1 <0>         0.0000
     35 H14        -0.9545  -10.3320    1.0177 H         1 <0>         0.0000
     36 H15        -2.2505  -11.5346    1.1177 H         1 <0>         0.0000
     37 H16        -0.8601  -13.3416    0.5520 H         1 <0>         0.0000
     38 H17         1.3934  -13.5808    1.0085 H         1 <0>         0.0000
     39 H18         1.8407   -7.0140    0.6846 H         1 <0>         0.0000
     40 H19         2.7936   -8.4684    0.9821 H         1 <0>         0.0000
     41 H20        -0.5935  -10.6869    3.2122 H         1 <0>         0.0000
@<TRIPOS>BOND
     1    1    3 ar
     2    1    2 ar
     3    1   22 1
     4    2    4 ar
     5    2   23 1
     6    3    5 ar
     7    3   24 1
     8    4    6 ar
     9    4   25 1
    10    5    6 ar
    11    5   26 1
    12    6   15 1
    13    7   15 1
    14    7   17 am
    15    7   18 2
    16    8   10 1
    17    8   13 1
    18    8   27 1
    19    8   28 1
    20    9   11 1
    21    9   14 1
    22    9   29 1
    23    9   30 1
    24   10   17 1
    25   10   31 1
    26   10   32 1
    27   11   17 1
    28   11   33 1
    29   11   34 1
    30   12   13 1
    31   12   16 1
    32   12   35 1
    33   12   36 1
    34   13   14 1
    35   13   37 1
    36   14   21 1
    37   14   38 1
    38   15   39 1
    39   15   40 1
    40   16   21 1
    41   16   41 1
    42   19   21 2
    43   20   21 2
