@<TRIPOS>MOLECULE
*****
   22    23     0     0     0
SMALL
NO_CHARGES

@<TRIPOS>ATOM
      1 C1          1.8603   -1.0523   -0.1655 C.ar      1 <0>         0.0000
      2 C2          2.8858   -1.6962    0.5339 C.ar      1 <0>         0.0000
      3 C3          0.8167   -0.4368    0.5362 C.ar      1 <0>         0.0000
      4 C4          2.8774   -1.7114    1.9313 C.ar      1 <0>         0.0000
      5 C5          0.8015   -0.4602    1.9306 C.ar      1 <0>         0.0000
      6 C6          3.1985   -1.4220    8.2630 C.2       1 <0>         0.0000
      7 C7          4.4834   -1.1939    7.8917 C.2       1 <0>         0.0000
      8 C8          1.8389   -1.0851    2.6390 C.ar      1 <0>         0.0000
      9 C9          3.1935   -1.2573    6.1484 C.2       1 <0>         0.0000
     10 C10         1.7502   -1.0714    4.1371 C.2       1 <0>         0.0000
     11 N1          2.3770   -1.4659    7.1338 N.2       1 <0>         0.0000
     12 N2          2.9838   -1.2093    4.7830 N.am      1 <0>         0.0000
     13 O1          0.6976   -0.9370    4.7364 O.2       1 <0>         0.0000
     14 O2          4.5014   -1.0804    6.5081 O.3       1 <0>         0.0000
     15 H1          1.8692   -1.0384   -1.2522 H         1 <0>         0.0000
     16 H2          3.6858   -2.1944   -0.0070 H         1 <0>         0.0000
     17 H3          0.0143    0.0571   -0.0052 H         1 <0>         0.0000
     18 H4          3.6612   -2.2529    2.4553 H         1 <0>         0.0000
     19 H5         -0.0066   -0.0015    2.4920 H         1 <0>         0.0000
     20 H6          2.7949   -1.5620    9.2567 H         1 <0>         0.0000
     21 H7          5.4315   -1.0882    8.3957 H         1 <0>         0.0000
     22 H8          3.8256   -1.1029    4.2320 H         1 <0>         0.0000
@<TRIPOS>BOND
     1    1    3 ar
     2    1    2 ar
     3    1   15 1
     4    2    4 ar
     5    2   16 1
     6    3    5 ar
     7    3   17 1
     8    4    8 ar
     9    4   18 1
    10    5    8 ar
    11    5   19 1
    12    6    7 2
    13    6   11 1
    14    6   20 1
    15    7   14 1
    16    7   21 1
    17    8   10 1
    18    9   11 2
    19    9   12 1
    20    9   14 1
    21   10   12 am
    22   10   13 2
    23   12   22 1
