@<TRIPOS>MOLECULE
*****
   68    70     0     0     0
SMALL
NO_CHARGES

@<TRIPOS>ATOM
      1 C1         -3.9734    1.6607    0.5866 C.ar      1 <0>         0.0000
      2 C2         -2.6012    1.5824    0.3358 C.ar      1 <0>         0.0000
      3 C3         -4.0979   -0.7470    0.5879 C.ar      1 <0>         0.0000
      4 C4         -2.7274   -0.8246    0.3366 C.ar      1 <0>         0.0000
      5 C5         -4.7370    0.4936    0.7123 C.ar      1 <0>         0.0000
      6 C6         -1.9628    0.3432    0.2090 C.ar      1 <0>         0.0000
      7 C7         -7.0480    0.7027   -0.4137 C.3       1 <0>         0.0000
      8 C8          0.3584   -0.0656    1.2661 C.3       1 <0>         0.0000
      9 C9         -8.0215    1.8447   -0.0785 C.3       1 <0>         0.0000
     10 C10         1.3099   -1.1643    0.7627 C.3       1 <0>         0.0000
     11 C11        -6.2305    0.5528    0.9057 C.3       1 <0>         0.0000
     12 C12        -0.4725    0.2743   -0.0027 C.3       1 <0>         0.0000
     13 C13        -7.4063    4.2843    1.8710 C.3       1 <0>         0.0000
     14 C14         3.0734   -2.5664   -1.0698 C.3       1 <0>         0.0000
     15 C15       -10.1553    1.9276    3.3697 C.3       1 <0>         0.0000
     16 C16        -7.8895    2.3257    4.3653 C.3       1 <0>         0.0000
     17 C17        -9.4792    4.2434    4.0320 C.3       1 <0>         0.0000
     18 C18        -0.0310   -2.2386   -3.4233 C.3       1 <0>         0.0000
     19 C19         1.8934   -0.6148   -3.4451 C.3       1 <0>         0.0000
     20 C20         2.2733   -3.0704   -3.7878 C.3       1 <0>         0.0000
     21 C21        -8.4393    3.1518    1.9972 C.3       1 <0>         0.0000
     22 C22         1.6294   -2.2191   -1.4675 C.3       1 <0>         0.0000
     23 C23        -8.9730    2.9126    3.4428 C.3       1 <0>         0.0000
     24 C24         1.4431   -2.0222   -3.0154 C.3       1 <0>         0.0000
     25 N1         -7.9953    1.8799    1.3922 N.3       1 <0>         0.0000
     26 N2          1.2594   -1.0135   -0.7048 N.3       1 <0>         0.0000
     27 O1         -6.5685    1.7080    1.6740 O.3       1 <0>         0.0000
     28 O2         -0.1738   -0.7881   -0.9114 O.3       1 <0>         0.0000
     29 H1         -4.4585    2.6261    0.6916 H         1 <0>         0.0000
     30 H2         -2.0207    2.4975    0.2357 H         1 <0>         0.0000
     31 H3         -4.6786   -1.6622    0.6873 H         1 <0>         0.0000
     32 H4         -2.2435   -1.7909    0.2289 H         1 <0>         0.0000
     33 H5         -7.5681   -0.2291   -0.6487 H         1 <0>         0.0000
     34 H6         -6.4029    0.9576   -1.2568 H         1 <0>         0.0000
     35 H7         -0.2771   -0.4286    2.0762 H         1 <0>         0.0000
     36 H8          0.8971    0.8158    1.6226 H         1 <0>         0.0000
     37 H9         -7.6791    2.7889   -0.5275 H         1 <0>         0.0000
     38 H10        -9.0467    1.6510   -0.4055 H         1 <0>         0.0000
     39 H11         2.3336   -1.0218    1.1121 H         1 <0>         0.0000
     40 H12         0.9582   -2.1607    1.0756 H         1 <0>         0.0000
     41 H13        -6.5743   -0.3423    1.4410 H         1 <0>         0.0000
     42 H14        -0.1110    1.2182   -0.4311 H         1 <0>         0.0000
     43 H15        -6.5645    4.1415    2.5507 H         1 <0>         0.0000
     44 H16        -7.8700    5.2497    2.0871 H         1 <0>         0.0000
     45 H17        -7.0039    4.3333    0.8552 H         1 <0>         0.0000
     46 H18         3.7629   -1.7588   -1.3348 H         1 <0>         0.0000
     47 H19         3.4005   -3.4791   -1.5679 H         1 <0>         0.0000
     48 H20         3.1581   -2.7457    0.0042 H         1 <0>         0.0000
     49 H21       -10.9764    2.3396    2.7694 H         1 <0>         0.0000
     50 H22        -9.8449    0.9821    2.9182 H         1 <0>         0.0000
     51 H23       -10.5474    1.7225    4.3722 H         1 <0>         0.0000
     52 H24        -7.0186    2.9839    4.4437 H         1 <0>         0.0000
     53 H25        -7.5411    1.3577    3.9984 H         1 <0>         0.0000
     54 H26        -8.2948    2.1890    5.3746 H         1 <0>         0.0000
     55 H27        -8.6621    4.9437    4.2299 H         1 <0>         0.0000
     56 H28        -9.9930    4.0623    4.9825 H         1 <0>         0.0000
     57 H29       -10.1928    4.7353    3.3592 H         1 <0>         0.0000
     58 H30        -0.3697   -3.2423   -3.1388 H         1 <0>         0.0000
     59 H31        -0.6947   -1.5124   -2.9569 H         1 <0>         0.0000
     60 H32        -0.1302   -2.1530   -4.5117 H         1 <0>         0.0000
     61 H33         2.9287   -0.4136   -3.1498 H         1 <0>         0.0000
     62 H34         1.2622    0.1550   -2.9960 H         1 <0>         0.0000
     63 H35         1.8320   -0.5212   -4.5356 H         1 <0>         0.0000
     64 H36         3.3503   -2.9005   -3.7015 H         1 <0>         0.0000
     65 H37         2.0204   -3.0235   -4.8523 H         1 <0>         0.0000
     66 H38         2.0581   -4.0901   -3.4458 H         1 <0>         0.0000
     67 H39        -9.3149    3.4319    1.3963 H         1 <0>         0.0000
     68 H40         0.9785   -3.0567   -1.1575 H         1 <0>         0.0000
@<TRIPOS>BOND
     1    1    2 ar
     2    1    5 ar
     3    1   29 1
     4    2    6 ar
     5    2   30 1
     6    3    4 ar
     7    3    5 ar
     8    3   31 1
     9    4    6 ar
    10    4   32 1
    11    5   11 1
    12    6   12 1
    13    7    9 1
    14    7   11 1
    15    7   33 1
    16    7   34 1
    17    8   10 1
    18    8   12 1
    19    8   35 1
    20    8   36 1
    21    9   25 1
    22    9   37 1
    23    9   38 1
    24   10   26 1
    25   10   39 1
    26   10   40 1
    27   11   27 1
    28   11   41 1
    29   12   28 1
    30   12   42 1
    31   13   21 1
    32   13   43 1
    33   13   44 1
    34   13   45 1
    35   14   22 1
    36   14   46 1
    37   14   47 1
    38   14   48 1
    39   15   23 1
    40   15   49 1
    41   15   50 1
    42   15   51 1
    43   16   23 1
    44   16   52 1
    45   16   53 1
    46   16   54 1
    47   17   23 1
    48   17   55 1
    49   17   56 1
    50   17   57 1
    51   18   24 1
    52   18   58 1
    53   18   59 1
    54   18   60 1
    55   19   24 1
    56   19   61 1
    57   19   62 1
    58   19   63 1
    59   20   24 1
    60   20   64 1
    61   20   65 1
    62   20   66 1
    63   21   23 1
    64   21   25 1
    65   21   67 1
    66   22   24 1
    67   22   26 1
    68   22   68 1
    69   25   27 1
    70   26   28 1
