@<TRIPOS>MOLECULE
*****
   62    65     0     0     0
SMALL
NO_CHARGES

@<TRIPOS>ATOM
      1 C1          0.3990   -4.7019    7.8958 C.ar      1 <0>         0.0000
      2 C2          3.3515   -8.6617   -0.2662 C.ar      1 <0>         0.0000
      3 C3          1.1611   -3.9386    7.0072 C.ar      1 <0>         0.0000
      4 C4         -0.3226   -5.8021    7.4164 C.ar      1 <0>         0.0000
      5 C5          2.2165   -7.8466   -0.2877 C.ar      1 <0>         0.0000
      6 C6          4.2957   -8.5029    0.7555 C.ar      1 <0>         0.0000
      7 C7          1.6362   -2.2430    0.4376 C.ar      1 <0>         0.0000
      8 C8         -0.2918   -1.9534    1.8203 C.ar      1 <0>         0.0000
      9 C9          1.2020   -4.2694    5.6479 C.ar      1 <0>         0.0000
     10 C10        -0.2775   -6.1305    6.0596 C.ar      1 <0>         0.0000
     11 C11         2.0255   -6.8767    0.7028 C.ar      1 <0>         0.0000
     12 C12         4.1013   -7.5343    1.7430 C.ar      1 <0>         0.0000
     13 C13         1.9645   -3.4135    1.1219 C.ar      1 <0>         0.0000
     14 C14         0.0250   -3.1119    2.5268 C.ar      1 <0>         0.0000
     15 C15         0.5031   -1.4882    0.7632 C.ar      1 <0>         0.0000
     16 C16         0.4828   -5.3666    5.1622 C.ar      1 <0>         0.0000
     17 C17         2.9669   -6.7099    1.7245 C.ar      1 <0>         0.0000
     18 C18         1.1632   -3.8771    2.1869 C.ar      1 <0>         0.0000
     19 C19        -1.5813   -2.7809   -3.9017 C.2       1 <0>         0.0000
     20 C20         0.5433    1.8819   -0.1562 C.3       1 <0>         0.0000
     21 C21         1.2368    0.5934   -0.6738 C.3       1 <0>         0.0000
     22 C22        -0.2943    1.0056    0.8130 C.3       1 <0>         0.0000
     23 C23         0.0990   -0.2595   -0.0202 C.3       1 <0>         0.0000
     24 C24        -2.7906   -2.8384   -4.8061 C.3       1 <0>         0.0000
     25 C25         0.4982   -5.7415    3.6850 C.3       1 <0>         0.0000
     26 C26         2.7977   -5.6446    2.8012 C.3       1 <0>         0.0000
     27 C27        -1.0188   -0.5962   -1.0298 C.3       1 <0>         0.0000
     28 C28        -0.6384   -1.7003   -2.0034 C.3       1 <0>         0.0000
     29 N1          1.4806   -5.0435    2.8792 N.pl3     1 <0>         0.0000
     30 O1         -0.6022   -3.4975   -3.9919 O.2       1 <0>         0.0000
     31 O2         -1.7295   -1.8256   -2.9544 O.3       1 <0>         0.0000
     32 H1          0.3674   -4.4453    8.9516 H         1 <0>         0.0000
     33 H2          3.5003   -9.4145   -1.0361 H         1 <0>         0.0000
     34 H3          1.7243   -3.0824    7.3702 H         1 <0>         0.0000
     35 H4         -0.9154   -6.4046    8.1002 H         1 <0>         0.0000
     36 H5          1.4793   -7.9600   -1.0786 H         1 <0>         0.0000
     37 H6          5.1796   -9.1354    0.7837 H         1 <0>         0.0000
     38 H7          2.2731   -1.9316   -0.3869 H         1 <0>         0.0000
     39 H8         -1.1742   -1.3889    2.1156 H         1 <0>         0.0000
     40 H9          1.7919   -3.6726    4.9585 H         1 <0>         0.0000
     41 H10        -0.8366   -6.9906    5.6942 H         1 <0>         0.0000
     42 H11         1.1440   -6.2431    0.6798 H         1 <0>         0.0000
     43 H12         4.8372   -7.4190    2.5374 H         1 <0>         0.0000
     44 H13         2.8278   -3.9846    0.7976 H         1 <0>         0.0000
     45 H14        -0.5971   -3.4026    3.3667 H         1 <0>         0.0000
     46 H15        -0.0706    2.3647   -0.9216 H         1 <0>         0.0000
     47 H16         1.1885    2.6392    0.2968 H         1 <0>         0.0000
     48 H17         1.3762    0.4976   -1.7551 H         1 <0>         0.0000
     49 H18         2.1989    0.4273   -0.1818 H         1 <0>         0.0000
     50 H19         0.1388    0.9722    1.8166 H         1 <0>         0.0000
     51 H20        -1.3637    1.2262    0.8957 H         1 <0>         0.0000
     52 H21        -3.6465   -3.2270   -4.2452 H         1 <0>         0.0000
     53 H22        -2.5823   -3.4951   -5.6506 H         1 <0>         0.0000
     54 H23        -3.0550   -1.8378   -5.1577 H         1 <0>         0.0000
     55 H24         0.6872   -6.8178    3.5933 H         1 <0>         0.0000
     56 H25        -0.4967   -5.5810    3.2557 H         1 <0>         0.0000
     57 H26         3.0272   -6.0862    3.7784 H         1 <0>         0.0000
     58 H27         3.5413   -4.8537    2.6546 H         1 <0>         0.0000
     59 H28        -1.2842    0.3025   -1.5995 H         1 <0>         0.0000
     60 H29        -1.9165   -0.9022   -0.4797 H         1 <0>         0.0000
     61 H30         0.2789   -1.4691   -2.5524 H         1 <0>         0.0000
     62 H31        -0.4940   -2.6586   -1.5012 H         1 <0>         0.0000
@<TRIPOS>BOND
     1    1    4 ar
     2    1    3 ar
     3    1   32 1
     4    2    6 ar
     5    2    5 ar
     6    2   33 1
     7    3    9 ar
     8    3   34 1
     9    4   10 ar
    10    4   35 1
    11    5   11 ar
    12    5   36 1
    13    6   12 ar
    14    6   37 1
    15    7   13 ar
    16    7   15 ar
    17    7   38 1
    18    8   14 ar
    19    8   15 ar
    20    8   39 1
    21    9   16 ar
    22    9   40 1
    23   10   16 ar
    24   10   41 1
    25   11   17 ar
    26   11   42 1
    27   12   17 ar
    28   12   43 1
    29   13   18 ar
    30   13   44 1
    31   14   18 ar
    32   14   45 1
    33   15   23 1
    34   16   25 1
    35   17   26 1
    36   18   29 1
    37   19   24 1
    38   19   30 2
    39   19   31 1
    40   20   22 1
    41   20   21 1
    42   20   46 1
    43   20   47 1
    44   21   23 1
    45   21   48 1
    46   21   49 1
    47   22   23 1
    48   22   50 1
    49   22   51 1
    50   23   27 1
    51   24   52 1
    52   24   53 1
    53   24   54 1
    54   25   29 1
    55   25   55 1
    56   25   56 1
    57   26   29 1
    58   26   57 1
    59   26   58 1
    60   27   28 1
    61   27   59 1
    62   27   60 1
    63   28   31 1
    64   28   61 1
    65   28   62 1
