@<TRIPOS>MOLECULE
*****
   43    44     0     0     0
SMALL
NO_CHARGES

@<TRIPOS>ATOM
      1 C1          4.1458   -3.2551   -3.5127 C.ar      1 <0>         0.0000
      2 C2          3.6450   -2.1945   -4.2768 C.ar      1 <0>         0.0000
      3 C3          3.5906   -3.5539   -2.2631 C.ar      1 <0>         0.0000
      4 C4          2.5880   -1.4205   -3.7916 C.ar      1 <0>         0.0000
      5 C5          2.5340   -2.7872   -1.7650 C.ar      1 <0>         0.0000
      6 C6          0.9804    1.0171    3.0893 C.2       1 <0>         0.0000
      7 C7         -0.4362    0.3574    1.6778 C.2       1 <0>         0.0000
      8 C8          2.0535   -1.7275   -2.5379 C.ar      1 <0>         0.0000
      9 C9          0.8523    5.2411   -1.6132 C.3       1 <0>         0.0000
     10 C10         1.3454    3.2147   -3.0065 C.3       1 <0>         0.0000
     11 C11        -0.9604    3.5688   -2.0732 C.3       1 <0>         0.0000
     12 C12         1.5998    0.6235   -1.0320 C.3       1 <0>         0.0000
     13 C13         0.5630    1.5407   -0.3525 C.3       1 <0>         0.0000
     14 C14         0.9209    3.0447   -0.4637 C.3       1 <0>         0.0000
     15 C15         0.5460    3.7406   -1.7988 C.3       1 <0>         0.0000
     16 N1         -0.1346    0.2436    2.9670 N.2       1 <0>         0.0000
     17 N2          1.3817    1.5978    1.9625 N.2       1 <0>         0.0000
     18 N3          0.4474    1.1725    1.0601 N.pl3     1 <0>         0.0000
     19 O1          0.0027   -0.0972   -3.0186 O.2       1 <0>         0.0000
     20 O2         -0.0156   -1.4887   -0.8761 O.2       1 <0>         0.0000
     21 O3          2.3088    3.2349   -0.2052 O.3       1 <0>         0.0000
     22 S1          0.7246   -0.7140   -1.8894 S.o2      1 <0>         0.0000
     23 H1          4.9667   -3.8554   -3.8958 H         1 <0>         0.0000
     24 H2          4.0713   -1.9750   -5.2515 H         1 <0>         0.0000
     25 H3          3.9749   -4.3861   -1.6800 H         1 <0>         0.0000
     26 H4          2.1684   -0.6073   -4.3762 H         1 <0>         0.0000
     27 H5          2.0735   -3.0118   -0.8076 H         1 <0>         0.0000
     28 H6          1.5093    1.1617    4.0226 H         1 <0>         0.0000
     29 H7         -1.2433   -0.1358    1.1534 H         1 <0>         0.0000
     30 H8          0.2794    5.6614   -0.7782 H         1 <0>         0.0000
     31 H9          1.9134    5.4035   -1.4112 H         1 <0>         0.0000
     32 H10         0.5806    5.7951   -2.5180 H         1 <0>         0.0000
     33 H11         1.0385    2.2048   -3.2928 H         1 <0>         0.0000
     34 H12         2.4208    3.2283   -2.8040 H         1 <0>         0.0000
     35 H13         1.1628    3.8603   -3.8725 H         1 <0>         0.0000
     36 H14        -1.2180    2.5438   -2.3568 H         1 <0>         0.0000
     37 H15        -1.5647    3.8540   -1.2033 H         1 <0>         0.0000
     38 H16        -1.2602    4.2140   -2.9054 H         1 <0>         0.0000
     39 H17         2.1973    1.1481   -1.7733 H         1 <0>         0.0000
     40 H18         2.2652    0.1682   -0.2975 H         1 <0>         0.0000
     41 H19        -0.4271    1.3847   -0.7823 H         1 <0>         0.0000
     42 H20         0.3273    3.5426    0.3168 H         1 <0>         0.0000
     43 H21         2.4546    2.9229    0.7095 H         1 <0>         0.0000
@<TRIPOS>BOND
     1    1    3 ar
     2    1    2 ar
     3    1   23 1
     4    2    4 ar
     5    2   24 1
     6    3    5 ar
     7    3   25 1
     8    4    8 ar
     9    4   26 1
    10    5    8 ar
    11    5   27 1
    12    6   16 1
    13    6   17 2
    14    6   28 1
    15    7   16 2
    16    7   18 1
    17    7   29 1
    18    8   22 1
    19    9   15 1
    20    9   30 1
    21    9   31 1
    22    9   32 1
    23   10   15 1
    24   10   33 1
    25   10   34 1
    26   10   35 1
    27   11   15 1
    28   11   36 1
    29   11   37 1
    30   11   38 1
    31   12   13 1
    32   12   22 1
    33   12   39 1
    34   12   40 1
    35   13   14 1
    36   13   18 1
    37   13   41 1
    38   14   15 1
    39   14   21 1
    40   14   42 1
    41   17   18 1
    42   19   22 2
    43   20   22 2
    44   21   43 1
