@<TRIPOS>MOLECULE
*****
   15    14     0     0     0
SMALL
NO_CHARGES

@<TRIPOS>ATOM
      1 C1          0.5712    1.3120    0.6067 C.2       1 <0>         0.0000
      2 C2         -0.2262    0.3006    0.2654 C.2       1 <0>         0.0000
      3 C3         -0.1351   -1.0662    0.8904 C.2       1 <0>         0.0000
      4 O1          0.6717   -1.3362    1.7511 O.2       1 <0>         0.0000
      5 O2         -1.9164    2.9343   -0.6589 O.2       1 <0>         0.0000
      6 O3         -1.0167   -1.9762    0.4200 O.3       1 <0>         0.0000
      7 O4         -3.2177    1.0093    0.5663 O.3       1 <0>         0.0000
      8 O5         -3.2434    1.0839   -1.9503 O.3       1 <0>         0.0000
      9 O6         -1.2083    0.3848   -0.7432 O.3       1 <0>         0.0000
     10 P1         -2.3593    1.5275   -0.6873 P.3       1 <0>         0.0000
     11 H1          0.4871    2.2890    0.1438 H         1 <0>         0.0000
     12 H2          1.3093    1.1404    1.3820 H         1 <0>         0.0000
     13 H3         -1.5753   -1.5570   -0.2619 H         1 <0>         0.0000
     14 H4         -3.6632    1.7331    1.0396 H         1 <0>         0.0000
     15 H5         -3.1033    1.6709   -2.7135 H         1 <0>         0.0000
@<TRIPOS>BOND
     1    1    2 2
     2    1   11 1
     3    1   12 1
     4    2    3 1
     5    2    9 1
     6    3    4 2
     7    3    6 1
     8    5   10 2
     9    6   13 1
    10    7   10 1
    11    7   14 1
    12    8   10 1
    13    8   15 1
    14    9   10 1
