@<TRIPOS>MOLECULE
*****
   15    14     0     0     0
SMALL
NO_CHARGES

@<TRIPOS>ATOM
      1 C1          1.2221    0.7920    0.0070 C.2       1 <0>         0.0000
      2 C2          0.1441    0.0557   -0.2585 C.2       1 <0>         0.0000
      3 C3         -0.5896   -0.7201    0.8052 C.2       1 <0>         0.0000
      4 O1         -0.2546   -0.7072    1.9679 O.2       1 <0>         0.0000
      5 O2         -1.2886    0.4486   -3.8726 O.2       1 <0>         0.0000
      6 O3         -1.6536   -1.4325    0.3724 O.3       1 <0>         0.0000
      7 O4          1.2360    0.7338   -3.1445 O.3       1 <0>         0.0000
      8 O5         -0.4654    2.3344   -2.2580 O.3       1 <0>         0.0000
      9 O6         -0.4437   -0.1229   -1.5187 O.3       1 <0>         0.0000
     10 P1         -0.3336    0.8298   -2.8208 P.3       1 <0>         0.0000
     11 H1          1.7629    1.3420   -0.7537 H         1 <0>         0.0000
     12 H2          1.5615    0.8304    1.0355 H         1 <0>         0.0000
     13 H3         -1.7448   -1.3218   -0.5935 H         1 <0>         0.0000
     14 H4          1.4407    0.9414   -4.0731 H         1 <0>         0.0000
     15 H5         -1.3687    2.6819   -2.3613 H         1 <0>         0.0000
@<TRIPOS>BOND
     1    1    2 2
     2    1   11 1
     3    1   12 1
     4    2    3 1
     5    2    9 1
     6    3    4 2
     7    3    6 1
     8    5   10 2
     9    6   13 1
    10    7   10 1
    11    7   14 1
    12    8   10 1
    13    8   15 1
    14    9   10 1
