@<TRIPOS>MOLECULE
*****
   15    14     0     0     0
SMALL
NO_CHARGES

@<TRIPOS>ATOM
      1 C1          0.2909    1.4349    0.6586 C.2       1 <0>         0.0000
      2 C2         -0.3103    0.4335    0.0120 C.2       1 <0>         0.0000
      3 C3          0.1555   -0.9814    0.1456 C.2       1 <0>         0.0000
      4 O1          1.1015   -1.3193    0.8322 O.2       1 <0>         0.0000
      5 O2         -0.9954    2.9298   -1.9920 O.2       1 <0>         0.0000
      6 O3         -0.5887   -1.8450   -0.5785 O.3       1 <0>         0.0000
      7 O4         -2.7415    1.1744   -2.8154 O.3       1 <0>         0.0000
      8 O5         -0.2720    0.6312   -3.0065 O.3       1 <0>         0.0000
      9 O6         -1.4303    0.6114   -0.8013 O.3       1 <0>         0.0000
     10 P1         -1.3194    1.4955   -2.1447 P.3       1 <0>         0.0000
     11 H1         -0.0475    2.4594    0.5478 H         1 <0>         0.0000
     12 H2          1.1426    1.2116    1.2907 H         1 <0>         0.0000
     13 H3         -0.1987   -2.7274   -0.4280 H         1 <0>         0.0000
     14 H4         -3.3282    1.9491   -2.7793 H         1 <0>         0.0000
     15 H5          0.2584    1.1973   -3.5929 H         1 <0>         0.0000
@<TRIPOS>BOND
     1    1    2 2
     2    1   11 1
     3    1   12 1
     4    2    3 1
     5    2    9 1
     6    3    4 2
     7    3    6 1
     8    5   10 2
     9    6   13 1
    10    7   10 1
    11    7   14 1
    12    8   10 1
    13    8   15 1
    14    9   10 1
