@<TRIPOS>MOLECULE
*****
   15    14     0     0     0
SMALL
NO_CHARGES

@<TRIPOS>ATOM
      1 C1          0.1287    1.5078    0.6152 C.2       1 <0>         0.0000
      2 C2         -0.3221    0.4111   -0.0006 C.2       1 <0>         0.0000
      3 C3          0.2115   -0.9685    0.2132 C.2       1 <0>         0.0000
      4 O1         -0.1849   -1.9568   -0.3653 O.2       1 <0>         0.0000
      5 O2         -1.1359    2.7372   -2.1486 O.2       1 <0>         0.0000
      6 O3          1.2054   -0.9952    1.1425 O.3       1 <0>         0.0000
      7 O4         -2.6137    0.7704   -3.0147 O.3       1 <0>         0.0000
      8 O5         -0.0937    0.5058   -3.0288 O.3       1 <0>         0.0000
      9 O6         -1.3835    0.4245   -0.9004 O.3       1 <0>         0.0000
     10 P1         -1.2848    1.2707   -2.2686 P.3       1 <0>         0.0000
     11 H1         -0.2978    2.4829    0.4035 H         1 <0>         0.0000
     12 H2          0.9438    1.4258    1.3238 H         1 <0>         0.0000
     13 H3          1.4836   -1.9283    1.2079 H         1 <0>         0.0000
     14 H4         -3.2972    1.4621   -3.0165 H         1 <0>         0.0000
     15 H5          0.3839    1.0996   -3.6329 H         1 <0>         0.0000
@<TRIPOS>BOND
     1    1    2 2
     2    1   11 1
     3    1   12 1
     4    2    3 1
     5    2    9 1
     6    3    4 2
     7    3    6 1
     8    5   10 2
     9    6   13 1
    10    7   10 1
    11    7   14 1
    12    8   10 1
    13    8   15 1
    14    9   10 1
