@<TRIPOS>MOLECULE
*****
   25    26     0     0     0
SMALL
NO_CHARGES

@<TRIPOS>ATOM
      1 C1          2.7015   -1.9409    2.3982 C.ar      1 <0>         0.0000
      2 C2          1.7366   -1.0220    2.7954 C.ar      1 <0>         0.0000
      3 C3          2.8675   -2.2277    1.0447 C.ar      1 <0>         0.0000
      4 C4         -3.8707    3.8244    0.3335 C.2       1 <0>         0.0000
      5 C5          0.9108   -0.3565    1.8662 C.ar      1 <0>         0.0000
      6 C6          2.0578   -1.5909    0.1005 C.ar      1 <0>         0.0000
      7 C7          1.0802   -0.6604    0.4927 C.ar      1 <0>         0.0000
      8 C8         -2.6791    2.8147    1.8370 C.2       1 <0>         0.0000
      9 C9         -0.0499    0.5865    2.4483 C.2       1 <0>         0.0000
     10 N1         -4.6248    3.6801    1.3941 N.2       1 <0>         0.0000
     11 N2         -3.8655    3.0189    2.3599 N.2       1 <0>         0.0000
     12 N3         -0.8111    1.3833    1.7852 N.2       1 <0>         0.0000
     13 N4         -2.6149    3.3041    0.5565 N.pl3     1 <0>         0.0000
     14 N5         -1.5389    3.3565   -0.3499 N.3       1 <0>         0.0000
     15 N6         -1.6001    2.2403    2.5020 N.pl3     1 <0>         0.0000
     16 Cl1         2.3003   -1.9970   -1.5808 Cl        1 <0>         0.0000
     17 Cl2         0.0890    0.0684   -0.7435 Cl        1 <0>         0.0000
     18 H1          3.3250   -2.4350    3.1371 H         1 <0>         0.0000
     19 H2          1.6109   -0.7995    3.8517 H         1 <0>         0.0000
     20 H3          3.6128   -2.9410    0.7088 H         1 <0>         0.0000
     21 H4         -4.1503    4.2746   -0.6091 H         1 <0>         0.0000
     22 H5         -0.0734    0.5879    3.5458 H         1 <0>         0.0000
     23 H6         -1.1145    2.4289   -0.3675 H         1 <0>         0.0000
     24 H7         -0.8401    3.9947    0.0332 H         1 <0>         0.0000
     25 H8         -1.8190    2.0040    3.4719 H         1 <0>         0.0000
@<TRIPOS>BOND
     1    1    2 ar
     2    1    3 ar
     3    1   18 1
     4    2    5 ar
     5    2   19 1
     6    3    6 ar
     7    3   20 1
     8    4   10 2
     9    4   13 1
    10    4   21 1
    11    5    7 ar
    12    5    9 1
    13    6    7 ar
    14    6   16 1
    15    7   17 1
    16    8   11 2
    17    8   13 1
    18    8   15 1
    19    9   12 2
    20    9   22 1
    21   10   11 1
    22   12   15 1
    23   13   14 1
    24   14   23 1
    25   14   24 1
    26   15   25 1
