@<TRIPOS>MOLECULE
*****
   15    14     0     0     0
SMALL
NO_CHARGES

@<TRIPOS>ATOM
      1 C1          0.3783    1.6309    0.4592 C.2       1 <0>         0.0000
      2 C2         -0.2275    0.5551   -0.0525 C.2       1 <0>         0.0000
      3 C3         -0.0955   -0.8147    0.5222 C.2       1 <0>         0.0000
      4 O1         -0.6359   -1.8072    0.0509 O.2       1 <0>         0.0000
      5 O2         -3.2367    0.4708    0.0337 O.2       1 <0>         0.0000
      6 O3          0.6826   -0.8716    1.6193 O.3       1 <0>         0.0000
      7 O4         -2.5605   -1.2410   -1.8860 O.3       1 <0>         0.0000
      8 O5         -3.0793    1.0602   -2.5151 O.3       1 <0>         0.0000
      9 O6         -0.9634    0.6335   -1.2168 O.3       1 <0>         0.0000
     10 P1         -2.5595    0.2196   -1.2541 P.3       1 <0>         0.0000
     11 H1          0.2494    2.6038   -0.0038 H         1 <0>         0.0000
     12 H2          1.0118    1.5398    1.3326 H         1 <0>         0.0000
     13 H3          0.6827   -1.8032    1.9125 H         1 <0>         0.0000
     14 H4         -1.9550   -1.8154   -1.3665 H         1 <0>         0.0000
     15 H5         -3.6112    1.8206   -2.2252 H         1 <0>         0.0000
@<TRIPOS>BOND
     1    1    2 2
     2    1   11 1
     3    1   12 1
     4    2    3 1
     5    2    9 1
     6    3    4 2
     7    3    6 1
     8    5   10 2
     9    6   13 1
    10    7   10 1
    11    7   14 1
    12    8   10 1
    13    8   15 1
    14    9   10 1
