@<TRIPOS>MOLECULE
*****
   35    36     0     0     0
SMALL
NO_CHARGES

@<TRIPOS>ATOM
      1 C1          3.3640   -3.2493    0.5022 C.2       1 <0>         0.0000
      2 C2          2.4493   -3.4614    1.5514 C.2       1 <0>         0.0000
      3 C3         -0.6933   -1.8216   -0.7426 C.2       1 <0>         0.0000
      4 C4          1.4412    1.2674   -0.8406 C.3       1 <0>         0.0000
      5 C5          1.0297   -0.1071   -1.3914 C.3       1 <0>         0.0000
      6 C6         -1.1094    0.5530   -0.3397 C.3       1 <0>         0.0000
      7 C7         -0.4533    1.3664    0.8027 C.3       1 <0>         0.0000
      8 C8          1.1025    1.4027    0.6480 C.3       1 <0>         0.0000
      9 C9         -0.9414    0.8851    2.1749 C.3       1 <0>         0.0000
     10 C10         1.8355    0.3322    1.4680 C.3       1 <0>         0.0000
     11 C11         0.2858   -2.9332   -1.1617 C.3       1 <0>         0.0000
     12 N1          2.6749   -3.0188   -0.6226 N.2       1 <0>         0.0000
     13 N2          1.2073   -3.3581    1.0626 N.2       1 <0>         0.0000
     14 N3          1.3973   -3.0938   -0.2311 N.pl3     1 <0>         0.0000
     15 N4         -0.2381   -0.5364   -0.7802 N.am      1 <0>         0.0000
     16 O1         -1.8310   -2.1336   -0.3907 O.2       1 <0>         0.0000
     17 O2          1.6003    2.7039    1.0229 O.3       1 <0>         0.0000
     18 H1          4.4454   -3.2511    0.5014 H         1 <0>         0.0000
     19 H2          2.6188   -3.6733    2.5983 H         1 <0>         0.0000
     20 H3          2.5159    1.4085   -0.9860 H         1 <0>         0.0000
     21 H4          0.9389    2.0747   -1.3829 H         1 <0>         0.0000
     22 H5          0.9226   -0.0502   -2.4838 H         1 <0>         0.0000
     23 H6          1.8106   -0.8340   -1.1764 H         1 <0>         0.0000
     24 H7         -2.0540    0.1126   -0.0236 H         1 <0>         0.0000
     25 H8         -1.3191    1.2011   -1.1996 H         1 <0>         0.0000
     26 H9         -0.7699    2.4071    0.6707 H         1 <0>         0.0000
     27 H10        -0.7399   -0.1798    2.3244 H         1 <0>         0.0000
     28 H11        -2.0227    1.0318    2.2622 H         1 <0>         0.0000
     29 H12        -0.4717    1.4385    2.9968 H         1 <0>         0.0000
     30 H13         1.7260    0.5171    2.5415 H         1 <0>         0.0000
     31 H14         2.9034    0.3558    1.2312 H         1 <0>         0.0000
     32 H15         1.4543   -0.6718    1.2748 H         1 <0>         0.0000
     33 H16         0.7295   -2.7543   -2.1416 H         1 <0>         0.0000
     34 H17        -0.2935   -3.8564   -1.1858 H         1 <0>         0.0000
     35 H18         1.4595    2.8118    1.9774 H         1 <0>         0.0000
@<TRIPOS>BOND
     1    1    2 1
     2    1   12 2
     3    1   18 1
     4    2   13 2
     5    2   19 1
     6    3   11 1
     7    3   15 am
     8    3   16 2
     9    4    5 1
    10    4    8 1
    11    4   20 1
    12    4   21 1
    13    5   15 1
    14    5   22 1
    15    5   23 1
    16    6    7 1
    17    6   15 1
    18    6   24 1
    19    6   25 1
    20    7    8 1
    21    7    9 1
    22    7   26 1
    23    8   10 1
    24    8   17 1
    25    9   27 1
    26    9   28 1
    27    9   29 1
    28   10   30 1
    29   10   31 1
    30   10   32 1
    31   11   14 1
    32   11   33 1
    33   11   34 1
    34   12   14 1
    35   13   14 1
    36   17   35 1
