@<TRIPOS>MOLECULE
*****
   25    26     0     0     0
SMALL
NO_CHARGES

@<TRIPOS>ATOM
      1 C1          2.5501   -2.0846    2.2554 C.ar      1 <0>         0.0000
      2 C2          1.5669   -1.2886    2.8323 C.ar      1 <0>         0.0000
      3 C3          2.9011   -1.8921    0.9207 C.ar      1 <0>         0.0000
      4 C4         -3.5181    4.5066    1.5848 C.2       1 <0>         0.0000
      5 C5          0.9043   -0.2764    2.1079 C.ar      1 <0>         0.0000
      6 C6          2.2563   -0.9021    0.1745 C.ar      1 <0>         0.0000
      7 C7          1.2614   -0.0926    0.7491 C.ar      1 <0>         0.0000
      8 C8         -2.5673    2.9579    2.7670 C.2       1 <0>         0.0000
      9 C9         -0.1015    0.4760    2.8649 C.2       1 <0>         0.0000
     10 N1         -4.4135    4.0566    2.4275 N.2       1 <0>         0.0000
     11 N2         -3.8090    3.0505    3.1818 N.2       1 <0>         0.0000
     12 N3         -0.7452    1.5043    2.4379 N.2       1 <0>         0.0000
     13 N4         -2.3170    3.8551    1.7591 N.pl3     1 <0>         0.0000
     14 N5         -1.1260    4.1427    1.0656 N.3       1 <0>         0.0000
     15 N6         -1.6029    2.1153    3.3112 N.pl3     1 <0>         0.0000
     16 Cl1         2.7271   -0.7115   -1.4965 Cl        1 <0>         0.0000
     17 Cl2         0.4839    1.1012   -0.2569 Cl        1 <0>         0.0000
     18 H1          3.0448   -2.8544    2.8400 H         1 <0>         0.0000
     19 H2          1.2969   -1.4407    3.8739 H         1 <0>         0.0000
     20 H3          3.6647   -2.5000    0.4470 H         1 <0>         0.0000
     21 H4         -3.6555    5.2737    0.8351 H         1 <0>         0.0000
     22 H5         -0.2748    0.1010    3.8821 H         1 <0>         0.0000
     23 H6         -0.7244    3.2513    0.7742 H         1 <0>         0.0000
     24 H7         -0.4719    4.5591    1.7299 H         1 <0>         0.0000
     25 H8         -1.9579    1.5741    4.1021 H         1 <0>         0.0000
@<TRIPOS>BOND
     1    1    2 ar
     2    1    3 ar
     3    1   18 1
     4    2    5 ar
     5    2   19 1
     6    3    6 ar
     7    3   20 1
     8    4   10 2
     9    4   13 1
    10    4   21 1
    11    5    7 ar
    12    5    9 1
    13    6    7 ar
    14    6   16 1
    15    7   17 1
    16    8   11 2
    17    8   13 1
    18    8   15 1
    19    9   12 2
    20    9   22 1
    21   10   11 1
    22   12   15 1
    23   13   14 1
    24   14   23 1
    25   14   24 1
    26   15   25 1
