@<TRIPOS>MOLECULE
*****
   15    14     0     0     0
SMALL
NO_CHARGES

@<TRIPOS>ATOM
      1 C1          0.4052    1.2723    0.6027 C.2       1 <0>         0.0000
      2 C2         -0.0984    0.2085   -0.0304 C.2       1 <0>         0.0000
      3 C3          0.2115   -1.2008    0.3511 C.2       1 <0>         0.0000
      4 O1         -0.4276   -2.1703   -0.0366 O.2       1 <0>         0.0000
      5 O2         -3.1172    0.4594   -2.4341 O.2       1 <0>         0.0000
      6 O3          1.2656   -1.3154    1.1813 O.3       1 <0>         0.0000
      7 O4         -2.9569    1.4677   -0.0421 O.3       1 <0>         0.0000
      8 O5         -2.8982   -0.9915   -0.2158 O.3       1 <0>         0.0000
      9 O6         -0.9198    0.3284   -1.1344 O.3       1 <0>         0.0000
     10 P1         -2.5577    0.2998   -1.0832 P.3       1 <0>         0.0000
     11 H1          0.1229    2.2754    0.3008 H         1 <0>         0.0000
     12 H2          1.0985    1.1431    1.4250 H         1 <0>         0.0000
     13 H3          1.3515   -2.2648    1.3951 H         1 <0>         0.0000
     14 H4         -3.4062    2.1924   -0.5101 H         1 <0>         0.0000
     15 H5         -2.2155   -1.6968   -0.3031 H         1 <0>         0.0000
@<TRIPOS>BOND
     1    1    2 2
     2    1   11 1
     3    1   12 1
     4    2    3 1
     5    2    9 1
     6    3    4 2
     7    3    6 1
     8    5   10 2
     9    6   13 1
    10    7   10 1
    11    7   14 1
    12    8   10 1
    13    8   15 1
    14    9   10 1
