@<TRIPOS>MOLECULE
*****
   15    14     0     0     0
SMALL
NO_CHARGES

@<TRIPOS>ATOM
      1 C1          1.1919    1.2274   -0.1864 C.2       1 <0>         0.0000
      2 C2          0.1159    0.4376   -0.2516 C.2       1 <0>         0.0000
      3 C3         -0.1727   -0.6453    0.7342 C.2       1 <0>         0.0000
      4 O1         -1.2599   -1.1970    0.8451 O.2       1 <0>         0.0000
      5 O2         -2.9410    1.2728   -2.4680 O.2       1 <0>         0.0000
      6 O3          0.8803   -0.9610    1.5120 O.3       1 <0>         0.0000
      7 O4         -1.7450    2.8827   -0.8123 O.3       1 <0>         0.0000
      8 O5         -2.8691    0.9181    0.1669 O.3       1 <0>         0.0000
      9 O6         -0.8045    0.5291   -1.2774 O.3       1 <0>         0.0000
     10 P1         -2.2011    1.3834   -1.2016 P.3       1 <0>         0.0000
     11 H1          1.3372    2.0187   -0.9142 H         1 <0>         0.0000
     12 H2          1.9286    1.0866    0.5953 H         1 <0>         0.0000
     13 H3          0.5704   -1.6429    2.1392 H         1 <0>         0.0000
     14 H4         -1.9117    3.4860   -1.5566 H         1 <0>         0.0000
     15 H5         -2.6325   -0.0077    0.4080 H         1 <0>         0.0000
@<TRIPOS>BOND
     1    1    2 2
     2    1   11 1
     3    1   12 1
     4    2    3 1
     5    2    9 1
     6    3    4 2
     7    3    6 1
     8    5   10 2
     9    6   13 1
    10    7   10 1
    11    7   14 1
    12    8   10 1
    13    8   15 1
    14    9   10 1
