@<TRIPOS>MOLECULE
*****
   38    40     0     0     0
SMALL
NO_CHARGES

@<TRIPOS>ATOM
      1 C1          2.4675   -0.5683    0.1521 C.ar      1 <0>         0.0000
      2 C2          2.5666   -2.1985    1.9196 C.ar      1 <0>         0.0000
      3 C3          1.3842    0.0543    0.7754 C.ar      1 <0>         0.0000
      4 C4          1.4777   -1.5973    2.5488 C.ar      1 <0>         0.0000
      5 C5         -2.1823    1.0342    3.1916 C.2       1 <0>         0.0000
      6 C6          3.0774   -1.7006    0.7102 C.ar      1 <0>         0.0000
      7 C7          0.8835   -0.4727    1.9680 C.ar      1 <0>         0.0000
      8 C8         -1.3293    0.8814    4.3332 C.2       1 <0>         0.0000
      9 C9         -1.4227    0.5332    2.1335 C.2       1 <0>         0.0000
     10 C10        -6.0099    3.4109    4.7542 C.2       1 <0>         0.0000
     11 C11        -6.4800    2.0268    3.1165 C.2       1 <0>         0.0000
     12 C12        -3.5212    1.5584    3.0908 C.2       1 <0>         0.0000
     13 C13         4.2736   -2.3463    0.0512 C.3       1 <0>         0.0000
     14 C14        -1.6122    1.2507    5.7534 C.3       1 <0>         0.0000
     15 C15        -5.2504    4.1346    5.8105 C.3       1 <0>         0.0000
     16 N1         -0.1653    0.3431    3.9880 N.2       1 <0>         0.0000
     17 N2         -7.2686    3.5845    4.4278 N.2       1 <0>         0.0000
     18 N3         -7.5706    2.7023    3.3946 N.2       1 <0>         0.0000
     19 N4         -4.1482    1.9956    4.1325 N.2       1 <0>         0.0000
     20 N5         -0.2221    0.1371    2.6294 N.pl3     1 <0>         0.0000
     21 N6         -5.4441    2.4425    3.9416 N.pl3     1 <0>         0.0000
     22 S1         -6.3787    0.6966    1.9609 S.3       1 <0>         0.0000
     23 Cl1        -1.8906    0.3340    0.4880 Cl        1 <0>         0.0000
     24 H1          2.8502   -0.1554   -0.7781 H         1 <0>         0.0000
     25 H2          3.0232   -3.0748    2.3739 H         1 <0>         0.0000
     26 H3          0.9436    0.9458    0.3419 H         1 <0>         0.0000
     27 H4          1.0860   -1.9834    3.4839 H         1 <0>         0.0000
     28 H5         -3.9598    1.5813    2.0899 H         1 <0>         0.0000
     29 H6          5.2076   -1.9632    0.4795 H         1 <0>         0.0000
     30 H7          4.2698   -3.4311    0.1929 H         1 <0>         0.0000
     31 H8          4.2965   -2.1440   -1.0233 H         1 <0>         0.0000
     32 H9         -2.5072    0.7366    6.1159 H         1 <0>         0.0000
     33 H10        -0.7572    0.9842    6.3785 H         1 <0>         0.0000
     34 H11        -1.8084    2.3232    5.8439 H         1 <0>         0.0000
     35 H12        -4.8187    3.4341    6.5319 H         1 <0>         0.0000
     36 H13        -4.4276    4.7160    5.3818 H         1 <0>         0.0000
     37 H14        -5.9345    4.8107    6.3254 H         1 <0>         0.0000
     38 H15        -7.7204    0.6143    1.8534 H         1 <0>         0.0000
@<TRIPOS>BOND
     1    1    3 ar
     2    1    6 ar
     3    1   24 1
     4    2    4 ar
     5    2    6 ar
     6    2   25 1
     7    3    7 ar
     8    3   26 1
     9    4    7 ar
    10    4   27 1
    11    5    8 1
    12    5    9 2
    13    5   12 1
    14    6   13 1
    15    7   20 1
    16    8   14 1
    17    8   16 2
    18    9   20 1
    19    9   23 1
    20   10   15 1
    21   10   17 2
    22   10   21 1
    23   11   18 2
    24   11   21 1
    25   11   22 1
    26   12   19 2
    27   12   28 1
    28   13   29 1
    29   13   30 1
    30   13   31 1
    31   14   32 1
    32   14   33 1
    33   14   34 1
    34   15   35 1
    35   15   36 1
    36   15   37 1
    37   16   20 1
    38   17   18 1
    39   19   21 1
    40   22   38 1
