@<TRIPOS>MOLECULE
*****
   35    36     0     0     0
SMALL
NO_CHARGES

@<TRIPOS>ATOM
      1 C1          3.6894   -3.5484   -3.9765 C.2       1 <0>         0.0000
      2 C2          3.5722   -4.6753   -3.1382 C.2       1 <0>         0.0000
      3 C3          1.4623   -1.8600   -0.8065 C.2       1 <0>         0.0000
      4 C4          0.7176    1.1084    0.5856 C.3       1 <0>         0.0000
      5 C5          0.9313   -0.3434    1.0289 C.3       1 <0>         0.0000
      6 C6         -0.8922   -1.0820   -0.4246 C.3       1 <0>         0.0000
      7 C7         -1.1717    0.3538   -0.9081 C.3       1 <0>         0.0000
      8 C8         -0.7326    1.4005    0.1532 C.3       1 <0>         0.0000
      9 C9         -2.6285    0.5040   -1.3552 C.3       1 <0>         0.0000
     10 C10        -1.6720    1.4555    1.3608 C.3       1 <0>         0.0000
     11 C11         0.9455   -2.6795   -2.0087 C.3       1 <0>         0.0000
     12 N1          2.7041   -2.6932   -3.6816 N.2       1 <0>         0.0000
     13 N2          2.5162   -4.5021   -2.3358 N.2       1 <0>         0.0000
     14 N3          2.0336   -3.3151   -2.7088 N.pl3     1 <0>         0.0000
     15 N4          0.5035   -1.2596   -0.0317 N.am      1 <0>         0.0000
     16 O1          2.6631   -1.7898   -0.5695 O.2       1 <0>         0.0000
     17 O2         -0.8066    2.7228   -0.4143 O.3       1 <0>         0.0000
     18 H1          4.4068   -3.3252   -4.7543 H         1 <0>         0.0000
     19 H2          4.1731   -5.5727   -3.0820 H         1 <0>         0.0000
     20 H3          1.0010    1.7970    1.3886 H         1 <0>         0.0000
     21 H4          1.3897    1.3029   -0.2611 H         1 <0>         0.0000
     22 H5          1.9820   -0.5378    1.2389 H         1 <0>         0.0000
     23 H6          0.3533   -0.5669    1.9332 H         1 <0>         0.0000
     24 H7         -1.5268   -1.3146    0.4397 H         1 <0>         0.0000
     25 H8         -1.1662   -1.7948   -1.2022 H         1 <0>         0.0000
     26 H9         -0.5252    0.5216   -1.7830 H         1 <0>         0.0000
     27 H10        -3.3257    0.1882   -0.5720 H         1 <0>         0.0000
     28 H11        -2.8265   -0.1107   -2.2402 H         1 <0>         0.0000
     29 H12        -2.8488    1.5447   -1.6062 H         1 <0>         0.0000
     30 H13        -2.6640    1.7966    1.0570 H         1 <0>         0.0000
     31 H14        -1.2830    2.1675    2.0939 H         1 <0>         0.0000
     32 H15        -1.7755    0.4830    1.8485 H         1 <0>         0.0000
     33 H16         0.4315   -2.0349   -2.7242 H         1 <0>         0.0000
     34 H17         0.2597   -3.4617   -1.6777 H         1 <0>         0.0000
     35 H18        -0.1345    2.7874   -1.1124 H         1 <0>         0.0000
@<TRIPOS>BOND
     1    1    2 1
     2    1   12 2
     3    1   18 1
     4    2   13 2
     5    2   19 1
     6    3   11 1
     7    3   15 am
     8    3   16 2
     9    4    5 1
    10    4    8 1
    11    4   20 1
    12    4   21 1
    13    5   15 1
    14    5   22 1
    15    5   23 1
    16    6    7 1
    17    6   15 1
    18    6   24 1
    19    6   25 1
    20    7    8 1
    21    7    9 1
    22    7   26 1
    23    8   10 1
    24    8   17 1
    25    9   27 1
    26    9   28 1
    27    9   29 1
    28   10   30 1
    29   10   31 1
    30   10   32 1
    31   11   14 1
    32   11   33 1
    33   11   34 1
    34   12   14 1
    35   13   14 1
    36   17   35 1
