@<TRIPOS>MOLECULE
*****
   38    40     0     0     0
SMALL
NO_CHARGES

@<TRIPOS>ATOM
      1 C1          1.8287   -2.5360    0.8423 C.ar      1 <0>         0.0000
      2 C2          3.0433   -0.4710    1.0662 C.ar      1 <0>         0.0000
      3 C3          0.7215   -1.9631    1.4712 C.ar      1 <0>         0.0000
      4 C4          1.9427    0.1210    1.6836 C.ar      1 <0>         0.0000
      5 C5         -2.3319    0.7756    3.1149 C.2       1 <0>         0.0000
      6 C6          3.0043   -1.8035    0.6256 C.ar      1 <0>         0.0000
      7 C7          0.7775   -0.6275    1.8768 C.ar      1 <0>         0.0000
      8 C8         -1.3062    1.2272    4.0090 C.2       1 <0>         0.0000
      9 C9         -1.6475   -0.0054    2.1842 C.2       1 <0>         0.0000
     10 C10        -6.7494    1.5274    3.3617 C.2       1 <0>         0.0000
     11 C11        -6.1370    2.9727    4.8999 C.2       1 <0>         0.0000
     12 C12        -3.7499    1.0450    3.1119 C.2       1 <0>         0.0000
     13 C13         4.1895   -2.4217   -0.0780 C.3       1 <0>         0.0000
     14 C14        -1.4483    2.1064    5.2090 C.3       1 <0>         0.0000
     15 C15        -6.7811    0.4436    2.3370 C.3       1 <0>         0.0000
     16 N1         -0.1186    0.7555    3.6454 N.2       1 <0>         0.0000
     17 N2         -7.8187    2.1395    3.8110 N.2       1 <0>         0.0000
     18 N3         -7.4383    3.0637    4.7825 N.2       1 <0>         0.0000
     19 N4         -4.2745    1.7768    4.0354 N.2       1 <0>         0.0000
     20 N5         -0.3323   -0.0124    2.5253 N.pl3     1 <0>         0.0000
     21 N6         -5.6268    2.0316    4.0287 N.pl3     1 <0>         0.0000
     22 S1         -5.0818    3.8767    5.9781 S.3       1 <0>         0.0000
     23 Cl1        -2.2762   -0.7814    0.7782 Cl        1 <0>         0.0000
     24 H1          1.7793   -3.5768    0.5314 H         1 <0>         0.0000
     25 H2          3.9480    0.1151    0.9218 H         1 <0>         0.0000
     26 H3         -0.1667   -2.5568    1.6593 H         1 <0>         0.0000
     27 H4          1.9778    1.1491    2.0283 H         1 <0>         0.0000
     28 H5         -4.3247    0.6078    2.2970 H         1 <0>         0.0000
     29 H6          4.1690   -2.1922   -1.1502 H         1 <0>         0.0000
     30 H7          5.1340   -2.0395    0.3203 H         1 <0>         0.0000
     31 H8          4.1928   -3.5105    0.0252 H         1 <0>         0.0000
     32 H9         -2.1363    1.6657    5.9363 H         1 <0>         0.0000
     33 H10        -0.4705    2.2528    5.6731 H         1 <0>         0.0000
     34 H11        -1.8706    3.0769    4.9319 H         1 <0>         0.0000
     35 H12        -6.3043    0.7421    1.3970 H         1 <0>         0.0000
     36 H13        -6.2984   -0.4727    2.6933 H         1 <0>         0.0000
     37 H14        -7.8303    0.2242    2.1310 H         1 <0>         0.0000
     38 H15        -6.1169    4.5701    6.4951 H         1 <0>         0.0000
@<TRIPOS>BOND
     1    1    3 ar
     2    1    6 ar
     3    1   24 1
     4    2    4 ar
     5    2    6 ar
     6    2   25 1
     7    3    7 ar
     8    3   26 1
     9    4    7 ar
    10    4   27 1
    11    5    8 1
    12    5    9 2
    13    5   12 1
    14    6   13 1
    15    7   20 1
    16    8   14 1
    17    8   16 2
    18    9   20 1
    19    9   23 1
    20   10   15 1
    21   10   17 2
    22   10   21 1
    23   11   18 2
    24   11   21 1
    25   11   22 1
    26   12   19 2
    27   12   28 1
    28   13   29 1
    29   13   30 1
    30   13   31 1
    31   14   32 1
    32   14   33 1
    33   14   34 1
    34   15   35 1
    35   15   36 1
    36   15   37 1
    37   16   20 1
    38   17   18 1
    39   19   21 1
    40   22   38 1
