@<TRIPOS>MOLECULE
*****
   21    21     0     0     0
SMALL
NO_CHARGES

@<TRIPOS>ATOM
      1 C1         -2.7987   -6.5952    0.7117 C.2       1 <0>         0.0000
      2 C2         -3.7074   -6.8696   -0.3476 C.2       1 <0>         0.0000
      3 C3         -1.6722   -6.1115    0.0682 C.2       1 <0>         0.0000
      4 C4         -0.2225   -3.2217   -2.3899 C.2       1 <0>         0.0000
      5 C5         -1.2437   -4.0799   -2.4607 C.2       1 <0>         0.0000
      6 C6         -5.0890   -7.4323   -0.2275 C.3       1 <0>         0.0000
      7 C7         -1.0965   -5.5769   -2.3511 C.3       1 <0>         0.0000
      8 N1         -3.1689   -6.5688   -1.5367 N.2       1 <0>         0.0000
      9 N2         -1.9120   -6.1333   -1.2797 N.pl3     1 <0>         0.0000
     10 N3         -2.9782   -6.8737    2.0827 N.pl3     1 <0>         0.0000
     11 Cl1        -0.1667   -5.6033    0.7530 Cl        1 <0>         0.0000
     12 H1         -0.3732   -2.1494   -2.4844 H         1 <0>         0.0000
     13 H2          0.7989   -3.5640   -2.2332 H         1 <0>         0.0000
     14 H3         -2.2620   -3.7192   -2.6021 H         1 <0>         0.0000
     15 H4         -5.7563   -6.7548    0.3198 H         1 <0>         0.0000
     16 H5         -5.5115   -7.5949   -1.2217 H         1 <0>         0.0000
     17 H6         -5.0782   -8.3870    0.3104 H         1 <0>         0.0000
     18 H7         -0.0523   -5.8525   -2.1820 H         1 <0>         0.0000
     19 H8         -1.4402   -6.0696   -3.2644 H         1 <0>         0.0000
     20 H9         -3.8761   -6.5395    2.4213 H         1 <0>         0.0000
     21 H10        -2.2411   -6.4629    2.6491 H         1 <0>         0.0000
@<TRIPOS>BOND
     1    1    2 1
     2    1    3 2
     3    1   10 1
     4    2    6 1
     5    2    8 2
     6    3    9 1
     7    3   11 1
     8    4    5 2
     9    4   12 1
    10    4   13 1
    11    5    7 1
    12    5   14 1
    13    6   15 1
    14    6   16 1
    15    6   17 1
    16    7    9 1
    17    7   18 1
    18    7   19 1
    19    8    9 1
    20   10   20 1
    21   10   21 1
