@<TRIPOS>MOLECULE
*****
   15    14     0     0     0
SMALL
NO_CHARGES

@<TRIPOS>ATOM
      1 C1          0.6679    1.2475    0.3405 C.2       1 <0>         0.0000
      2 C2         -0.0808    0.2738   -0.1856 C.2       1 <0>         0.0000
      3 C3          0.0550   -1.1406    0.2833 C.2       1 <0>         0.0000
      4 O1          0.8849   -1.5291    1.0778 O.2       1 <0>         0.0000
      5 O2         -3.2122    1.0228   -2.2867 O.2       1 <0>         0.0000
      6 O3         -0.8710   -1.9750   -0.2782 O.3       1 <0>         0.0000
      7 O4         -2.4934    2.2451   -0.1008 O.3       1 <0>         0.0000
      8 O5         -3.0421   -0.1438    0.1078 O.3       1 <0>         0.0000
      9 O6         -0.9582    0.4993   -1.2336 O.3       1 <0>         0.0000
     10 P1         -2.5202    0.9131   -1.0004 P.3       1 <0>         0.0000
     11 H1          0.5730    2.2691   -0.0120 H         1 <0>         0.0000
     12 H2          1.3842    1.0101    1.1187 H         1 <0>         0.0000
     13 H3         -0.6720   -2.8664    0.0688 H         1 <0>         0.0000
     14 H4         -2.5869    2.0708    0.8510 H         1 <0>         0.0000
     15 H5         -2.8358   -1.0673   -0.1330 H         1 <0>         0.0000
@<TRIPOS>BOND
     1    1    2 2
     2    1   11 1
     3    1   12 1
     4    2    3 1
     5    2    9 1
     6    3    4 2
     7    3    6 1
     8    5   10 2
     9    6   13 1
    10    7   10 1
    11    7   14 1
    12    8   10 1
    13    8   15 1
    14    9   10 1
