@<TRIPOS>MOLECULE
*****
   25    26     0     0     0
SMALL
NO_CHARGES

@<TRIPOS>ATOM
      1 C1          2.4336   -0.4739    0.1330 C.ar      1 <0>         0.0000
      2 C2          1.3225   -0.0052    0.8221 C.ar      1 <0>         0.0000
      3 C3          3.1361   -1.5890    0.5992 C.ar      1 <0>         0.0000
      4 C4         -4.2966    3.9357    2.5661 C.2       1 <0>         0.0000
      5 C5          0.8792   -0.6383    2.0003 C.ar      1 <0>         0.0000
      6 C6          2.7145   -2.2312    1.7638 C.ar      1 <0>         0.0000
      7 C7          1.5924   -1.7636    2.4661 C.ar      1 <0>         0.0000
      8 C8         -2.7219    2.4227    2.5303 C.2       1 <0>         0.0000
      9 C9         -0.2967   -0.1256    2.7112 C.2       1 <0>         0.0000
     10 N1         -3.5546    4.1576    1.5165 N.2       1 <0>         0.0000
     11 N2         -2.5412    3.1947    1.4815 N.2       1 <0>         0.0000
     12 N3         -0.9256    0.9042    2.2580 N.2       1 <0>         0.0000
     13 N4         -3.8151    2.8352    3.2598 N.pl3     1 <0>         0.0000
     14 N5         -4.2544    2.2040    4.4331 N.3       1 <0>         0.0000
     15 N6         -1.9993    1.3323    2.9521 N.pl3     1 <0>         0.0000
     16 Cl1         3.6173   -3.6229    2.3174 Cl        1 <0>         0.0000
     17 Cl2         1.0845   -2.5906    3.9278 Cl        1 <0>         0.0000
     18 H1          2.7625    0.0254   -0.7738 H         1 <0>         0.0000
     19 H2          0.7686    0.8591    0.4709 H         1 <0>         0.0000
     20 H3          4.0057   -1.9657    0.0707 H         1 <0>         0.0000
     21 H4         -5.1636    4.5030    2.8793 H         1 <0>         0.0000
     22 H5         -0.6149   -0.6390    3.6229 H         1 <0>         0.0000
     23 H6         -5.2100    1.8734    4.3044 H         1 <0>         0.0000
     24 H7         -4.2324    2.8685    5.2057 H         1 <0>         0.0000
     25 H8         -2.3143    0.8674    3.8044 H         1 <0>         0.0000
@<TRIPOS>BOND
     1    1    2 ar
     2    1    3 ar
     3    1   18 1
     4    2    5 ar
     5    2   19 1
     6    3    6 ar
     7    3   20 1
     8    4   10 2
     9    4   13 1
    10    4   21 1
    11    5    7 ar
    12    5    9 1
    13    6    7 ar
    14    6   16 1
    15    7   17 1
    16    8   11 2
    17    8   13 1
    18    8   15 1
    19    9   12 2
    20    9   22 1
    21   10   11 1
    22   12   15 1
    23   13   14 1
    24   14   23 1
    25   14   24 1
    26   15   25 1
