@<TRIPOS>MOLECULE
*****
   15    14     0     0     0
SMALL
NO_CHARGES

@<TRIPOS>ATOM
      1 C1          0.3490    1.5639    0.6199 C.2       1 <0>         0.0000
      2 C2         -0.0557    0.5042   -0.0867 C.2       1 <0>         0.0000
      3 C3          0.4240   -0.8865    0.1653 C.2       1 <0>         0.0000
      4 O1          0.2731   -1.8145   -0.6188 O.2       1 <0>         0.0000
      5 O2         -1.8880    0.8448   -3.4751 O.2       1 <0>         0.0000
      6 O3          1.0574   -1.0329    1.3446 O.3       1 <0>         0.0000
      7 O4          0.4063   -0.4000   -2.9650 O.3       1 <0>         0.0000
      8 O5          0.3036    2.0565   -2.7733 O.3       1 <0>         0.0000
      9 O6         -0.9996    0.6042   -1.0902 O.3       1 <0>         0.0000
     10 P1         -0.6510    0.7571   -2.6843 P.3       1 <0>         0.0000
     11 H1         -0.0109    2.5575    0.3743 H         1 <0>         0.0000
     12 H2          1.0420    1.4413    1.4434 H         1 <0>         0.0000
     13 H3          1.3607   -1.9607    1.3860 H         1 <0>         0.0000
     14 H4          0.2794   -1.1797   -2.3759 H         1 <0>         0.0000
     15 H5         -0.1556    2.7766   -3.2387 H         1 <0>         0.0000
@<TRIPOS>BOND
     1    1    2 2
     2    1   11 1
     3    1   12 1
     4    2    3 1
     5    2    9 1
     6    3    4 2
     7    3    6 1
     8    5   10 2
     9    6   13 1
    10    7   10 1
    11    7   14 1
    12    8   10 1
    13    8   15 1
    14    9   10 1
