@<TRIPOS>MOLECULE
*****
   35    36     0     0     0
SMALL
NO_CHARGES

@<TRIPOS>ATOM
      1 C1         -0.8679   -6.0587   -0.8213 C.2       1 <0>         0.0000
      2 C2         -1.5909   -5.8378   -2.0107 C.2       1 <0>         0.0000
      3 C3         -0.8275   -1.8292   -0.9333 C.2       1 <0>         0.0000
      4 C4          1.1496    1.3424   -1.1649 C.3       1 <0>         0.0000
      5 C5          0.7217   -0.0217   -1.7275 C.3       1 <0>         0.0000
      6 C6         -1.2989    0.5138   -0.3939 C.3       1 <0>         0.0000
      7 C7         -0.5348    1.3059    0.6953 C.3       1 <0>         0.0000
      8 C8          0.9887    1.3969    0.3590 C.3       1 <0>         0.0000
      9 C9         -0.8439    0.7655    2.0972 C.3       1 <0>         0.0000
     10 C10         1.8411    0.3121    1.0337 C.3       1 <0>         0.0000
     11 C11         0.1139   -2.8178   -1.6513 C.3       1 <0>         0.0000
     12 N1         -0.1204   -4.9782   -0.5698 N.2       1 <0>         0.0000
     13 N2         -1.2807   -4.6239   -2.4792 N.2       1 <0>         0.0000
     14 N3         -0.3973   -4.1641   -1.5906 N.pl3     1 <0>         0.0000
     15 N4         -0.4581   -0.5151   -1.0066 N.am      1 <0>         0.0000
     16 O1         -1.8254   -2.2262   -0.3403 O.2       1 <0>         0.0000
     17 O2          1.4991    2.6912    0.7362 O.3       1 <0>         0.0000
     18 H1         -0.8469   -6.9162   -0.1626 H         1 <0>         0.0000
     19 H2         -2.2892   -6.4757   -2.5353 H         1 <0>         0.0000
     20 H3          2.1927    1.5355   -1.4312 H         1 <0>         0.0000
     21 H4          0.5556    2.1498   -1.6044 H         1 <0>         0.0000
     22 H5          0.5148    0.0655   -2.8032 H         1 <0>         0.0000
     23 H6          1.5437   -0.7310   -1.6105 H         1 <0>         0.0000
     24 H7         -2.1741    0.0143    0.0194 H         1 <0>         0.0000
     25 H8         -1.6460    1.1908   -1.1840 H         1 <0>         0.0000
     26 H9         -0.8920    2.3405    0.6408 H         1 <0>         0.0000
     27 H10        -0.6011   -0.2975    2.1842 H         1 <0>         0.0000
     28 H11        -1.9108    0.8770    2.3152 H         1 <0>         0.0000
     29 H12        -0.2954    1.3052    2.8784 H         1 <0>         0.0000
     30 H13         1.8483    0.4382    2.1206 H         1 <0>         0.0000
     31 H14         2.8748    0.3869    0.6824 H         1 <0>         0.0000
     32 H15         1.4683   -0.6950    0.8292 H         1 <0>         0.0000
     33 H16         1.0978   -2.8208   -1.1776 H         1 <0>         0.0000
     34 H17         0.2324   -2.5491   -2.7028 H         1 <0>         0.0000
     35 H18         1.4334    2.7685    1.7018 H         1 <0>         0.0000
@<TRIPOS>BOND
     1    1    2 1
     2    1   12 2
     3    1   18 1
     4    2   13 2
     5    2   19 1
     6    3   11 1
     7    3   15 am
     8    3   16 2
     9    4    5 1
    10    4    8 1
    11    4   20 1
    12    4   21 1
    13    5   15 1
    14    5   22 1
    15    5   23 1
    16    6    7 1
    17    6   15 1
    18    6   24 1
    19    6   25 1
    20    7    8 1
    21    7    9 1
    22    7   26 1
    23    8   10 1
    24    8   17 1
    25    9   27 1
    26    9   28 1
    27    9   29 1
    28   10   30 1
    29   10   31 1
    30   10   32 1
    31   11   14 1
    32   11   33 1
    33   11   34 1
    34   12   14 1
    35   13   14 1
    36   17   35 1
