@<TRIPOS>MOLECULE
*****
   32    34     0     0     0
SMALL
NO_CHARGES

@<TRIPOS>ATOM
      1 C1         -1.2978   -2.3343    4.2612 C.ar      1 <0>         0.0000
      2 C2         -1.4707   -2.9520    3.0024 C.ar      1 <0>         0.0000
      3 C3         -1.7422   -1.0358    4.4944 C.ar      1 <0>         0.0000
      4 C4         -2.0923   -2.2813    1.9512 C.ar      1 <0>         0.0000
      5 C5         -3.4245    1.0974    2.0321 C.2       1 <0>         0.0000
      6 C6         -2.3739   -0.3334    3.4514 C.ar      1 <0>         0.0000
      7 C7         -2.9477    0.9907    3.3284 C.2       1 <0>         0.0000
      8 C8         -2.5365   -0.9764    2.1926 C.ar      1 <0>         0.0000
      9 C9         -5.0289    7.7385    5.2188 C.ar      1 <0>         0.0000
     10 C10        -5.0970    6.9373    4.0508 C.ar      1 <0>         0.0000
     11 C11        -4.0645    5.2807    5.1469 C.ar      1 <0>         0.0000
     12 C12        -3.0058    1.9995    4.3665 C.2       1 <0>         0.0000
     13 C13        -5.5731    9.1367    5.2726 C.3       1 <0>         0.0000
     14 N1         -4.4577    7.2207    6.3052 N.ar      1 <0>         0.0000
     15 N2         -4.6212    5.7098    3.9972 N.ar      1 <0>         0.0000
     16 N3         -3.9646    5.9839    6.2926 N.ar      1 <0>         0.0000
     17 N4         -3.5389    3.1576    4.1655 N.2       1 <0>         0.0000
     18 N5         -3.1787   -0.0766    1.3543 N.pl3     1 <0>         0.0000
     19 N6         -3.5340    4.0194    5.2160 N.pl3     1 <0>         0.0000
     20 O1         -5.6734    7.4496    2.9423 O.3       1 <0>         0.0000
     21 H1         -0.8087   -2.8861    5.0594 H         1 <0>         0.0000
     22 H2         -1.1130   -3.9668    2.8514 H         1 <0>         0.0000
     23 H3         -1.5998   -0.5779    5.4700 H         1 <0>         0.0000
     24 H4         -2.2251   -2.7570    0.9825 H         1 <0>         0.0000
     25 H5         -3.9197    1.9331    1.5574 H         1 <0>         0.0000
     26 H6         -2.5728    1.7337    5.3407 H         1 <0>         0.0000
     27 H7         -6.6461    9.1524    5.0529 H         1 <0>         0.0000
     28 H8         -5.4058    9.5473    6.2702 H         1 <0>         0.0000
     29 H9         -5.0845    9.7801    4.5329 H         1 <0>         0.0000
     30 H10        -3.4315   -0.2531    0.3923 H         1 <0>         0.0000
     31 H11        -3.1299    3.7632    6.1168 H         1 <0>         0.0000
     32 H12        -5.6216    6.7533    2.2594 H         1 <0>         0.0000
@<TRIPOS>BOND
     1    1    2 ar
     2    1    3 ar
     3    1   21 1
     4    2    4 ar
     5    2   22 1
     6    3    6 ar
     7    3   23 1
     8    4    8 ar
     9    4   24 1
    10    5    7 2
    11    5   18 1
    12    5   25 1
    13    6    7 1
    14    6    8 ar
    15    7   12 1
    16    8   18 1
    17    9   10 ar
    18    9   13 1
    19    9   14 ar
    20   10   15 ar
    21   10   20 1
    22   11   15 ar
    23   11   16 ar
    24   11   19 1
    25   12   17 2
    26   12   26 1
    27   13   27 1
    28   13   28 1
    29   13   29 1
    30   14   16 ar
    31   17   19 1
    32   18   30 1
    33   19   31 1
    34   20   32 1
