@<TRIPOS>MOLECULE
*****
   15    14     0     0     0
SMALL
NO_CHARGES

@<TRIPOS>ATOM
      1 C1          0.7379    1.1969    0.4915 C.2       1 <0>         0.0000
      2 C2         -0.0513    0.2455   -0.0095 C.2       1 <0>         0.0000
      3 C3         -0.0165   -1.1615    0.4975 C.2       1 <0>         0.0000
      4 O1          0.6555   -1.5273    1.4419 O.2       1 <0>         0.0000
      5 O2         -3.0914    0.2886    0.3784 O.2       1 <0>         0.0000
      6 O3         -0.8069   -1.9907   -0.2238 O.3       1 <0>         0.0000
      7 O4         -3.1045    0.6635   -2.2295 O.3       1 <0>         0.0000
      8 O5         -2.3354    2.5213   -0.7557 O.3       1 <0>         0.0000
      9 O6         -0.9095    0.4932   -1.0805 O.3       1 <0>         0.0000
     10 P1         -2.4433    0.9167   -0.7891 P.3       1 <0>         0.0000
     11 H1          0.7011    2.2094    0.1034 H         1 <0>         0.0000
     12 H2          1.4236    0.9500    1.2937 H         1 <0>         0.0000
     13 H3         -0.7387   -2.8656    0.2041 H         1 <0>         0.0000
     14 H4         -3.3583   -0.2680   -2.3522 H         1 <0>         0.0000
     15 H5         -3.0271    2.9097   -0.1927 H         1 <0>         0.0000
@<TRIPOS>BOND
     1    1    2 2
     2    1   11 1
     3    1   12 1
     4    2    3 1
     5    2    9 1
     6    3    4 2
     7    3    6 1
     8    5   10 2
     9    6   13 1
    10    7   10 1
    11    7   14 1
    12    8   10 1
    13    8   15 1
    14    9   10 1
