@<TRIPOS>MOLECULE
*****
   25    26     0     0     0
SMALL
NO_CHARGES

@<TRIPOS>ATOM
      1 C1         -0.2866    4.5686    1.7872 C.ar      1 <0>         0.0000
      2 C2          0.3106    4.4913    0.5240 C.ar      1 <0>         0.0000
      3 C3          1.5332   -1.8091    0.2636 C.ar      1 <0>         0.0000
      4 C4          3.0265   -0.1766    1.3114 C.ar      1 <0>         0.0000
      5 C5          0.5022   -1.4083    1.1104 C.ar      1 <0>         0.0000
      6 C6          1.9921    0.2219    2.1583 C.ar      1 <0>         0.0000
      7 C7         -0.8832    3.4275    2.3226 C.ar      1 <0>         0.0000
      8 C8          0.2864    3.2684   -0.1500 C.ar      1 <0>         0.0000
      9 C9          2.7727   -1.1812    0.3810 C.ar      1 <0>         0.0000
     10 C10         0.7465   -0.3986    2.0451 C.ar      1 <0>         0.0000
     11 C11        -0.8449    2.2644    1.5490 C.ar      1 <0>         0.0000
     12 N1         -0.2804    2.1608    0.3544 N.ar      1 <0>         0.0000
     13 O1         -1.4999   -0.9465    3.3669 O.2       1 <0>         0.0000
     14 O2         -0.0511    1.0113    4.1305 O.2       1 <0>         0.0000
     15 O3         -1.4698    1.1101    2.0269 O.3       1 <0>         0.0000
     16 F1          3.7726   -1.5673   -0.4433 F         1 <0>         0.0000
     17 S1         -0.5904    0.1494    3.0835 S.o2      1 <0>         0.0000
     18 H1         -0.2881    5.5005    2.3460 H         1 <0>         0.0000
     19 H2          0.7838    5.3564    0.0693 H         1 <0>         0.0000
     20 H3          1.3909   -2.5895   -0.4769 H         1 <0>         0.0000
     21 H4          4.0120    0.2748    1.3649 H         1 <0>         0.0000
     22 H5         -0.4782   -1.8692    1.0489 H         1 <0>         0.0000
     23 H6          2.1450    1.0004    2.8982 H         1 <0>         0.0000
     24 H7         -1.3553    3.4169    3.2983 H         1 <0>         0.0000
     25 H8          0.7397    3.1659   -1.1340 H         1 <0>         0.0000
@<TRIPOS>BOND
     1    1    2 ar
     2    1    7 ar
     3    1   18 1
     4    2    8 ar
     5    2   19 1
     6    3    5 ar
     7    3    9 ar
     8    3   20 1
     9    4    6 ar
    10    4    9 ar
    11    4   21 1
    12    5   10 ar
    13    5   22 1
    14    6   10 ar
    15    6   23 1
    16    7   11 ar
    17    7   24 1
    18    8   12 ar
    19    8   25 1
    20    9   16 1
    21   10   17 1
    22   11   12 ar
    23   11   15 1
    24   13   17 2
    25   14   17 2
    26   15   17 1
