@<TRIPOS>MOLECULE
*****
   15    14     0     0     0
SMALL
NO_CHARGES

@<TRIPOS>ATOM
      1 C1          1.5092    1.1430    0.3363 C.2       1 <0>         0.0000
      2 C2          0.5262    0.4659   -0.2642 C.2       1 <0>         0.0000
      3 C3         -0.0779   -0.7795    0.2891 C.2       1 <0>         0.0000
      4 O1         -0.9736   -1.4072   -0.2622 O.2       1 <0>         0.0000
      5 O2          1.1966   -0.8256   -2.8905 O.2       1 <0>         0.0000
      6 O3          0.4504   -1.1638    1.4662 O.3       1 <0>         0.0000
      7 O4         -0.1066    1.1624   -3.9444 O.3       1 <0>         0.0000
      8 O5         -1.4565   -0.6247   -2.8957 O.3       1 <0>         0.0000
      9 O6         -0.0528    0.9254   -1.4308 O.3       1 <0>         0.0000
     10 P1          0.0058    0.0330   -2.8183 P.3       1 <0>         0.0000
     11 H1          1.9132    2.0401   -0.1212 H         1 <0>         0.0000
     12 H2          1.9064    0.8062    1.2859 H         1 <0>         0.0000
     13 H3         -0.0020   -1.9920    1.7176 H         1 <0>         0.0000
     14 H4         -1.0158    1.4822   -4.0770 H         1 <0>         0.0000
     15 H5         -1.6330   -1.1201   -2.0646 H         1 <0>         0.0000
@<TRIPOS>BOND
     1    1    2 2
     2    1   11 1
     3    1   12 1
     4    2    3 1
     5    2    9 1
     6    3    4 2
     7    3    6 1
     8    5   10 2
     9    6   13 1
    10    7   10 1
    11    7   14 1
    12    8   10 1
    13    8   15 1
    14    9   10 1
