@<TRIPOS>MOLECULE
*****
   18    18     0     0     0
SMALL
NO_CHARGES

@<TRIPOS>ATOM
      1 C1          1.5478    2.5190    4.4579 C.1       1 <0>         0.0000
      2 C2          4.9194   -2.0343    6.7630 C.ar      1 <0>         0.0000
      3 C3          5.1981   -1.7264    5.4269 C.ar      1 <0>         0.0000
      4 C4          3.5950   -2.0068    7.2137 C.ar      1 <0>         0.0000
      5 C5          4.1662   -1.3893    4.5464 C.ar      1 <0>         0.0000
      6 C6          2.5557   -1.6710    6.3415 C.ar      1 <0>         0.0000
      7 C7          2.8376   -1.3561    5.0017 C.ar      1 <0>         0.0000
      8 C8          1.4159    0.1587    3.9651 C.2       1 <0>         0.0000
      9 N1          1.1673    3.6101    4.2898 N.1       1 <0>         0.0000
     10 N2          1.7831   -1.0499    4.1036 N.2       1 <0>         0.0000
     11 N3          1.9723    1.2596    4.6385 N.pl3     1 <0>         0.0000
     12 H1          5.7240   -2.2988    7.4433 H         1 <0>         0.0000
     13 H2          6.2227   -1.7503    5.0648 H         1 <0>         0.0000
     14 H3          3.3667   -2.2498    8.2482 H         1 <0>         0.0000
     15 H4          4.3761   -1.1614    3.5048 H         1 <0>         0.0000
     16 H5          1.5243   -1.6603    6.6835 H         1 <0>         0.0000
     17 H6          0.6093    0.4249    3.2833 H         1 <0>         0.0000
     18 H7          2.7309    1.0856    5.2929 H         1 <0>         0.0000
@<TRIPOS>BOND
     1    1    9 3
     2    1   11 1
     3    2    4 ar
     4    2    3 ar
     5    2   12 1
     6    3    5 ar
     7    3   13 1
     8    4    6 ar
     9    4   14 1
    10    5    7 ar
    11    5   15 1
    12    6    7 ar
    13    6   16 1
    14    7   10 1
    15    8   10 2
    16    8   11 1
    17    8   17 1
    18   11   18 1
