@<TRIPOS>MOLECULE
*****
   15    14     0     0     0
SMALL
NO_CHARGES

@<TRIPOS>ATOM
      1 C1          1.1053    0.7917   -0.3365 C.2       1 <0>         0.0000
      2 C2         -0.1852    0.4607   -0.4533 C.2       1 <0>         0.0000
      3 C3         -1.0444   -0.0035    0.6909 C.2       1 <0>         0.0000
      4 O1         -2.2386    0.2336    0.7436 O.2       1 <0>         0.0000
      5 O2         -0.9066    3.1857   -1.6766 O.2       1 <0>         0.0000
      6 O3         -0.4445   -0.6807    1.6891 O.3       1 <0>         0.0000
      7 O4         -3.1179    1.7488   -1.3832 O.3       1 <0>         0.0000
      8 O5         -1.9834    1.7466   -3.5703 O.3       1 <0>         0.0000
      9 O6         -0.8690    0.5807   -1.6426 O.3       1 <0>         0.0000
     10 P1         -1.6810    1.9755   -2.0141 P.3       1 <0>         0.0000
     11 H1          1.6423    1.2089   -1.1812 H         1 <0>         0.0000
     12 H2          1.6374    0.7032    0.6055 H         1 <0>         0.0000
     13 H3          0.4626   -0.9209    1.4327 H         1 <0>         0.0000
     14 H4         -3.0655    1.2273   -0.5444 H         1 <0>         0.0000
     15 H5         -1.4147    2.3123   -4.1197 H         1 <0>         0.0000
@<TRIPOS>BOND
     1    1    2 2
     2    1   11 1
     3    1   12 1
     4    2    3 1
     5    2    9 1
     6    3    4 2
     7    3    6 1
     8    5   10 2
     9    6   13 1
    10    7   10 1
    11    7   14 1
    12    8   10 1
    13    8   15 1
    14    9   10 1
