@<TRIPOS>MOLECULE
*****
   15    14     0     0     0
SMALL
NO_CHARGES

@<TRIPOS>ATOM
      1 C1          0.9292    0.6445   -0.3259 C.2       1 <0>         0.0000
      2 C2         -0.2947    0.1816   -0.0777 C.2       1 <0>         0.0000
      3 C3         -0.6693   -0.4497    1.2476 C.2       1 <0>         0.0000
      4 O1         -0.0481   -0.1733    2.2520 O.2       1 <0>         0.0000
      5 O2         -2.1250   -2.0672   -1.3789 O.2       1 <0>         0.0000
      6 O3         -1.6999   -1.3119    1.2677 O.3       1 <0>         0.0000
      7 O4         -0.4860   -0.8982   -3.0530 O.3       1 <0>         0.0000
      8 O5         -2.8493   -0.0949   -2.9475 O.3       1 <0>         0.0000
      9 O6         -1.3178    0.3644   -1.0364 O.3       1 <0>         0.0000
     10 P1         -1.7306   -0.8023   -2.0542 P.3       1 <0>         0.0000
     11 H1          1.1727    1.1005   -1.2798 H         1 <0>         0.0000
     12 H2          1.6873    0.5697    0.4451 H         1 <0>         0.0000
     13 H3         -1.9534   -1.6358    0.3697 H         1 <0>         0.0000
     14 H4         -0.3354   -1.8034   -3.3765 H         1 <0>         0.0000
     15 H5         -3.7444   -0.1902   -2.5772 H         1 <0>         0.0000
@<TRIPOS>BOND
     1    1    2 2
     2    1   11 1
     3    1   12 1
     4    2    3 1
     5    2    9 1
     6    3    4 2
     7    3    6 1
     8    5   10 2
     9    6   13 1
    10    7   10 1
    11    7   14 1
    12    8   10 1
    13    8   15 1
    14    9   10 1
