@<TRIPOS>MOLECULE
*****
   15    14     0     0     0
SMALL
NO_CHARGES

@<TRIPOS>ATOM
      1 C1          0.1846    1.6245    0.4001 C.2       1 <0>         0.0000
      2 C2         -0.1473    0.4965   -0.2402 C.2       1 <0>         0.0000
      3 C3          0.2652   -0.8803    0.2013 C.2       1 <0>         0.0000
      4 O1          0.3600   -1.8064   -0.5900 O.2       1 <0>         0.0000
      5 O2         -0.8411    1.0801   -3.9072 O.2       1 <0>         0.0000
      6 O3          0.5545   -1.0739    1.4998 O.3       1 <0>         0.0000
      7 O4         -0.9004   -1.3766   -3.0928 O.3       1 <0>         0.0000
      8 O5          1.2285    0.0423   -2.7472 O.3       1 <0>         0.0000
      9 O6         -0.8992    0.5278   -1.3845 O.3       1 <0>         0.0000
     10 P1         -0.3740    0.1235   -2.9039 P.3       1 <0>         0.0000
     11 H1         -0.1025    2.5863   -0.0120 H         1 <0>         0.0000
     12 H2          0.7648    1.6232    1.3174 H         1 <0>         0.0000
     13 H3          0.2959   -0.2972    2.0255 H         1 <0>         0.0000
     14 H4         -0.7320   -1.9250   -2.2990 H         1 <0>         0.0000
     15 H5          1.5458   -0.8095   -2.3975 H         1 <0>         0.0000
@<TRIPOS>BOND
     1    1    2 2
     2    1   11 1
     3    1   12 1
     4    2    3 1
     5    2    9 1
     6    3    4 2
     7    3    6 1
     8    5   10 2
     9    6   13 1
    10    7   10 1
    11    7   14 1
    12    8   10 1
    13    8   15 1
    14    9   10 1
