@<TRIPOS>MOLECULE
*****
   15    14     0     0     0
SMALL
NO_CHARGES

@<TRIPOS>ATOM
      1 C1          1.1767    0.7511   -0.2788 C.2       1 <0>         0.0000
      2 C2         -0.0589    0.3089   -0.0506 C.2       1 <0>         0.0000
      3 C3         -0.4509   -0.3819    1.2303 C.2       1 <0>         0.0000
      4 O1          0.2232   -0.2986    2.2324 O.2       1 <0>         0.0000
      5 O2         -0.0015   -0.6335   -3.1405 O.2       1 <0>         0.0000
      6 O3         -1.5920   -1.1070    1.2040 O.3       1 <0>         0.0000
      7 O4         -2.3726    0.3885   -3.1034 O.3       1 <0>         0.0000
      8 O5         -1.8964   -1.7126   -1.6913 O.3       1 <0>         0.0000
      9 O6         -1.0966    0.5038   -0.9859 O.3       1 <0>         0.0000
     10 P1         -1.2031   -0.3821   -2.3367 P.3       1 <0>         0.0000
     11 H1          1.4425    1.2290   -1.2154 H         1 <0>         0.0000
     12 H2          1.9295    0.6174    0.4895 H         1 <0>         0.0000
     13 H3         -1.9307   -1.2011    0.2932 H         1 <0>         0.0000
     14 H4         -3.1312    0.6401   -2.5476 H         1 <0>         0.0000
     15 H5         -1.6292   -2.5342   -2.1409 H         1 <0>         0.0000
@<TRIPOS>BOND
     1    1    2 2
     2    1   11 1
     3    1   12 1
     4    2    3 1
     5    2    9 1
     6    3    4 2
     7    3    6 1
     8    5   10 2
     9    6   13 1
    10    7   10 1
    11    7   14 1
    12    8   10 1
    13    8   15 1
    14    9   10 1
