@<TRIPOS>MOLECULE
*****
   24    25     0     0     0
SMALL
NO_CHARGES

@<TRIPOS>ATOM
      1 C1          1.5713   -1.4230   -0.4305 C.ar      1 <0>         0.0000
      2 C2          2.6993   -2.1037    0.0382 C.ar      1 <0>         0.0000
      3 C3          1.2874   -0.2640    1.7065 C.ar      1 <0>         0.0000
      4 C4          0.8733   -0.5134    0.3943 C.ar      1 <0>         0.0000
      5 C5          3.0876   -1.8419    1.3325 C.ar      1 <0>         0.0000
      6 C6          2.3998   -0.9457    2.1452 C.ar      1 <0>         0.0000
      7 C7          4.1483   -1.7869    3.3608 C.2       1 <0>         0.0000
      8 C8         -0.2955    0.1755   -0.1317 C.2       1 <0>         0.0000
      9 C9         -0.6528    1.5819    0.3857 C.3       1 <0>         0.0000
     10 C10        -1.3611    2.4706   -0.6302 C.3       1 <0>         0.0000
     11 N1          4.1576   -2.3640    2.0594 N.am      1 <0>         0.0000
     12 N2          3.0343   -0.9007    3.3867 N.am      1 <0>         0.0000
     13 O1          4.9356   -2.0071    4.2700 O.2       1 <0>         0.0000
     14 O2         -1.0200   -0.3690   -0.9878 O.2       1 <0>         0.0000
     15 Cl1        -0.3472    2.7438   -2.0693 Cl        1 <0>         0.0000
     16 H1          1.2334   -1.6033   -1.4488 H         1 <0>         0.0000
     17 H2          3.2353   -2.8015   -0.5942 H         1 <0>         0.0000
     18 H3          0.7594    0.4322    2.3484 H         1 <0>         0.0000
     19 H4         -1.3178    1.4466    1.2466 H         1 <0>         0.0000
     20 H5          0.2649    2.0763    0.7236 H         1 <0>         0.0000
     21 H6         -2.3068    2.0337   -0.9649 H         1 <0>         0.0000
     22 H7         -1.5696    3.4514   -0.1930 H         1 <0>         0.0000
     23 H8          4.8290   -3.0407    1.7183 H         1 <0>         0.0000
     24 H9          2.7406   -0.3277    4.1682 H         1 <0>         0.0000
@<TRIPOS>BOND
     1    1    2 ar
     2    1    4 ar
     3    1   16 1
     4    2    5 ar
     5    2   17 1
     6    3    4 ar
     7    3    6 ar
     8    3   18 1
     9    4    8 1
    10    5    6 ar
    11    5   11 1
    12    6   12 1
    13    7   11 am
    14    7   12 am
    15    7   13 2
    16    8    9 1
    17    8   14 2
    18    9   10 1
    19    9   19 1
    20    9   20 1
    21   10   15 1
    22   10   21 1
    23   10   22 1
    24   11   23 1
    25   12   24 1
