@<TRIPOS>MOLECULE
*****
   34    36     0     0     0
SMALL
NO_CHARGES

@<TRIPOS>ATOM
      1 C1          5.6023   -2.3025    3.5200 C.ar      1 <0>         0.0000
      2 C2          4.1794   -8.2822   -1.6031 C.ar      1 <0>         0.0000
      3 C3          4.8749   -3.4348    3.1532 C.ar      1 <0>         0.0000
      4 C4          5.1193   -1.0318    3.2077 C.ar      1 <0>         0.0000
      5 C5          4.2102   -7.1495   -2.4167 C.ar      1 <0>         0.0000
      6 C6          3.2511   -8.3708   -0.5658 C.ar      1 <0>         0.0000
      7 C7          3.6644   -3.2963    2.4741 C.ar      1 <0>         0.0000
      8 C8          3.9088   -0.8933    2.5286 C.ar      1 <0>         0.0000
      9 C9          3.3127   -6.1055   -2.1929 C.ar      1 <0>         0.0000
     10 C10         2.3536   -7.3268   -0.3421 C.ar      1 <0>         0.0000
     11 C11         3.1813   -2.0255    2.1618 C.ar      1 <0>         0.0000
     12 C12         2.3843   -6.1941   -1.1557 C.ar      1 <0>         0.0000
     13 C13         1.1156   -0.7635    1.6517 C.2       1 <0>         0.0000
     14 C14         1.4511   -2.8333    0.5823 C.2       1 <0>         0.0000
     15 C15        -0.0923   -0.7886    0.7512 C.3       1 <0>         0.0000
     16 N1          2.0384   -3.9066    0.1775 N.2       1 <0>         0.0000
     17 N2          1.9336   -1.8825    1.4617 N.am      1 <0>         0.0000
     18 O1          1.2702    0.1546    2.4537 O.2       1 <0>         0.0000
     19 O2          1.0956   -4.2107   -2.1584 O.2       1 <0>         0.0000
     20 O3          0.0863   -5.4451   -0.2082 O.2       1 <0>         0.0000
     21 S1         -0.1182   -2.4031   -0.0315 S.3       1 <0>         0.0000
     22 S2          1.2421   -4.8701   -0.8733 S.o2      1 <0>         0.0000
     23 H1          6.5453   -2.4108    4.0481 H         1 <0>         0.0000
     24 H2          4.8782   -9.0951   -1.7783 H         1 <0>         0.0000
     25 H3          5.2518   -4.4242    3.3956 H         1 <0>         0.0000
     26 H4          5.6858   -0.1501    3.4924 H         1 <0>         0.0000
     27 H5          4.9326   -7.0812   -3.2246 H         1 <0>         0.0000
     28 H6          3.2261   -9.2529    0.0671 H         1 <0>         0.0000
     29 H7          3.1061   -4.1859    2.1932 H         1 <0>         0.0000
     30 H8          3.5423    0.1021    2.2905 H         1 <0>         0.0000
     31 H9          3.3447   -5.2285   -2.8336 H         1 <0>         0.0000
     32 H10         1.6338   -7.4065    0.4682 H         1 <0>         0.0000
     33 H11        -0.9978   -0.6389    1.3444 H         1 <0>         0.0000
     34 H12         0.0014   -0.0014   -0.0013 H         1 <0>         0.0000
@<TRIPOS>BOND
     1    1    4 ar
     2    1    3 ar
     3    1   23 1
     4    2    6 ar
     5    2    5 ar
     6    2   24 1
     7    3    7 ar
     8    3   25 1
     9    4    8 ar
    10    4   26 1
    11    5    9 ar
    12    5   27 1
    13    6   10 ar
    14    6   28 1
    15    7   11 ar
    16    7   29 1
    17    8   11 ar
    18    8   30 1
    19    9   12 ar
    20    9   31 1
    21   10   12 ar
    22   10   32 1
    23   11   17 1
    24   12   22 1
    25   13   15 1
    26   13   17 am
    27   13   18 2
    28   14   16 2
    29   14   17 1
    30   14   21 1
    31   15   21 1
    32   15   33 1
    33   15   34 1
    34   16   22 1
    35   19   22 2
    36   20   22 2
