@<TRIPOS>MOLECULE
*****
   25    24     0     0     0
SMALL
NO_CHARGES

@<TRIPOS>ATOM
      1 C1          0.5883    0.0348    3.7814 C.2       1 <0>         0.0000
      2 C2         -0.2711   -2.6573    2.2137 C.2       1 <0>         0.0000
      3 C3          1.8115    0.6628    4.3625 C.3       1 <0>         0.0000
      4 C4         -0.0308   -1.0544    0.2954 C.3       1 <0>         0.0000
      5 C5         -1.5542   -4.7301    2.5837 C.3       1 <0>         0.0000
      6 C6         -2.8084   -2.6969    1.9961 C.3       1 <0>         0.0000
      7 C7         -0.2670   -1.1884    1.7927 C.3       1 <0>         0.0000
      8 N1          0.7813   -0.5284    2.5330 N.am      1 <0>         0.0000
      9 N2         -1.5062   -3.3143    2.2370 N.am      1 <0>         0.0000
     10 O1         -0.4603    0.0543    4.4153 O.2       1 <0>         0.0000
     11 O2          0.7950   -3.2252    2.4760 O.2       1 <0>         0.0000
     12 H1          1.9093    1.7255    4.0885 H         1 <0>         0.0000
     13 H2          1.8102    0.6452    5.4643 H         1 <0>         0.0000
     14 H3          2.7657    0.1983    4.0667 H         1 <0>         0.0000
     15 H4          0.8935   -1.5504   -0.0157 H         1 <0>         0.0000
     16 H5         -0.8608   -1.4926   -0.2694 H         1 <0>         0.0000
     17 H6          0.0495   -0.0015    0.0005 H         1 <0>         0.0000
     18 H7         -1.6790   -4.8486    3.6632 H         1 <0>         0.0000
     19 H8         -0.6278   -5.2252    2.2800 H         1 <0>         0.0000
     20 H9         -2.3931   -5.2151    2.0772 H         1 <0>         0.0000
     21 H10        -3.0541   -2.7412    0.9318 H         1 <0>         0.0000
     22 H11        -2.7944   -1.6499    2.3107 H         1 <0>         0.0000
     23 H12        -3.5853   -3.2215    2.5587 H         1 <0>         0.0000
     24 H13        -1.1911   -0.6911    2.0965 H         1 <0>         0.0000
     25 H14         1.7071   -0.4748    2.1165 H         1 <0>         0.0000
@<TRIPOS>BOND
     1    1    3 1
     2    1    8 am
     3    1   10 2
     4    2    7 1
     5    2    9 am
     6    2   11 2
     7    3   12 1
     8    3   13 1
     9    3   14 1
    10    4    7 1
    11    4   15 1
    12    4   16 1
    13    4   17 1
    14    5    9 1
    15    5   18 1
    16    5   19 1
    17    5   20 1
    18    6    9 1
    19    6   21 1
    20    6   22 1
    21    6   23 1
    22    7    8 1
    23    7   24 1
    24    8   25 1
