@<TRIPOS>MOLECULE
*****
   17    17     0     0     0
SMALL
NO_CHARGES

@<TRIPOS>ATOM
      1 C1          1.8851   -1.0363   -0.1124 C.ar      1 <0>         0.0000
      2 C2          2.9210   -1.6309    0.6081 C.ar      1 <0>         0.0000
      3 C3          0.8066   -0.4630    0.5610 C.ar      1 <0>         0.0000
      4 C4          2.8783   -1.6520    2.0022 C.ar      1 <0>         0.0000
      5 C5          0.7638   -0.4841    1.9551 C.ar      1 <0>         0.0000
      6 C6          1.7997   -1.0786    2.6757 C.ar      1 <0>         0.0000
      7 C7          1.7548   -1.1014    4.1663 C.3       1 <0>         0.0000
      8 N1          2.4920    0.1231    7.1410 N.1       1 <0>         0.0000
      9 N2          2.3939    0.0794    4.7605 N.2       1 <0>         0.0000
     10 N3          2.4422    0.0970    6.0018 N.1       1 <0>         0.0000
     11 H1          1.9176   -1.0210   -1.1980 H         1 <0>         0.0000
     12 H2          3.7604   -2.0783    0.0841 H         1 <0>         0.0000
     13 H3         -0.0006   -0.0010    0.0001 H         1 <0>         0.0000
     14 H4          3.6899   -2.1173    2.5553 H         1 <0>         0.0000
     15 H5         -0.0804   -0.0348    2.4713 H         1 <0>         0.0000
     16 H6          0.7155   -1.1619    4.5228 H         1 <0>         0.0000
     17 H7          2.2545   -2.0008    4.5549 H         1 <0>         0.0000
@<TRIPOS>BOND
     1    1    3 ar
     2    1    2 ar
     3    1   11 1
     4    2    4 ar
     5    2   12 1
     6    3    5 ar
     7    3   13 1
     8    4    6 ar
     9    4   14 1
    10    5    6 ar
    11    5   15 1
    12    6    7 1
    13    7    9 1
    14    7   16 1
    15    7   17 1
    16    8   10 2
    17    9   10 2
