@<TRIPOS>MOLECULE
*****
   15    16     0     0     0
SMALL
NO_CHARGES

@<TRIPOS>ATOM
      1 C1          1.3879   -0.0684    1.6522 C.ar      1 <0>         0.0000
      2 C2          0.2265   -0.4197    0.9733 C.ar      1 <0>         0.0000
      3 C3          1.6520   -0.6227    2.8997 C.ar      1 <0>         0.0000
      4 C4         -0.6317   -1.3224    1.5803 C.ar      1 <0>         0.0000
      5 C5          0.7299   -1.5161    3.4206 C.ar      1 <0>         0.0000
      6 C6          0.9866   -2.1166    4.7393 C.2       1 <0>         0.0000
      7 N1          2.0815   -1.8403    5.4729 N.2       1 <0>         0.0000
      8 N2         -0.4092   -1.8816    2.7908 N.ar      1 <0>         0.0000
      9 N3          0.1488   -2.9930    5.3252 N.2       1 <0>         0.0000
     10 N4          1.9192   -2.5921    6.5905 N.2       1 <0>         0.0000
     11 N5          0.7581   -3.2846    6.5018 N.2       1 <0>         0.0000
     12 H1          2.0859    0.6360    1.2095 H         1 <0>         0.0000
     13 H2          0.0002   -0.0004   -0.0003 H         1 <0>         0.0000
     14 H3          2.5565   -0.3530    3.4350 H         1 <0>         0.0000
     15 H4         -1.5510   -1.6290    1.0922 H         1 <0>         0.0000
@<TRIPOS>BOND
     1    1    2 ar
     2    1    3 ar
     3    1   12 1
     4    2    4 ar
     5    2   13 1
     6    3    5 ar
     7    3   14 1
     8    4    8 ar
     9    4   15 1
    10    5    6 1
    11    5    8 ar
    12    6    7 1
    13    6    9 2
    14    7   10 1
    15    9   11 1
    16   10   11 2
