@<TRIPOS>MOLECULE
*****
   34    36     0     0     0
SMALL
NO_CHARGES

@<TRIPOS>ATOM
      1 C1         -0.9006   -0.5079   -0.3150 C.2       1 <0>         0.0000
      2 C2         -2.9747   -0.9563   -1.2663 C.2       1 <0>         0.0000
      3 C3         -1.9552    0.0143   -1.0325 C.2       1 <0>         0.0000
      4 C4         -4.2205   -0.7876   -1.9742 C.2       1 <0>         0.0000
      5 C5         -2.6523   -2.1699   -0.7178 C.2       1 <0>         0.0000
      6 C6         -4.6781   -3.2366   -1.4491 C.2       1 <0>         0.0000
      7 C7         -6.3697   -1.3812   -4.1417 C.3       1 <0>         0.0000
      8 C8         -6.6125   -2.8359   -3.8534 C.3       1 <0>         0.0000
      9 C9         -6.2840   -1.8903   -2.7259 C.3       1 <0>         0.0000
     10 C10        -1.9955    1.4236   -1.4936 C.3       1 <0>         0.0000
     11 C11        -7.9831   -3.4060   -3.9776 C.3       1 <0>         0.0000
     12 C12        -2.9944   -4.5650   -0.1464 C.3       1 <0>         0.0000
     13 C13        -3.7104   -4.8198    1.1561 C.3       1 <0>         0.0000
     14 N1         -5.0011   -1.9672   -2.0254 N.am      1 <0>         0.0000
     15 N2         -3.4360   -3.3180   -0.7700 N.am      1 <0>         0.0000
     16 O1         -4.5449    0.2891   -2.4680 O.2       1 <0>         0.0000
     17 O2         -5.4466   -4.2016   -1.5398 O.2       1 <0>         0.0000
     18 F1         -3.2868   -5.9776    1.7097 F         1 <0>         0.0000
     19 F2         -3.4797   -3.8320    2.0470 F         1 <0>         0.0000
     20 F3         -5.0445   -4.9176    0.9743 F         1 <0>         0.0000
     21 S1         -1.1477   -2.1575    0.0701 S.3       1 <0>         0.0000
     22 H1          0.0021   -0.0043    0.0026 H         1 <0>         0.0000
     23 H2         -5.4504   -1.1177   -4.6512 H         1 <0>         0.0000
     24 H3         -7.2154   -0.7553   -4.3997 H         1 <0>         0.0000
     25 H4         -5.8526   -3.5416   -4.1683 H         1 <0>         0.0000
     26 H5         -7.0922   -1.6062   -2.0603 H         1 <0>         0.0000
     27 H6         -1.5449    1.5203   -2.4920 H         1 <0>         0.0000
     28 H7         -3.0267    1.8047   -1.5463 H         1 <0>         0.0000
     29 H8         -1.4520    2.0913   -0.8076 H         1 <0>         0.0000
     30 H9         -8.7536   -2.6863   -3.6567 H         1 <0>         0.0000
     31 H10        -8.1049   -4.3106   -3.3599 H         1 <0>         0.0000
     32 H11        -8.2136   -3.6880   -5.0178 H         1 <0>         0.0000
     33 H12        -3.1837   -5.3757   -0.8562 H         1 <0>         0.0000
     34 H13        -1.9150   -4.4907    0.0146 H         1 <0>         0.0000
@<TRIPOS>BOND
     1    1    3 2
     2    1   21 1
     3    1   22 1
     4    2    3 1
     5    2    5 2
     6    2    4 1
     7    3   10 1
     8    4   14 am
     9    4   16 2
    10    5   15 1
    11    5   21 1
    12    6   15 am
    13    6   14 am
    14    6   17 2
    15    7    8 1
    16    7    9 1
    17    7   23 1
    18    7   24 1
    19    8    9 1
    20    8   11 1
    21    8   25 1
    22    9   14 1
    23    9   26 1
    24   10   27 1
    25   10   28 1
    26   10   29 1
    27   11   30 1
    28   11   31 1
    29   11   32 1
    30   12   13 1
    31   12   15 1
    32   12   33 1
    33   12   34 1
    34   13   18 1
    35   13   19 1
    36   13   20 1
