@<TRIPOS>MOLECULE
*****
   27    29     0     0     0
SMALL
NO_CHARGES

@<TRIPOS>ATOM
      1 C1          0.8726    1.2794    1.5062 C.ar      1 <0>         0.0000
      2 C2          0.7042    1.9049    2.7438 C.ar      1 <0>         0.0000
      3 C3         -1.8463    2.9851   -1.2993 C.2       1 <0>         0.0000
      4 C4         -1.3047    4.2855   -1.5128 C.2       1 <0>         0.0000
      5 C5         -1.3491    0.2943    1.6535 C.ar      1 <0>         0.0000
      6 C6         -0.1481    0.4787    0.9641 C.ar      1 <0>         0.0000
      7 C7         -0.4910    1.7067    3.4041 C.ar      1 <0>         0.0000
      8 C8         -1.4901    0.9230    2.8735 C.ar      1 <0>         0.0000
      9 C9         -0.9519    1.9912   -1.6306 C.2       1 <0>         0.0000
     10 C10        -0.0166    4.2361   -1.9989 C.2       1 <0>         0.0000
     11 C11        -2.1588    1.6916    4.7825 C.3       1 <0>         0.0000
     12 N1          0.0457   -0.1525   -0.3025 N.pl3     1 <0>         0.0000
     13 O1         -0.4651   -0.2519   -2.8377 O.2       1 <0>         0.0000
     14 O2         -2.3884   -0.1484   -1.2286 O.2       1 <0>         0.0000
     15 O3         -0.8328    2.2326    4.6117 O.3       1 <0>         0.0000
     16 O4         -2.5825    0.8600    3.6827 O.3       1 <0>         0.0000
     17 S1          0.5342    2.6268   -2.1962 S.3       1 <0>         0.0000
     18 S2         -1.0342    0.2237   -1.5906 S.o2      1 <0>         0.0000
     19 Cl1         1.0088    5.5511   -2.3936 Cl        1 <0>         0.0000
     20 H1          1.8055    1.4183    0.9643 H         1 <0>         0.0000
     21 H2          1.4885    2.5232    3.1652 H         1 <0>         0.0000
     22 H3         -2.8423    2.7910   -0.9226 H         1 <0>         0.0000
     23 H4         -1.8393    5.2067   -1.3186 H         1 <0>         0.0000
     24 H5         -2.1457   -0.3203    1.2471 H         1 <0>         0.0000
     25 H6         -2.1794    1.0954    5.7019 H         1 <0>         0.0000
     26 H7         -2.8659    2.5227    4.8862 H         1 <0>         0.0000
     27 H8          1.0309   -0.2960   -0.5769 H         1 <0>         0.0000
@<TRIPOS>BOND
     1    1    2 ar
     2    1    6 ar
     3    1   20 1
     4    2    7 ar
     5    2   21 1
     6    3    4 1
     7    3    9 2
     8    3   22 1
     9    4   10 2
    10    4   23 1
    11    5    6 ar
    12    5    8 ar
    13    5   24 1
    14    6   12 1
    15    7    8 ar
    16    7   15 1
    17    8   16 1
    18    9   17 1
    19    9   18 1
    20   10   17 1
    21   10   19 1
    22   11   15 1
    23   11   16 1
    24   11   25 1
    25   11   26 1
    26   12   18 1
    27   12   27 1
    28   13   18 2
    29   14   18 2
