@<TRIPOS>MOLECULE
*****
   17    17     0     0     0
SMALL
NO_CHARGES

@<TRIPOS>ATOM
      1 C1          2.5520   -1.3240   -0.4640 C.2       1 <0>         0.0000
      2 C2          4.5260   -0.2390   -1.6370 C.3       1 <0>         0.0000
      3 C3          4.9290   -0.9710    0.3660 C.3       1 <0>         0.0000
      4 C4          3.6900   -0.3420   -0.3310 C.3       1 <0>         0.0000
      5 C5          0.1330   -1.7610   -0.1710 C.3       1 <0>         0.0000
      6 N1          1.3130   -0.9040   -0.0870 N.am      1 <0>         0.0000
      7 O1          2.6810   -2.4560   -0.8860 O.2       1 <0>         0.0000
      8 O2          5.6700   -0.5700   -0.8120 O.3       1 <0>         0.0000
      9 H1          4.5610    0.7620   -2.0450 H         1 <0>         0.0000
     10 H2          4.3000   -1.0020   -2.3690 H         1 <0>         0.0000
     11 H3          4.8740   -2.0450    0.4840 H         1 <0>         0.0000
     12 H4          5.2260   -0.4470    1.2650 H         1 <0>         0.0000
     13 H5          3.3760    0.6090    0.0790 H         1 <0>         0.0000
     14 H6          0.2740   -2.6470    0.4530 H         1 <0>         0.0000
     15 H7         -0.7530   -1.2220    0.1690 H         1 <0>         0.0000
     16 H8         -0.0180   -2.0840   -1.2030 H         1 <0>         0.0000
     17 H9          1.2000    0.0340    0.2630 H         1 <0>         0.0000
@<TRIPOS>BOND
     1    1    4 1
     2    1    6 am
     3    1    7 2
     4    2    4 1
     5    2    8 1
     6    2    9 1
     7    2   10 1
     8    3    4 1
     9    3    8 1
    10    3   11 1
    11    3   12 1
    12    4   13 1
    13    5    6 1
    14    5   14 1
    15    5   15 1
    16    5   16 1
    17    6   17 1
