@<TRIPOS>MOLECULE
*****
   38    39     0     0     0
SMALL
NO_CHARGES

@<TRIPOS>ATOM
      1 C1          4.9173    0.6331    5.9956 C.ar      1 <0>         0.0000
      2 C2          4.7610    1.3254    4.7931 C.ar      1 <0>         0.0000
      3 C3          3.1635   -0.8987    5.3348 C.ar      1 <0>         0.0000
      4 C4          4.1244   -0.4816    6.2806 C.ar      1 <0>         0.0000
      5 C5          3.8076    0.9144    3.8562 C.ar      1 <0>         0.0000
      6 C6          2.9967   -0.2197    4.1310 C.ar      1 <0>         0.0000
      7 C7          4.3205   -1.1891    7.5809 C.2       1 <0>         0.0000
      8 C8         -0.8844   -0.2721    3.4263 C.3       1 <0>         0.0000
      9 C9         -0.5613   -0.6738    1.9568 C.3       1 <0>         0.0000
     10 C10         0.0333   -1.1428    4.3218 C.3       1 <0>         0.0000
     11 C11         0.4442   -1.8411    2.0588 C.3       1 <0>         0.0000
     12 C12         1.1602   -1.6106    3.3890 C.3       1 <0>         0.0000
     13 C13         3.7577   -3.0344    9.2480 C.3       1 <0>         0.0000
     14 C14         4.3715    2.6605    2.3306 C.3       1 <0>         0.0000
     15 C15         3.4533   -2.4073    7.8884 C.3       1 <0>         0.0000
     16 O1          5.1608   -0.8025    8.3888 O.2       1 <0>         0.0000
     17 O2          2.1129   -0.5555    3.1495 O.3       1 <0>         0.0000
     18 O3          3.5785    1.5238    2.6613 O.3       1 <0>         0.0000
     19 H1          5.6532    0.9505    6.7269 H         1 <0>         0.0000
     20 H2          5.3857    2.1884    4.5925 H         1 <0>         0.0000
     21 H3          2.5420   -1.7579    5.5469 H         1 <0>         0.0000
     22 H4         -0.6752    0.7888    3.5853 H         1 <0>         0.0000
     23 H5         -1.9379   -0.4307    3.6738 H         1 <0>         0.0000
     24 H6         -1.4564   -0.9583    1.3963 H         1 <0>         0.0000
     25 H7         -0.1003    0.1653    1.4297 H         1 <0>         0.0000
     26 H8          0.4071   -0.6054    5.1966 H         1 <0>         0.0000
     27 H9         -0.5010   -2.0283    4.6859 H         1 <0>         0.0000
     28 H10        -0.0784   -2.8031    2.1129 H         1 <0>         0.0000
     29 H11         1.1489   -1.8854    1.2245 H         1 <0>         0.0000
     30 H12         1.6866   -2.5049    3.7420 H         1 <0>         0.0000
     31 H13         4.7998   -3.3595    9.3047 H         1 <0>         0.0000
     32 H14         3.5985   -2.3151   10.0556 H         1 <0>         0.0000
     33 H15         3.1123   -3.9016    9.4213 H         1 <0>         0.0000
     34 H16         4.0296    2.9825    1.3463 H         1 <0>         0.0000
     35 H17         5.4364    2.4034    2.2804 H         1 <0>         0.0000
     36 H18         4.2244    3.4739    3.0516 H         1 <0>         0.0000
     37 H19         2.3996   -2.1044    7.8308 H         1 <0>         0.0000
     38 H20         3.5936   -3.1420    7.0848 H         1 <0>         0.0000
@<TRIPOS>BOND
     1    1    2 ar
     2    1    4 ar
     3    1   19 1
     4    2    5 ar
     5    2   20 1
     6    3    4 ar
     7    3    6 ar
     8    3   21 1
     9    4    7 1
    10    5    6 ar
    11    5   18 1
    12    6   17 1
    13    7   15 1
    14    7   16 2
    15    8    9 1
    16    8   10 1
    17    8   22 1
    18    8   23 1
    19    9   11 1
    20    9   24 1
    21    9   25 1
    22   10   12 1
    23   10   26 1
    24   10   27 1
    25   11   12 1
    26   11   28 1
    27   11   29 1
    28   12   17 1
    29   12   30 1
    30   13   15 1
    31   13   31 1
    32   13   32 1
    33   13   33 1
    34   14   18 1
    35   14   34 1
    36   14   35 1
    37   14   36 1
    38   15   37 1
    39   15   38 1
