@<TRIPOS>MOLECULE
*****
   36    36     0     0     0
SMALL
NO_CHARGES

@<TRIPOS>ATOM
      1 C1         -0.6851   -0.6376    2.0245 C.3       1 <0>         0.0000
      2 C2         -0.0764   -1.2531    0.7402 C.3       1 <0>         0.0000
      3 C3          0.4704   -0.5817    3.0499 C.3       1 <0>         0.0000
      4 C4          1.1381   -2.0584    1.2271 C.3       1 <0>         0.0000
      5 C5          0.7294   -3.4409    1.7624 C.3       1 <0>         0.0000
      6 C6          4.5223   -5.5620    3.9187 C.3       1 <0>         0.0000
      7 C7          5.3571   -6.6385    4.6265 C.3       1 <0>         0.0000
      8 C8          1.8265   -4.3751    2.2980 C.3       1 <0>         0.0000
      9 C9          3.2337   -5.2900    4.6939 C.3       1 <0>         0.0000
     10 C10         6.6218   -6.9615    3.8521 C.3       1 <0>         0.0000
     11 N1          1.6775   -1.1236    2.3020 N.4       1 <0>         0.0000
     12 O1          1.0296   -3.7338    4.7627 O.2       1 <0>         0.0000
     13 O2          3.1926   -2.7386    3.8802 O.2       1 <0>         0.0000
     14 F1          7.3518   -7.9029    4.4802 F         1 <0>         0.0000
     15 F2          6.3333   -7.4249    2.6075 F         1 <0>         0.0000
     16 F3          7.4042   -5.8648    3.6967 F         1 <0>         0.0000
     17 S1          2.2786   -3.9157    4.0071 S.o2      1 <0>         0.0000
     18 H1         -1.0960    0.3540    1.8302 H         1 <0>         0.0000
     19 H2         -1.4969   -1.2548    2.4132 H         1 <0>         0.0000
     20 H3         -0.7855   -1.8798    0.1969 H         1 <0>         0.0000
     21 H4          0.2552   -0.4682    0.0531 H         1 <0>         0.0000
     22 H5          0.7108    0.4200    3.4056 H         1 <0>         0.0000
     23 H6          0.3134   -1.2320    3.9108 H         1 <0>         0.0000
     24 H7          1.9188   -2.1629    0.4694 H         1 <0>         0.0000
     25 H8          0.2797   -3.9527    0.9061 H         1 <0>         0.0000
     26 H9         -0.0633   -3.3535    2.5106 H         1 <0>         0.0000
     27 H10         5.1016   -4.6389    3.8394 H         1 <0>         0.0000
     28 H11         4.2908   -5.9014    2.9047 H         1 <0>         0.0000
     29 H12         5.6605   -6.3090    5.6241 H         1 <0>         0.0000
     30 H13         4.7978   -7.5720    4.7358 H         1 <0>         0.0000
     31 H14         1.4433   -5.3982    2.3427 H         1 <0>         0.0000
     32 H15         2.7401   -4.3574    1.6992 H         1 <0>         0.0000
     33 H16         2.5494   -6.1430    4.7248 H         1 <0>         0.0000
     34 H17         3.4235   -4.9629    5.7218 H         1 <0>         0.0000
     35 H18         2.1682   -0.3537    1.8380 H         1 <0>         0.0000
     36 H19         2.3664   -1.5893    2.9445 H         1 <0>         0.0000
@<TRIPOS>BOND
     1    1    2 1
     2    1    3 1
     3    1   18 1
     4    1   19 1
     5    2    4 1
     6    2   20 1
     7    2   21 1
     8    3   11 1
     9    3   22 1
    10    3   23 1
    11    4    5 1
    12    4   11 1
    13    4   24 1
    14    5    8 1
    15    5   25 1
    16    5   26 1
    17    6    7 1
    18    6    9 1
    19    6   27 1
    20    6   28 1
    21    7   10 1
    22    7   29 1
    23    7   30 1
    24    8   17 1
    25    8   31 1
    26    8   32 1
    27    9   17 1
    28    9   33 1
    29    9   34 1
    30   10   14 1
    31   10   15 1
    32   10   16 1
    33   11   35 1
    34   11   36 1
    35   12   17 2
    36   13   17 2
