@<TRIPOS>MOLECULE
*****
   54    56     0     0     0
SMALL
NO_CHARGES

@<TRIPOS>ATOM
      1 C1         -0.1568  -10.4020    4.6000 C.ar      1 <0>         0.0000
      2 C2         -0.7146  -10.0139    5.8397 C.ar      1 <0>         0.0000
      3 C3         -0.1076   -9.5020    3.5540 C.ar      1 <0>         0.0000
      4 C4         -1.1913   -8.7313    6.0141 C.ar      1 <0>         0.0000
      5 C5         -0.4982   -7.8733   -2.0960 C.ar      1 <0>         0.0000
      6 C6          1.6990   -7.8662   -1.1179 C.ar      1 <0>         0.0000
      7 C7         -1.0444   -5.9502    2.8014 C.ar      1 <0>         0.0000
      8 C8         -0.0106   -8.5553   -3.2196 C.ar      1 <0>         0.0000
      9 C9          2.2004   -8.5443   -2.2222 C.ar      1 <0>         0.0000
     10 C10        -1.5383   -5.5468    4.0625 C.ar      1 <0>         0.0000
     11 C11        -0.6140   -8.1812    3.6869 C.ar      1 <0>         0.0000
     12 C12        -1.1492   -7.7811    4.9579 C.ar      1 <0>         0.0000
     13 C13         0.3386   -7.5170   -1.0371 C.ar      1 <0>         0.0000
     14 C14        -0.5932   -7.2463    2.5883 C.ar      1 <0>         0.0000
     15 C15         1.3466   -8.8946   -3.2837 C.ar      1 <0>         0.0000
     16 C16        -1.6035   -6.4368    5.1068 C.ar      1 <0>         0.0000
     17 C17        -0.3874  -12.9694   -8.2682 C.3       1 <0>         0.0000
     18 C18         3.1332  -11.9434   -9.0527 C.3       1 <0>         0.0000
     19 C19        -0.1955   -6.8000    0.1798 C.3       1 <0>         0.0000
     20 C20         0.6694  -12.5124   -7.2624 C.3       1 <0>         0.0000
     21 C21         1.8897  -11.0613   -8.8463 C.3       1 <0>         0.0000
     22 C22         2.0068  -10.6650   -6.4327 C.3       1 <0>         0.0000
     23 C23         1.1081   -9.9516   -5.4262 C.3       1 <0>         0.0000
     24 N1         -0.0837   -7.6593    1.3582 N.pl3     1 <0>         0.0000
     25 N2          1.2112  -11.1782   -7.5494 N.3       1 <0>         0.0000
     26 O1          1.9318   -9.5592   -4.3240 O.3       1 <0>         0.0000
     27 Cl1        -2.2605   -5.8853    6.6482 Cl        1 <0>         0.0000
     28 H1          0.2439  -11.4042    4.4739 H         1 <0>         0.0000
     29 H2         -0.7557  -10.7242    6.6614 H         1 <0>         0.0000
     30 H3          0.3604   -9.8103    2.6243 H         1 <0>         0.0000
     31 H4         -1.6035   -8.4305    6.9710 H         1 <0>         0.0000
     32 H5         -1.5547   -7.6172   -2.0547 H         1 <0>         0.0000
     33 H6          2.3657   -7.6042   -0.2999 H         1 <0>         0.0000
     34 H7         -1.0393   -5.2241    1.9971 H         1 <0>         0.0000
     35 H8         -0.6912   -8.8107   -4.0235 H         1 <0>         0.0000
     36 H9          3.2505   -8.8135   -2.2903 H         1 <0>         0.0000
     37 H10        -1.8861   -4.5275    4.1979 H         1 <0>         0.0000
     38 H11        -1.1672  -12.2089   -8.3773 H         1 <0>         0.0000
     39 H12         0.0385  -13.1670   -9.2566 H         1 <0>         0.0000
     40 H13        -0.8538  -13.8979   -7.9226 H         1 <0>         0.0000
     41 H14         3.8922  -11.7546   -8.2859 H         1 <0>         0.0000
     42 H15         2.8862  -13.0095   -9.0259 H         1 <0>         0.0000
     43 H16         3.5847  -11.7332  -10.0285 H         1 <0>         0.0000
     44 H17         0.3859   -5.8890    0.3655 H         1 <0>         0.0000
     45 H18        -1.2359   -6.4862    0.0015 H         1 <0>         0.0000
     46 H19         1.4679  -13.2733   -7.1910 H         1 <0>         0.0000
     47 H20         0.2065  -12.4694   -6.2713 H         1 <0>         0.0000
     48 H21         1.1596  -11.2719   -9.6337 H         1 <0>         0.0000
     49 H22         2.1668  -10.0086   -8.9701 H         1 <0>         0.0000
     50 H23         2.7389   -9.9428   -6.8061 H         1 <0>         0.0000
     51 H24         2.5768  -11.4526   -5.9135 H         1 <0>         0.0000
     52 H25         0.3065  -10.6134   -5.0757 H         1 <0>         0.0000
     53 H26         0.6491   -9.0734   -5.8958 H         1 <0>         0.0000
     54 H27        -0.2659   -8.6305    1.1366 H         1 <0>         0.0000
@<TRIPOS>BOND
     1    1    2 ar
     2    1    3 ar
     3    1   28 1
     4    2    4 ar
     5    2   29 1
     6    3   11 ar
     7    3   30 1
     8    4   12 ar
     9    4   31 1
    10    5    8 ar
    11    5   13 ar
    12    5   32 1
    13    6    9 ar
    14    6   13 ar
    15    6   33 1
    16    7   10 ar
    17    7   14 ar
    18    7   34 1
    19    8   15 ar
    20    8   35 1
    21    9   15 ar
    22    9   36 1
    23   10   16 ar
    24   10   37 1
    25   11   12 ar
    26   11   14 ar
    27   12   16 ar
    28   13   19 1
    29   14   24 1
    30   15   26 1
    31   16   27 1
    32   17   20 1
    33   17   38 1
    34   17   39 1
    35   17   40 1
    36   18   21 1
    37   18   41 1
    38   18   42 1
    39   18   43 1
    40   19   24 1
    41   19   44 1
    42   19   45 1
    43   20   25 1
    44   20   46 1
    45   20   47 1
    46   21   25 1
    47   21   48 1
    48   21   49 1
    49   22   23 1
    50   22   25 1
    51   22   50 1
    52   22   51 1
    53   23   26 1
    54   23   52 1
    55   23   53 1
    56   24   54 1
