@<TRIPOS>MOLECULE
*****
   29    30     0     0     0
SMALL
NO_CHARGES

@<TRIPOS>ATOM
      1 C1         -0.7119    4.7383    2.8121 C.ar      1 <0>         0.0000
      2 C2          0.1944    5.2718    3.7347 C.ar      1 <0>         0.0000
      3 C3         -0.3058    3.7079    1.9660 C.ar      1 <0>         0.0000
      4 C4          1.4951    4.7723    3.8056 C.ar      1 <0>         0.0000
      5 C5          0.9957    3.1850    2.0195 C.ar      1 <0>         0.0000
      6 C6          1.8858    3.7356    2.9531 C.ar      1 <0>         0.0000
      7 C7          0.3048    0.1872    2.2168 C.cat     1 <0>         0.0000
      8 C8         -0.2874   -1.4953    3.6861 C.3       1 <0>         0.0000
      9 C9          0.6776   -0.4941    4.3461 C.3       1 <0>         0.0000
     10 C10         1.4912    2.5400   -0.3897 C.3       1 <0>         0.0000
     11 C11         1.4083    2.0785    1.0656 C.3       1 <0>         0.0000
     12 N1         -0.6069   -0.7685    2.4424 N.pl3     1 <0>         0.0000
     13 N2          0.4460    0.9329    1.1388 N.pl3     1 <0>         0.0000
     14 O1          1.1260    0.3600    3.2333 O.3       1 <0>         0.0000
     15 Cl1         3.5372    3.1461    3.0840 Cl        1 <0>         0.0000
     16 H1         -1.7229    5.1292    2.7481 H         1 <0>         0.0000
     17 H2         -0.1059    6.0790    4.3963 H         1 <0>         0.0000
     18 H3         -1.0129    3.3043    1.2442 H         1 <0>         0.0000
     19 H4          2.2084    5.1813    4.5139 H         1 <0>         0.0000
     20 H5          0.1863   -2.4552    3.4620 H         1 <0>         0.0000
     21 H6         -1.1864   -1.6586    4.2817 H         1 <0>         0.0000
     22 H7          0.1888    0.1625    5.0667 H         1 <0>         0.0000
     23 H8          1.5674   -0.9457    4.7793 H         1 <0>         0.0000
     24 H9          0.5305    2.9297   -0.7421 H         1 <0>         0.0000
     25 H10         1.8157    1.7260   -1.0453 H         1 <0>         0.0000
     26 H11         2.2206    3.3491   -0.4618 H         1 <0>         0.0000
     27 H12         2.3768    1.6810    1.3672 H         1 <0>         0.0000
     28 H13        -1.2232   -1.1337    1.7258 H         1 <0>         0.0000
     29 H14        -0.1828    0.7782    0.3583 H         1 <0>         0.0000
@<TRIPOS>BOND
     1    1    2 ar
     2    1    3 ar
     3    1   16 1
     4    2    4 ar
     5    2   17 1
     6    3    5 ar
     7    3   18 1
     8    4    6 ar
     9    4   19 1
    10    5    6 ar
    11    5   11 1
    12    6   15 1
    13    7   12 1
    14    7   13 2
    15    7   14 1
    16    8    9 1
    17    8   12 1
    18    8   20 1
    19    8   21 1
    20    9   14 1
    21    9   22 1
    22    9   23 1
    23   10   11 1
    24   10   24 1
    25   10   25 1
    26   10   26 1
    27   11   13 1
    28   11   27 1
    29   12   28 1
    30   13   29 1
