@<TRIPOS>MOLECULE
*****
   61    64     0     0     0
SMALL
NO_CHARGES

@<TRIPOS>ATOM
      1 C1         -6.2193    4.2545   -6.9453 C.ar      1 <0>         0.0000
      2 C2         -5.9966    4.3109   -5.5728 C.ar      1 <0>         0.0000
      3 C3         -2.2568   -2.0963   -1.1856 C.ar      1 <0>         0.0000
      4 C4         -5.1842    3.9455   -7.8375 C.ar      1 <0>         0.0000
      5 C5         -2.1934   -0.7337   -1.4741 C.ar      1 <0>         0.0000
      6 C6         -3.6626    3.7413   -5.9552 C.ar      1 <0>         0.0000
      7 C7         -2.7284   -0.1917    0.8367 C.ar      1 <0>         0.0000
      8 C8         -4.7049    4.0519   -5.0747 C.ar      1 <0>         0.0000
      9 C9         -2.5787   -2.5189    0.1106 C.ar      1 <0>         0.0000
     10 C10        -2.7981   -1.5611    1.1056 C.ar      1 <0>         0.0000
     11 C11        -3.8999    3.6881   -7.3340 C.ar      1 <0>         0.0000
     12 C12        -2.4328    0.2212   -0.4710 C.ar      1 <0>         0.0000
     13 C13        -3.5654    4.0721   -1.6744 C.2       1 <0>         0.0000
     14 C14        -4.8905    4.3713   -1.5244 C.2       1 <0>         0.0000
     15 C15        -4.4249    4.1010   -3.6425 C.2       1 <0>         0.0000
     16 C16        -2.6360   -5.2250   -1.4757 C.2       1 <0>         0.0000
     17 C17        -3.0530   -2.2288    2.4386 C.3       1 <0>         0.0000
     18 C18        -3.4179   -3.6745    2.0366 C.3       1 <0>         0.0000
     19 C19        -2.7012   -3.9265    0.6823 C.3       1 <0>         0.0000
     20 C20        -5.7773    4.6559   -0.3647 C.3       1 <0>         0.0000
     21 C21        -4.4495   -7.3072   -0.3534 C.3       1 <0>         0.0000
     22 C22        -2.9989    3.3062   -9.5180 C.3       1 <0>         0.0000
     23 C23        -2.5150    3.8959   -0.6182 C.3       1 <0>         0.0000
     24 C24        -3.6887   -6.2888    0.5032 C.3       1 <0>         0.0000
     25 C25        -2.5927    2.5463    0.0949 C.3       1 <0>         0.0000
     26 C26        -3.4451   -4.9419   -0.2107 C.3       1 <0>         0.0000
     27 N1         -3.2901    3.9057   -3.0291 N.2       1 <0>         0.0000
     28 O1         -1.4990   -5.6389   -1.4612 O.2       1 <0>         0.0000
     29 O2         -5.4550    4.3909   -2.7843 O.3       1 <0>         0.0000
     30 O3         -3.2648   -5.0191   -2.6711 O.3       1 <0>         0.0000
     31 O4         -2.8145    3.3762   -8.1082 O.3       1 <0>         0.0000
     32 O5         -2.3476    1.5282   -0.8691 O.3       1 <0>         0.0000
     33 H1         -7.2130    4.4534   -7.3381 H         1 <0>         0.0000
     34 H2         -6.8041    4.5513   -4.8897 H         1 <0>         0.0000
     35 H3         -2.0403   -2.8045   -1.9790 H         1 <0>         0.0000
     36 H4         -5.3893    3.9094   -8.9013 H         1 <0>         0.0000
     37 H5         -1.9564   -0.3805   -2.4734 H         1 <0>         0.0000
     38 H6         -2.6672    3.5394   -5.5738 H         1 <0>         0.0000
     39 H7         -2.9005    0.5259    1.6321 H         1 <0>         0.0000
     40 H8         -2.1382   -2.2117    3.0459 H         1 <0>         0.0000
     41 H9         -3.8381   -1.7411    3.0258 H         1 <0>         0.0000
     42 H10        -3.1490   -4.4082    2.8007 H         1 <0>         0.0000
     43 H11        -4.5025   -3.7376    1.8835 H         1 <0>         0.0000
     44 H12        -1.6978   -4.3346    0.8628 H         1 <0>         0.0000
     45 H13        -6.2897    5.6172   -0.4816 H         1 <0>         0.0000
     46 H14        -6.5436    3.8814   -0.2434 H         1 <0>         0.0000
     47 H15        -5.1852    4.6939    0.5529 H         1 <0>         0.0000
     48 H16        -5.4246   -6.9145   -0.6663 H         1 <0>         0.0000
     49 H17        -4.6307   -8.2277    0.2105 H         1 <0>         0.0000
     50 H18        -3.8904   -7.5782   -1.2545 H         1 <0>         0.0000
     51 H19        -2.0241    3.0473   -9.9335 H         1 <0>         0.0000
     52 H20        -3.3234    4.2707   -9.9283 H         1 <0>         0.0000
     53 H21        -3.7261    2.5306   -9.7893 H         1 <0>         0.0000
     54 H22        -1.5313    3.9985   -1.0838 H         1 <0>         0.0000
     55 H23        -2.6026    4.6796    0.1434 H         1 <0>         0.0000
     56 H24        -2.7174   -6.7001    0.7980 H         1 <0>         0.0000
     57 H25        -4.2504   -6.0968    1.4222 H         1 <0>         0.0000
     58 H26        -1.8418    2.4969    0.8962 H         1 <0>         0.0000
     59 H27        -3.5865    2.4092    0.5431 H         1 <0>         0.0000
     60 H28        -4.4200   -4.5068   -0.4747 H         1 <0>         0.0000
     61 H29        -4.1503   -4.6526   -2.5107 H         1 <0>         0.0000
@<TRIPOS>BOND
     1    1    2 ar
     2    1    4 ar
     3    1   33 1
     4    2    8 ar
     5    2   34 1
     6    3    5 ar
     7    3    9 ar
     8    3   35 1
     9    4   11 ar
    10    4   36 1
    11    5   12 ar
    12    5   37 1
    13    6    8 ar
    14    6   11 ar
    15    6   38 1
    16    7   10 ar
    17    7   12 ar
    18    7   39 1
    19    8   15 1
    20    9   10 ar
    21    9   19 1
    22   10   17 1
    23   11   31 1
    24   12   32 1
    25   13   14 2
    26   13   23 1
    27   13   27 1
    28   14   20 1
    29   14   29 1
    30   15   27 2
    31   15   29 1
    32   16   26 1
    33   16   28 2
    34   16   30 1
    35   17   18 1
    36   17   40 1
    37   17   41 1
    38   18   19 1
    39   18   42 1
    40   18   43 1
    41   19   26 1
    42   19   44 1
    43   20   45 1
    44   20   46 1
    45   20   47 1
    46   21   24 1
    47   21   48 1
    48   21   49 1
    49   21   50 1
    50   22   31 1
    51   22   51 1
    52   22   52 1
    53   22   53 1
    54   23   25 1
    55   23   54 1
    56   23   55 1
    57   24   26 1
    58   24   56 1
    59   24   57 1
    60   25   32 1
    61   25   58 1
    62   25   59 1
    63   26   60 1
    64   30   61 1
