@<TRIPOS>MOLECULE
*****
   42    45     0     0     0
SMALL
NO_CHARGES

@<TRIPOS>ATOM
      1 C1         -7.5139    2.3630   -0.8450 C.ar      1 <0>         0.0000
      2 C2         -7.2397    1.3808   -1.8331 C.ar      1 <0>         0.0000
      3 C3         -6.6556    2.5338    0.2210 C.ar      1 <0>         0.0000
      4 C4         -6.1133    0.5911   -1.7364 C.ar      1 <0>         0.0000
      5 C5         -4.5840    1.8711    1.4373 C.ar      1 <0>         0.0000
      6 C6         -3.4573    1.0835    1.5264 C.ar      1 <0>         0.0000
      7 C7         -4.0355   -0.0470   -0.5245 C.ar      1 <0>         0.0000
      8 C8         -5.4855    1.7356    0.3468 C.ar      1 <0>         0.0000
      9 C9         -5.2070    0.7465   -0.6509 C.ar      1 <0>         0.0000
     10 C10        -3.1542    0.1129    0.5291 C.ar      1 <0>         0.0000
     11 C11         0.1172    2.1399   -0.7292 C.2       1 <0>         0.0000
     12 C12         0.4431   -1.1451   -0.0592 C.2       1 <0>         0.0000
     13 C13         0.2414    3.4695   -0.7208 C.2       1 <0>         0.0000
     14 C14         0.1824    1.2500   -1.9505 C.3       1 <0>         0.0000
     15 C15        -0.1964    1.2697    0.4770 C.3       1 <0>         0.0000
     16 C16        -0.8161    0.1171   -1.6325 C.3       1 <0>         0.0000
     17 C17        -0.4670   -1.2654   -2.1918 C.3       1 <0>         0.0000
     18 C18        -0.6642   -0.0825   -0.1079 C.3       1 <0>         0.0000
     19 C19         0.1001   -1.3305   -3.5978 C.3       1 <0>         0.0000
     20 C20        -1.8913   -0.7099    0.6173 C.3       1 <0>         0.0000
     21 O1          1.1553   -1.4225    0.8775 O.2       1 <0>         0.0000
     22 O2          0.5176   -1.7993   -1.2537 O.3       1 <0>         0.0000
     23 H1         -8.4051    2.9787   -0.9329 H         1 <0>         0.0000
     24 H2         -7.9245    1.2539   -2.6675 H         1 <0>         0.0000
     25 H3         -6.8650    3.2839    0.9803 H         1 <0>         0.0000
     26 H4         -5.9048   -0.1623   -2.4930 H         1 <0>         0.0000
     27 H5         -4.7996    2.6042    2.2113 H         1 <0>         0.0000
     28 H6         -2.7935    1.1878    2.3813 H         1 <0>         0.0000
     29 H7         -3.8421   -0.8072   -1.2798 H         1 <0>         0.0000
     30 H8          0.1585    4.0431    0.1999 H         1 <0>         0.0000
     31 H9          0.4340    4.0288   -1.6336 H         1 <0>         0.0000
     32 H10        -0.0410    1.7776   -2.8810 H         1 <0>         0.0000
     33 H11         1.1970    0.8387   -2.0396 H         1 <0>         0.0000
     34 H12         0.6775    1.1200    1.1197 H         1 <0>         0.0000
     35 H13        -0.9731    1.7343    1.0868 H         1 <0>         0.0000
     36 H14        -1.8266    0.4194   -1.9157 H         1 <0>         0.0000
     37 H15        -1.3457   -1.9194   -2.1256 H         1 <0>         0.0000
     38 H16         1.0158   -0.7411   -3.6861 H         1 <0>         0.0000
     39 H17        -0.6356   -0.9407   -4.3093 H         1 <0>         0.0000
     40 H18         0.3292   -2.3644   -3.8706 H         1 <0>         0.0000
     41 H19        -1.6066   -0.8624    1.6634 H         1 <0>         0.0000
     42 H20        -2.0789   -1.7055    0.2002 H         1 <0>         0.0000
@<TRIPOS>BOND
     1    1    2 ar
     2    1    3 ar
     3    1   23 1
     4    2    4 ar
     5    2   24 1
     6    3    8 ar
     7    3   25 1
     8    4    9 ar
     9    4   26 1
    10    5    6 ar
    11    5    8 ar
    12    5   27 1
    13    6   10 ar
    14    6   28 1
    15    7    9 ar
    16    7   10 ar
    17    7   29 1
    18    8    9 ar
    19   10   20 1
    20   11   13 2
    21   11   14 1
    22   11   15 1
    23   12   18 1
    24   12   21 2
    25   12   22 1
    26   13   30 1
    27   13   31 1
    28   14   16 1
    29   14   32 1
    30   14   33 1
    31   15   18 1
    32   15   34 1
    33   15   35 1
    34   16   17 1
    35   16   18 1
    36   16   36 1
    37   17   19 1
    38   17   22 1
    39   17   37 1
    40   18   20 1
    41   19   38 1
    42   19   39 1
    43   19   40 1
    44   20   41 1
    45   20   42 1
