@<TRIPOS>MOLECULE
*****
   42    45     0     0     0
SMALL
NO_CHARGES

@<TRIPOS>ATOM
      1 C1         -4.2812   -5.2544   -3.3100 C.ar      1 <0>         0.0000
      2 C2         -4.2501   -4.1011   -4.1372 C.ar      1 <0>         0.0000
      3 C3         -3.8951   -5.1712   -1.9882 C.ar      1 <0>         0.0000
      4 C4         -3.8337   -2.8891   -3.6266 C.ar      1 <0>         0.0000
      5 C5         -3.0569   -3.8092   -0.0760 C.ar      1 <0>         0.0000
      6 C6         -2.6364   -2.5999    0.4321 C.ar      1 <0>         0.0000
      7 C7         -2.9881   -1.5409   -1.7115 C.ar      1 <0>         0.0000
      8 C8         -3.4593   -3.9363   -1.4342 C.ar      1 <0>         0.0000
      9 C9         -3.4276   -2.7728   -2.2684 C.ar      1 <0>         0.0000
     10 C10        -2.5902   -1.4378   -0.3919 C.ar      1 <0>         0.0000
     11 C11         0.3347    1.9896   -0.7993 C.2       1 <0>         0.0000
     12 C12         0.0212   -0.9419    1.3595 C.2       1 <0>         0.0000
     13 C13         0.6271    3.2687   -1.0502 C.2       1 <0>         0.0000
     14 C14         0.4001    0.8521   -1.8078 C.3       1 <0>         0.0000
     15 C15        -0.1111    1.4399    0.5476 C.3       1 <0>         0.0000
     16 C16         0.2502   -0.4372   -0.9863 C.3       1 <0>         0.0000
     17 C17         1.5377   -1.0865   -0.4124 C.3       1 <0>         0.0000
     18 C18        -0.5389   -0.0335    0.2748 C.3       1 <0>         0.0000
     19 C19         2.7987   -0.2332   -0.3487 C.3       1 <0>         0.0000
     20 C20        -2.0764   -0.1290    0.1598 C.3       1 <0>         0.0000
     21 O1         -0.4401   -1.1491    2.4603 O.2       1 <0>         0.0000
     22 O2          1.1847   -1.5043    0.9425 O.3       1 <0>         0.0000
     23 H1         -4.6121   -6.2034   -3.7238 H         1 <0>         0.0000
     24 H2         -4.5579   -4.1781   -5.1768 H         1 <0>         0.0000
     25 H3         -3.9196   -6.0532   -1.3521 H         1 <0>         0.0000
     26 H4         -3.8122   -2.0051   -4.2604 H         1 <0>         0.0000
     27 H5         -3.0883   -4.6868    0.5659 H         1 <0>         0.0000
     28 H6         -2.3349   -2.5210    1.4723 H         1 <0>         0.0000
     29 H7         -2.9678   -0.6598   -2.3515 H         1 <0>         0.0000
     30 H8          0.5412    4.0349   -0.2828 H         1 <0>         0.0000
     31 H9          0.9636    3.5933   -2.0325 H         1 <0>         0.0000
     32 H10        -0.4469    0.9283   -2.5005 H         1 <0>         0.0000
     33 H11         1.3057    0.8848   -2.4198 H         1 <0>         0.0000
     34 H12         0.7163    1.4827    1.2643 H         1 <0>         0.0000
     35 H13        -0.9308    2.0147    0.9877 H         1 <0>         0.0000
     36 H14        -0.2888   -1.2030   -1.5469 H         1 <0>         0.0000
     37 H15         1.7634   -2.0132   -0.9461 H         1 <0>         0.0000
     38 H16         2.6297    0.7220    0.1537 H         1 <0>         0.0000
     39 H17         3.1704   -0.0282   -1.3573 H         1 <0>         0.0000
     40 H18         3.5767   -0.7761    0.1950 H         1 <0>         0.0000
     41 H19        -2.4171    0.6938   -0.4782 H         1 <0>         0.0000
     42 H20        -2.4846    0.0480    1.1607 H         1 <0>         0.0000
@<TRIPOS>BOND
     1    1    2 ar
     2    1    3 ar
     3    1   23 1
     4    2    4 ar
     5    2   24 1
     6    3    8 ar
     7    3   25 1
     8    4    9 ar
     9    4   26 1
    10    5    6 ar
    11    5    8 ar
    12    5   27 1
    13    6   10 ar
    14    6   28 1
    15    7    9 ar
    16    7   10 ar
    17    7   29 1
    18    8    9 ar
    19   10   20 1
    20   11   13 2
    21   11   14 1
    22   11   15 1
    23   12   18 1
    24   12   21 2
    25   12   22 1
    26   13   30 1
    27   13   31 1
    28   14   16 1
    29   14   32 1
    30   14   33 1
    31   15   18 1
    32   15   34 1
    33   15   35 1
    34   16   17 1
    35   16   18 1
    36   16   36 1
    37   17   19 1
    38   17   22 1
    39   17   37 1
    40   18   20 1
    41   19   38 1
    42   19   39 1
    43   19   40 1
    44   20   41 1
    45   20   42 1
