@<TRIPOS>MOLECULE
*****
   51    53     0     0     0
SMALL
NO_CHARGES

@<TRIPOS>ATOM
      1 C1          0.3371    3.9886    1.8125 C.ar      1 <0>         0.0000
      2 C2         -0.6069    4.1425   -0.4055 C.ar      1 <0>         0.0000
      3 C3         -0.3111    5.1711    2.1787 C.ar      1 <0>         0.0000
      4 C4         -1.2569    5.3301   -0.0604 C.ar      1 <0>         0.0000
      5 C5          0.1956    3.4591    0.5202 C.ar      1 <0>         0.0000
      6 C6          0.8776    2.1848    0.1483 C.ar      1 <0>         0.0000
      7 C7          0.1236    1.0391   -0.1324 C.ar      1 <0>         0.0000
      8 C8          2.2883    2.1149    0.0932 C.ar      1 <0>         0.0000
      9 C9         -1.0971    5.8203    1.2319 C.ar      1 <0>         0.0000
     10 C10         0.8202   -0.1425   -0.4625 C.ar      1 <0>         0.0000
     11 C11         2.8856    0.8800   -0.2187 C.ar      1 <0>         0.0000
     12 C12        -1.2230   -1.4678   -0.3722 C.2       1 <0>         0.0000
     13 C13         0.0689   -1.3855   -0.7433 C.2       1 <0>         0.0000
     14 C14        -1.3876    1.0037   -0.1318 C.3       1 <0>         0.0000
     15 C15        -1.9578   -0.3482    0.3382 C.3       1 <0>         0.0000
     16 C16         0.8155   -2.5342   -1.3695 C.3       1 <0>         0.0000
     17 C17        -3.4590   -0.4066    0.0104 C.3       1 <0>         0.0000
     18 C18        -1.7604   -0.5082    1.8631 C.3       1 <0>         0.0000
     19 C19         4.8586    0.2959   -1.6636 C.3       1 <0>         0.0000
     20 C20         4.7867   -0.4221    0.7721 C.3       1 <0>         0.0000
     21 C21         3.1255    3.3418    0.3500 C.3       1 <0>         0.0000
     22 C22         4.3917    0.6632   -0.2446 C.3       1 <0>         0.0000
     23 N1          2.1577   -0.2094   -0.5042 N.ar      1 <0>         0.0000
     24 O1          3.5790    3.3131    1.7188 O.3       1 <0>         0.0000
     25 F1         -1.7288    6.9724    1.5799 F         1 <0>         0.0000
     26 H1          0.9686    3.4742    2.5302 H         1 <0>         0.0000
     27 H2         -0.7201    3.7445   -1.4103 H         1 <0>         0.0000
     28 H3         -0.2127    5.5882    3.1764 H         1 <0>         0.0000
     29 H4         -1.8762    5.8691   -0.7709 H         1 <0>         0.0000
     30 H5         -1.7635   -2.4030   -0.5187 H         1 <0>         0.0000
     31 H6         -1.7935    1.8090    0.4863 H         1 <0>         0.0000
     32 H7         -1.7401    1.1887   -1.1571 H         1 <0>         0.0000
     33 H8          1.6416   -2.8545   -0.7273 H         1 <0>         0.0000
     34 H9          1.2645   -2.2366   -2.3232 H         1 <0>         0.0000
     35 H10         0.1481   -3.3829   -1.5426 H         1 <0>         0.0000
     36 H11        -3.9972    0.4120    0.5015 H         1 <0>         0.0000
     37 H12        -3.8985   -1.3495    0.3549 H         1 <0>         0.0000
     38 H13        -3.6318   -0.3285   -1.0685 H         1 <0>         0.0000
     39 H14        -2.3183    0.2641    2.4064 H         1 <0>         0.0000
     40 H15        -0.7036   -0.4233    2.1337 H         1 <0>         0.0000
     41 H16        -2.1174   -1.4869    2.2010 H         1 <0>         0.0000
     42 H17         4.3683   -0.6233   -1.9973 H         1 <0>         0.0000
     43 H18         5.9428    0.1386   -1.6840 H         1 <0>         0.0000
     44 H19         4.6160    1.0885   -2.3807 H         1 <0>         0.0000
     45 H20         4.3064   -1.3723    0.5228 H         1 <0>         0.0000
     46 H21         4.4817   -0.1364    1.7840 H         1 <0>         0.0000
     47 H22         5.8727   -0.5681    0.7699 H         1 <0>         0.0000
     48 H23         3.9840    3.3660   -0.3324 H         1 <0>         0.0000
     49 H24         2.5320    4.2437    0.1670 H         1 <0>         0.0000
     50 H25         4.8901    1.5856    0.0598 H         1 <0>         0.0000
     51 H26         4.1051    4.1144    1.8730 H         1 <0>         0.0000
@<TRIPOS>BOND
     1    1    3 ar
     2    1    5 ar
     3    1   26 1
     4    2    4 ar
     5    2    5 ar
     6    2   27 1
     7    3    9 ar
     8    3   28 1
     9    4    9 ar
    10    4   29 1
    11    5    6 1
    12    6    7 ar
    13    6    8 ar
    14    7   10 ar
    15    7   14 1
    16    8   11 ar
    17    8   21 1
    18    9   25 1
    19   10   13 1
    20   10   23 ar
    21   11   22 1
    22   11   23 ar
    23   12   13 2
    24   12   15 1
    25   12   30 1
    26   13   16 1
    27   14   15 1
    28   14   31 1
    29   14   32 1
    30   15   17 1
    31   15   18 1
    32   16   33 1
    33   16   34 1
    34   16   35 1
    35   17   36 1
    36   17   37 1
    37   17   38 1
    38   18   39 1
    39   18   40 1
    40   18   41 1
    41   19   22 1
    42   19   42 1
    43   19   43 1
    44   19   44 1
    45   20   22 1
    46   20   45 1
    47   20   46 1
    48   20   47 1
    49   21   24 1
    50   21   48 1
    51   21   49 1
    52   22   50 1
    53   24   51 1
