@<TRIPOS>MOLECULE
*****
   25    26     0     0     0
SMALL
NO_CHARGES

@<TRIPOS>ATOM
      1 C1          4.9462    0.0782   -0.6894 C.ar      1 <0>         0.0000
      2 C2          4.9413   -0.5355   -1.9476 C.ar      1 <0>         0.0000
      3 C3          3.8533    0.8375   -0.2730 C.ar      1 <0>         0.0000
      4 C4          3.8310   -0.3858   -2.7725 C.ar      1 <0>         0.0000
      5 C5          2.7093    0.9980   -1.0699 C.ar      1 <0>         0.0000
      6 C6          2.7319    0.3529   -2.3192 C.ar      1 <0>         0.0000
      7 C7          2.0383    3.0528    0.2491 C.2       1 <0>         0.0000
      8 C8          0.6344    1.0112    0.3269 C.2       1 <0>         0.0000
      9 C9          1.9010    3.1460    1.5833 C.2       1 <0>         0.0000
     10 C10         0.5641    1.1665    1.6589 C.2       1 <0>         0.0000
     11 C11         1.5482    1.8566   -0.5435 C.3       1 <0>         0.0000
     12 N1          1.2974    2.1437    2.3464 N.pl3     1 <0>         0.0000
     13 N2          1.5798    0.4059   -3.2355 N.pl3     1 <0>         0.0000
     14 O1          0.4434    0.4235   -2.7452 O.3       1 <0>         0.0000
     15 O2          1.8125    0.4029   -4.4498 O.2       1 <0>         0.0000
     16 H1          5.8073   -0.0298   -0.0350 H         1 <0>         0.0000
     17 H2          5.7915   -1.1227   -2.2823 H         1 <0>         0.0000
     18 H3          3.8753    1.3318    0.6931 H         1 <0>         0.0000
     19 H4          3.7924   -0.8376   -3.7573 H         1 <0>         0.0000
     20 H5          2.5322    3.8592   -0.2846 H         1 <0>         0.0000
     21 H6          0.0532    0.2348   -0.1566 H         1 <0>         0.0000
     22 H7          2.2653    4.0031    2.1419 H         1 <0>         0.0000
     23 H8         -0.0634    0.5347    2.2802 H         1 <0>         0.0000
     24 H9          0.9813    2.2132   -1.4073 H         1 <0>         0.0000
     25 H10         0.9529    2.4116    3.2581 H         1 <0>         0.0000
@<TRIPOS>BOND
     1    1    2 ar
     2    1    3 ar
     3    1   16 1
     4    2    4 ar
     5    2   17 1
     6    3    5 ar
     7    3   18 1
     8    4    6 ar
     9    4   19 1
    10    5    6 ar
    11    5   11 1
    12    6   13 1
    13    7    9 2
    14    7   11 1
    15    7   20 1
    16    8   10 2
    17    8   11 1
    18    8   21 1
    19    9   12 1
    20    9   22 1
    21   10   12 1
    22   10   23 1
    23   11   24 1
    24   12   25 1
    25   13   14 1
    26   13   15 2
