@<TRIPOS>MOLECULE
*****
   22    23     0     0     0
SMALL
NO_CHARGES

@<TRIPOS>ATOM
      1 C1          1.8851   -1.0363   -0.1124 C.ar      1 <0>         0.0000
      2 C2          0.8066   -0.4630    0.5610 C.ar      1 <0>         0.0000
      3 C3          2.9210   -1.6309    0.6081 C.ar      1 <0>         0.0000
      4 C4          0.7638   -0.4841    1.9551 C.ar      1 <0>         0.0000
      5 C5          5.4127   -2.8523    4.1135 C.2       1 <0>         0.0000
      6 C6          2.8783   -1.6520    2.0022 C.ar      1 <0>         0.0000
      7 C7          1.7997   -1.0786    2.6757 C.ar      1 <0>         0.0000
      8 C8          3.9612   -2.2727    2.7299 C.2       1 <0>         0.0000
      9 C9          1.0870   -2.1994    4.6485 C.3       1 <0>         0.0000
     10 N1          4.3996   -1.9561    3.9261 N.2       1 <0>         0.0000
     11 N2          5.6287   -3.7035    3.1085 N.2       1 <0>         0.0000
     12 N3          4.6874   -3.3115    2.2365 N.pl3     1 <0>         0.0000
     13 O1          1.7322   -1.0844    4.0378 O.3       1 <0>         0.0000
     14 H1          1.9188   -1.0190   -1.1980 H         1 <0>         0.0000
     15 H2         -0.0002   -0.0005   -0.0001 H         1 <0>         0.0000
     16 H3          3.7538   -2.0736    0.0673 H         1 <0>         0.0000
     17 H4         -0.0795   -0.0360    2.4733 H         1 <0>         0.0000
     18 H5          6.0116   -2.8868    5.0112 H         1 <0>         0.0000
     19 H6          1.1018   -2.0798    5.7345 H         1 <0>         0.0000
     20 H7          1.6033   -3.1201    4.3655 H         1 <0>         0.0000
     21 H8          0.0514   -2.2437    4.3031 H         1 <0>         0.0000
     22 H9          4.6072   -3.7908    1.3471 H         1 <0>         0.0000
@<TRIPOS>BOND
     1    1    2 ar
     2    1    3 ar
     3    1   14 1
     4    2    4 ar
     5    2   15 1
     6    3    6 ar
     7    3   16 1
     8    4    7 ar
     9    4   17 1
    10    5   10 1
    11    5   11 2
    12    5   18 1
    13    6    7 ar
    14    6    8 1
    15    7   13 1
    16    8   10 2
    17    8   12 1
    18    9   13 1
    19    9   19 1
    20    9   20 1
    21    9   21 1
    22   11   12 1
    23   12   22 1
