@<TRIPOS>MOLECULE
*****
   21    21     0     0     0
SMALL
NO_CHARGES

@<TRIPOS>ATOM
      1 C1          1.5889    3.5657   -2.4569 C.2       1 <0>         0.0000
      2 C2          1.2107    3.7586   -3.7674 C.2       1 <0>         0.0000
      3 C3          0.9218    2.4543   -1.8654 C.2       1 <0>         0.0000
      4 C4          0.0588    1.8401   -2.7464 C.2       1 <0>         0.0000
      5 C5          1.1053    2.0020   -0.5113 C.2       1 <0>         0.0000
      6 C6         -2.8814    2.1572   -1.5109 C.3       1 <0>         0.0000
      7 N1          1.9225    2.5753    0.3379 N.2       1 <0>         0.0000
      8 N2         -2.0721    0.9386   -1.3672 N.pl3     1 <0>         0.0000
      9 O1         -1.7770    0.3565   -3.8593 O.2       1 <0>         0.0000
     10 O2         -0.2270   -0.6708   -2.1662 O.2       1 <0>         0.0000
     11 O3          1.8781    1.9069    1.5642 O.3       1 <0>         0.0000
     12 S1          0.0557    2.6028   -4.2796 S.3       1 <0>         0.0000
     13 S2         -1.0264    0.4504   -2.6217 S.o2      1 <0>         0.0000
     14 H1          2.3102    4.1954   -1.9519 H         1 <0>         0.0000
     15 H2          1.5569    4.5231   -4.4486 H         1 <0>         0.0000
     16 H3          0.5197    1.1118   -0.1630 H         1 <0>         0.0000
     17 H4         -3.0523    2.3721   -2.5689 H         1 <0>         0.0000
     18 H5         -2.3663    3.0086   -1.0576 H         1 <0>         0.0000
     19 H6         -3.8484    2.0292   -1.0170 H         1 <0>         0.0000
     20 H7         -1.8563    0.6519   -0.4046 H         1 <0>         0.0000
     21 H8          2.5143    2.4209    2.0899 H         1 <0>         0.0000
@<TRIPOS>BOND
     1    1    2 2
     2    1    3 1
     3    1   14 1
     4    2   12 1
     5    2   15 1
     6    3    4 2
     7    3    5 1
     8    4   12 1
     9    4   13 1
    10    5    7 2
    11    5   16 1
    12    6    8 1
    13    6   17 1
    14    6   18 1
    15    6   19 1
    16    7   11 1
    17    8   13 1
    18    8   20 1
    19    9   13 2
    20   10   13 2
    21   11   21 1
