@<TRIPOS>MOLECULE
*****
   27    28     0     0     0
SMALL
NO_CHARGES

@<TRIPOS>ATOM
      1 C1         -1.5172   -0.4551    1.4689 C.ar      1 <0>         0.0000
      2 C2         -0.5800   -0.7879    0.4732 C.ar      1 <0>         0.0000
      3 C3         -2.2800   -1.4446    2.0980 C.ar      1 <0>         0.0000
      4 C4         -0.3882   -2.1153    0.0878 C.ar      1 <0>         0.0000
      5 C5         -2.0852   -2.7592    1.7114 C.ar      1 <0>         0.0000
      6 C6         -1.1525   -3.0722    0.7228 C.ar      1 <0>         0.0000
      7 C7         -2.7951   -3.9314    2.2606 C.2       1 <0>         0.0000
      8 C8         -3.9451   -6.7503    1.0020 C.2       1 <0>         0.0000
      9 C9         -4.2718   -7.9854    0.5932 C.2       1 <0>         0.0000
     10 C10        -2.7778   -6.4518    1.8866 C.3       1 <0>         0.0000
     11 C11        -3.5083   -9.2073    0.9733 C.3       1 <0>         0.0000
     12 N1         -2.2940   -5.0965    1.5882 N.am      1 <0>         0.0000
     13 O1         -3.6486   -3.8981    3.1283 O.2       1 <0>         0.0000
     14 O2         -1.6059   -5.0211   -0.9226 O.2       1 <0>         0.0000
     15 O3          0.1994   -5.2779    0.8583 O.2       1 <0>         0.0000
     16 S1         -1.0826   -4.7837    0.4052 S.o2      1 <0>         0.0000
     17 Br1        -2.1701   -9.5475   -0.3958 Br        1 <0>         0.0000
     18 H1         -1.6484    0.5860    1.7523 H         1 <0>         0.0000
     19 H2          0.0001    0.0002    0.0000 H         1 <0>         0.0000
     20 H3         -2.9992   -1.1767    2.8646 H         1 <0>         0.0000
     21 H4          0.3330   -2.3734   -0.6788 H         1 <0>         0.0000
     22 H5         -4.5600   -5.9073    0.6956 H         1 <0>         0.0000
     23 H6         -5.1513   -8.1224   -0.0319 H         1 <0>         0.0000
     24 H7         -3.0877   -6.4941    2.9353 H         1 <0>         0.0000
     25 H8         -1.9542   -7.1590    1.7444 H         1 <0>         0.0000
     26 H9         -4.1594  -10.0841    1.0127 H         1 <0>         0.0000
     27 H10        -2.9717   -9.1077    1.9205 H         1 <0>         0.0000
@<TRIPOS>BOND
     1    1    2 ar
     2    1    3 ar
     3    1   18 1
     4    2    4 ar
     5    2   19 1
     6    3    5 ar
     7    3   20 1
     8    4    6 ar
     9    4   21 1
    10    5    6 ar
    11    5    7 1
    12    6   16 1
    13    7   12 am
    14    7   13 2
    15    8    9 2
    16    8   10 1
    17    8   22 1
    18    9   11 1
    19    9   23 1
    20   10   12 1
    21   10   24 1
    22   10   25 1
    23   11   17 1
    24   11   26 1
    25   11   27 1
    26   12   16 1
    27   14   16 2
    28   15   16 2
