@<TRIPOS>MOLECULE
*****
   27    29     0     0     0
SMALL
NO_CHARGES

@<TRIPOS>ATOM
      1 C1         -1.8707    0.8527   -1.6680 C.ar      1 <0>         0.0000
      2 C2         -1.1511   -0.1624   -1.0206 C.ar      1 <0>         0.0000
      3 C3         -3.0204    0.5359   -2.4062 C.ar      1 <0>         0.0000
      4 C4         -1.5533   -1.5026   -1.0906 C.ar      1 <0>         0.0000
      5 C5         -3.4234   -0.7928   -2.4839 C.ar      1 <0>         0.0000
      6 C6         -2.6976   -1.7904   -1.8330 C.ar      1 <0>         0.0000
      7 C7         -6.2447   -0.8073   -1.4083 C.2       1 <0>         0.0000
      8 C8         -6.3987   -0.9824    0.7801 C.3       1 <0>         0.0000
      9 C9         -7.5063   -0.0194    0.2754 C.3       1 <0>         0.0000
     10 C10        -4.4145   -2.9329   -2.8071 C.3       1 <0>         0.0000
     11 C11        -4.6216   -1.4295   -3.1564 C.3       1 <0>         0.0000
     12 N1         -5.7472   -1.4776   -0.4394 N.2       1 <0>         0.0000
     13 N2         -5.9341   -0.9141   -2.7425 N.pl3     1 <0>         0.0000
     14 O1         -3.2159   -3.0417   -1.9968 O.3       1 <0>         0.0000
     15 O2         -7.2238    0.1214   -1.1452 O.3       1 <0>         0.0000
     16 H1         -1.5368    1.8839   -1.5960 H         1 <0>         0.0000
     17 H2         -0.2623    0.0933   -0.4491 H         1 <0>         0.0000
     18 H3         -3.5901    1.3201   -2.9011 H         1 <0>         0.0000
     19 H4         -1.0062   -2.2911   -0.5829 H         1 <0>         0.0000
     20 H5         -5.6632   -0.4699    1.4117 H         1 <0>         0.0000
     21 H6         -6.8125   -1.8128    1.3612 H         1 <0>         0.0000
     22 H7         -8.5146   -0.4322    0.3762 H         1 <0>         0.0000
     23 H8         -7.4736    0.9763    0.7224 H         1 <0>         0.0000
     24 H9         -5.2506   -3.3234   -2.2278 H         1 <0>         0.0000
     25 H10        -4.2592   -3.5398   -3.7029 H         1 <0>         0.0000
     26 H11        -4.5923   -1.2875   -4.2407 H         1 <0>         0.0000
     27 H12        -6.2860   -0.1393   -3.2908 H         1 <0>         0.0000
@<TRIPOS>BOND
     1    1    2 ar
     2    1    3 ar
     3    1   16 1
     4    2    4 ar
     5    2   17 1
     6    3    5 ar
     7    3   18 1
     8    4    6 ar
     9    4   19 1
    10    5    6 ar
    11    5   11 1
    12    6   14 1
    13    7   12 2
    14    7   13 1
    15    7   15 1
    16    8    9 1
    17    8   12 1
    18    8   20 1
    19    8   21 1
    20    9   15 1
    21    9   22 1
    22    9   23 1
    23   10   11 1
    24   10   14 1
    25   10   24 1
    26   10   25 1
    27   11   13 1
    28   11   26 1
    29   13   27 1
