@<TRIPOS>MOLECULE
*****
   31    32     0     0     0
SMALL
NO_CHARGES

@<TRIPOS>ATOM
      1 C1         -2.1555    1.9526   -3.3347 C.ar      1 <0>         0.0000
      2 C2         -1.3035   -0.1465   -4.2195 C.ar      1 <0>         0.0000
      3 C3         -3.3089    1.8132   -4.1113 C.ar      1 <0>         0.0000
      4 C4         -2.4551   -0.2925   -4.9945 C.ar      1 <0>         0.0000
      5 C5         -1.1725    0.9666   -3.3851 C.ar      1 <0>         0.0000
      6 C6         -3.4492    0.6897   -4.9290 C.ar      1 <0>         0.0000
      7 C7          1.2486   -0.5079   -0.4325 C.2       1 <0>         0.0000
      8 C8         -1.2266   -0.2183    1.1821 C.3       1 <0>         0.0000
      9 C9         -0.3881    0.7361    2.0529 C.3       1 <0>         0.0000
     10 C10        -1.3087    0.2322   -0.2877 C.3       1 <0>         0.0000
     11 C11         0.8557    1.2624    1.3228 C.3       1 <0>         0.0000
     12 C12        -0.0743   -0.1512   -1.1256 C.3       1 <0>         0.0000
     13 N1          1.6224    0.2004    0.6664 N.am      1 <0>         0.0000
     14 O1          1.9435   -1.4114   -0.9027 O.2       1 <0>         0.0000
     15 O2          0.1438    2.5278   -1.6639 O.2       1 <0>         0.0000
     16 S1          0.3301    1.2001   -2.3831 S.o       1 <0>         0.0000
     17 Cl1        -4.8960    0.5093   -5.9034 Cl        1 <0>         0.0000
     18 H1         -2.0044    2.8159   -2.6922 H         1 <0>         0.0000
     19 H2         -0.5201   -0.8994   -4.2730 H         1 <0>         0.0000
     20 H3         -4.0886    2.5680   -4.0848 H         1 <0>         0.0000
     21 H4         -2.5791   -1.1521   -5.6454 H         1 <0>         0.0000
     22 H5         -0.8165   -1.2331    1.2343 H         1 <0>         0.0000
     23 H6         -2.2394   -0.2799    1.5940 H         1 <0>         0.0000
     24 H7         -0.9942    1.6054    2.3368 H         1 <0>         0.0000
     25 H8         -0.1006    0.2291    2.9810 H         1 <0>         0.0000
     26 H9         -2.1824   -0.2174   -0.7667 H         1 <0>         0.0000
     27 H10        -1.4558    1.3174   -0.3230 H         1 <0>         0.0000
     28 H11         0.5784    2.0077    0.5745 H         1 <0>         0.0000
     29 H12         1.5291    1.7601    2.0250 H         1 <0>         0.0000
     30 H13        -0.2752   -1.0265   -1.7447 H         1 <0>         0.0000
     31 H14         2.4897   -0.1186    1.0825 H         1 <0>         0.0000
@<TRIPOS>BOND
     1    1    3 ar
     2    1    5 ar
     3    1   18 1
     4    2    4 ar
     5    2    5 ar
     6    2   19 1
     7    3    6 ar
     8    3   20 1
     9    4    6 ar
    10    4   21 1
    11    5   16 1
    12    6   17 1
    13    7   12 1
    14    7   13 am
    15    7   14 2
    16    8    9 1
    17    8   10 1
    18    8   22 1
    19    8   23 1
    20    9   11 1
    21    9   24 1
    22    9   25 1
    23   10   12 1
    24   10   26 1
    25   10   27 1
    26   11   13 1
    27   11   28 1
    28   11   29 1
    29   12   16 1
    30   12   30 1
    31   13   31 1
    32   15   16 2
