@<TRIPOS>MOLECULE
*****
   31    32     0     0     0
SMALL
NO_CHARGES

@<TRIPOS>ATOM
      1 C1         -1.6650    1.3103    3.6862 C.ar      1 <0>         0.0000
      2 C2         -3.1041   -0.1552    2.3802 C.ar      1 <0>         0.0000
      3 C3         -2.0496    0.6525    4.8569 C.ar      1 <0>         0.0000
      4 C4         -3.4903   -0.8153    3.5495 C.ar      1 <0>         0.0000
      5 C5         -2.1798    0.8901    2.4591 C.ar      1 <0>         0.0000
      6 C6         -2.9550   -0.4082    4.7744 C.ar      1 <0>         0.0000
      7 C7         -0.9214   -0.5883   -0.1726 C.2       1 <0>         0.0000
      8 C8          2.0579    0.7811   -0.5515 C.3       1 <0>         0.0000
      9 C9          2.1398   -0.6697   -1.0443 C.3       1 <0>         0.0000
     10 C10         0.6497    1.3927   -0.5002 C.3       1 <0>         0.0000
     11 C11         1.3628   -1.6767   -0.1840 C.3       1 <0>         0.0000
     12 C12        -0.2954    0.6475    0.4533 C.3       1 <0>         0.0000
     13 N1         -0.0888   -1.6449   -0.3804 N.am      1 <0>         0.0000
     14 O1         -2.1137   -0.6259   -0.4913 O.2       1 <0>         0.0000
     15 O2         -0.9006    3.0365    1.5112 O.2       1 <0>         0.0000
     16 S1         -1.6648    1.8320    0.9793 S.o       1 <0>         0.0000
     17 Cl1        -3.4428   -1.2387    6.2428 Cl        1 <0>         0.0000
     18 H1         -0.9848    2.1578    3.7100 H         1 <0>         0.0000
     19 H2         -3.5037   -0.4623    1.4196 H         1 <0>         0.0000
     20 H3         -1.6600    0.9635    5.8213 H         1 <0>         0.0000
     21 H4         -4.2027   -1.6332    3.5104 H         1 <0>         0.0000
     22 H5          2.5003    0.8413    0.4519 H         1 <0>         0.0000
     23 H6          2.6807    1.4096   -1.1981 H         1 <0>         0.0000
     24 H7          1.7829   -0.7428   -2.0790 H         1 <0>         0.0000
     25 H8          3.1931   -0.9751   -1.0492 H         1 <0>         0.0000
     26 H9          0.7333    2.4231   -0.1403 H         1 <0>         0.0000
     27 H10         0.2057    1.4285   -1.5021 H         1 <0>         0.0000
     28 H11         1.6803   -2.6929   -0.4294 H         1 <0>         0.0000
     29 H12         1.5966   -1.5259    0.8774 H         1 <0>         0.0000
     30 H13         0.2331    0.4019    1.3809 H         1 <0>         0.0000
     31 H14        -0.5302   -2.4236   -0.8570 H         1 <0>         0.0000
@<TRIPOS>BOND
     1    1    3 ar
     2    1    5 ar
     3    1   18 1
     4    2    4 ar
     5    2    5 ar
     6    2   19 1
     7    3    6 ar
     8    3   20 1
     9    4    6 ar
    10    4   21 1
    11    5   16 1
    12    6   17 1
    13    7   12 1
    14    7   13 am
    15    7   14 2
    16    8    9 1
    17    8   10 1
    18    8   22 1
    19    8   23 1
    20    9   11 1
    21    9   24 1
    22    9   25 1
    23   10   12 1
    24   10   26 1
    25   10   27 1
    26   11   13 1
    27   11   28 1
    28   11   29 1
    29   12   16 1
    30   12   30 1
    31   13   31 1
    32   15   16 2
