@<TRIPOS>MOLECULE
*****
   31    32     0     0     0
SMALL
NO_CHARGES

@<TRIPOS>ATOM
      1 C1         -0.4330    2.3903    3.7888 C.ar      1 <0>         0.0000
      2 C2         -0.6850    4.3476    2.3738 C.ar      1 <0>         0.0000
      3 C3          0.3417    3.1292    4.6846 C.ar      1 <0>         0.0000
      4 C4          0.0874    5.0956    3.2674 C.ar      1 <0>         0.0000
      5 C5         -0.9244    2.9989    2.6304 C.ar      1 <0>         0.0000
      6 C6          0.5979    4.4769    4.4103 C.ar      1 <0>         0.0000
      7 C7         -1.1850   -0.1655    0.0988 C.2       1 <0>         0.0000
      8 C8          1.6636    1.4384   -0.5077 C.3       1 <0>         0.0000
      9 C9          1.7735    0.0532   -1.1550 C.3       1 <0>         0.0000
     10 C10         0.2357    1.9426   -0.2549 C.3       1 <0>         0.0000
     11 C11         1.1489   -1.0772   -0.3276 C.3       1 <0>         0.0000
     12 C12        -0.5585    1.0766    0.7326 C.3       1 <0>         0.0000
     13 N1         -0.3141   -1.1120   -0.3580 N.am      1 <0>         0.0000
     14 O1         -2.4032   -0.3029    0.0002 O.2       1 <0>         0.0000
     15 O2         -2.3985    3.0843    0.4134 O.2       1 <0>         0.0000
     16 S1         -1.9858    2.0730    1.4629 S.o       1 <0>         0.0000
     17 Cl1         1.5694    5.4095    5.5357 Cl        1 <0>         0.0000
     18 H1         -0.6529    1.3466    4.0052 H         1 <0>         0.0000
     19 H2         -1.1148    4.7948    1.4809 H         1 <0>         0.0000
     20 H3          0.7341    2.6723    5.5876 H         1 <0>         0.0000
     21 H4          0.2870    6.1465    3.0821 H         1 <0>         0.0000
     22 H5          2.2117    1.4324    0.4445 H         1 <0>         0.0000
     23 H6          2.1727    2.1676   -1.1484 H         1 <0>         0.0000
     24 H7          1.3091    0.0592   -2.1485 H         1 <0>         0.0000
     25 H8          2.8352   -0.1813   -1.2996 H         1 <0>         0.0000
     26 H9          0.2991    2.9581    0.1459 H         1 <0>         0.0000
     27 H10        -0.3262    2.0203   -1.1900 H         1 <0>         0.0000
     28 H11         1.4835   -2.0427   -0.7150 H         1 <0>         0.0000
     29 H12         1.5024   -1.0206    0.7107 H         1 <0>         0.0000
     30 H13         0.0699    0.7869    1.5821 H         1 <0>         0.0000
     31 H14        -0.7709   -1.9009   -0.8014 H         1 <0>         0.0000
@<TRIPOS>BOND
     1    1    3 ar
     2    1    5 ar
     3    1   18 1
     4    2    4 ar
     5    2    5 ar
     6    2   19 1
     7    3    6 ar
     8    3   20 1
     9    4    6 ar
    10    4   21 1
    11    5   16 1
    12    6   17 1
    13    7   12 1
    14    7   13 am
    15    7   14 2
    16    8    9 1
    17    8   10 1
    18    8   22 1
    19    8   23 1
    20    9   11 1
    21    9   24 1
    22    9   25 1
    23   10   12 1
    24   10   26 1
    25   10   27 1
    26   11   13 1
    27   11   28 1
    28   11   29 1
    29   12   16 1
    30   12   30 1
    31   13   31 1
    32   15   16 2
