@<TRIPOS>MOLECULE
*****
   27    28     0     0     0
SMALL
NO_CHARGES

@<TRIPOS>ATOM
      1 C1          2.0212   -0.8177   -0.0491 C.ar      1 <0>         0.0000
      2 C2          0.6329    3.1456    5.8023 C.ar      1 <0>         0.0000
      3 C3          3.0165   -0.1070    0.6423 C.ar      1 <0>         0.0000
      4 C4          1.9398    2.7666    6.1261 C.ar      1 <0>         0.0000
      5 C5          1.0906   -1.5913    0.6334 C.ar      1 <0>         0.0000
      6 C6         -0.1995    2.2913    5.0760 C.ar      1 <0>         0.0000
      7 C7          3.0572   -0.1822    2.0288 C.ar      1 <0>         0.0000
      8 C8          2.4132    1.5193    5.7154 C.ar      1 <0>         0.0000
      9 C9          1.1149   -1.6798    2.0383 C.ar      1 <0>         0.0000
     10 C10         0.2693    1.0376    4.6672 C.ar      1 <0>         0.0000
     11 C11         2.1126   -0.9511    2.7252 C.ar      1 <0>         0.0000
     12 C12         1.5829    0.6607    4.9924 C.ar      1 <0>         0.0000
     13 O1          1.3175   -1.9992    5.0102 O.2       1 <0>         0.0000
     14 O2          3.6428   -0.9544    4.9049 O.2       1 <0>         0.0000
     15 O3          0.1818   -2.4628    2.6171 O.3       1 <0>         0.0000
     16 O4         -0.4865    0.1597    3.9493 O.3       1 <0>         0.0000
     17 S1          2.2299   -0.9458    4.5060 S.o2      1 <0>         0.0000
     18 H1          1.9788   -0.7716   -1.1343 H         1 <0>         0.0000
     19 H2          0.2545    4.1152    6.1144 H         1 <0>         0.0000
     20 H3          3.7496    0.4860    0.1044 H         1 <0>         0.0000
     21 H4          2.5829    3.4339    6.6914 H         1 <0>         0.0000
     22 H5          0.3260   -2.1547    0.1067 H         1 <0>         0.0000
     23 H6         -1.2148    2.5941    4.8263 H         1 <0>         0.0000
     24 H7          3.8240    0.3437    2.5902 H         1 <0>         0.0000
     25 H8          3.4224    1.1926    5.9455 H         1 <0>         0.0000
     26 H9          0.3226   -2.4651    3.5922 H         1 <0>         0.0000
     27 H10        -1.3541    0.5476    3.7529 H         1 <0>         0.0000
@<TRIPOS>BOND
     1    1    3 ar
     2    1    5 ar
     3    1   18 1
     4    2    4 ar
     5    2    6 ar
     6    2   19 1
     7    3    7 ar
     8    3   20 1
     9    4    8 ar
    10    4   21 1
    11    5    9 ar
    12    5   22 1
    13    6   10 ar
    14    6   23 1
    15    7   11 ar
    16    7   24 1
    17    8   12 ar
    18    8   25 1
    19    9   11 ar
    20    9   15 1
    21   10   12 ar
    22   10   16 1
    23   11   17 1
    24   12   17 1
    25   13   17 2
    26   14   17 2
    27   15   26 1
    28   16   27 1
