@<TRIPOS>MOLECULE
*****
   28    29     0     0     0
SMALL
NO_CHARGES

@<TRIPOS>ATOM
      1 C1         -0.4132   -0.0792   -9.2070 C.ar      1 <0>         0.0000
      2 C2         -1.6112   -0.4792   -8.6082 C.ar      1 <0>         0.0000
      3 C3          0.6664    0.3300   -8.4212 C.ar      1 <0>         0.0000
      4 C4         -0.6427   -0.0845   -6.3722 C.ar      1 <0>         0.0000
      5 C5         -1.6978   -0.4660   -7.2233 C.ar      1 <0>         0.0000
      6 C6          0.5202    0.3222   -7.0405 C.ar      1 <0>         0.0000
      7 C7          3.5087   -2.0241   -1.0398 C.2       1 <0>         0.0000
      8 C8          4.1108   -1.9888   -2.3824 C.2       1 <0>         0.0000
      9 C9          1.8927   -1.2651   -3.0367 C.2       1 <0>         0.0000
     10 C10        -0.8847   -0.0796   -4.9092 C.2       1 <0>         0.0000
     11 C11         4.3814   -2.4447    0.1046 C.3       1 <0>         0.0000
     12 N1          2.2623   -1.7060   -0.8152 N.2       1 <0>         0.0000
     13 N2          1.4151   -1.3163   -1.8241 N.2       1 <0>         0.0000
     14 N3         -0.1437   -0.4379   -3.9198 N.2       1 <0>         0.0000
     15 N4          3.1931   -1.5809   -3.3530 N.am      1 <0>         0.0000
     16 N5          1.1069   -0.9141   -4.1232 N.pl3     1 <0>         0.0000
     17 O1          5.2689   -2.2695   -2.6742 O.2       1 <0>         0.0000
     18 F1         -2.8603   -0.8491   -6.6490 F         1 <0>         0.0000
     19 F2          1.5790    0.7574   -6.2933 F         1 <0>         0.0000
     20 H1         -0.3232   -0.0798  -10.2888 H         1 <0>         0.0000
     21 H2         -2.4677   -0.7989   -9.1925 H         1 <0>         0.0000
     22 H3          1.6016    0.6661   -8.8568 H         1 <0>         0.0000
     23 H4         -1.8866    0.2175   -4.6103 H         1 <0>         0.0000
     24 H5          5.2471   -1.7798    0.1929 H         1 <0>         0.0000
     25 H6          4.7761   -3.4524   -0.0628 H         1 <0>         0.0000
     26 H7          3.8039   -2.4236    1.0298 H         1 <0>         0.0000
     27 H8          3.5468   -1.5342   -4.3059 H         1 <0>         0.0000
     28 H9          1.5824   -0.7460   -5.0051 H         1 <0>         0.0000
@<TRIPOS>BOND
     1    1    3 ar
     2    1    2 ar
     3    1   20 1
     4    2    5 ar
     5    2   21 1
     6    3    6 ar
     7    3   22 1
     8    4    6 ar
     9    4    5 ar
    10    4   10 1
    11    5   18 1
    12    6   19 1
    13    7    8 1
    14    7   11 1
    15    7   12 2
    16    8   15 am
    17    8   17 2
    18    9   13 2
    19    9   15 1
    20    9   16 1
    21   10   14 2
    22   10   23 1
    23   11   24 1
    24   11   25 1
    25   11   26 1
    26   12   13 1
    27   14   16 1
    28   15   27 1
    29   16   28 1
