@<TRIPOS>MOLECULE
*****
   38    39     0     0     0
SMALL
NO_CHARGES

@<TRIPOS>ATOM
      1 C1          2.0205   -2.2473   -2.2328 C.1       1 <0>         0.0000
      2 C2         -0.3503   -1.4084   -2.2095 C.2       1 <0>         0.0000
      3 C3         -1.7434   -1.0999    1.2195 C.3       1 <0>         0.0000
      4 C4          0.2059    3.0606    0.1301 C.3       1 <0>         0.0000
      5 C5         -1.1203    0.2403    1.6491 C.3       1 <0>         0.0000
      6 C6         -0.3865    1.7268   -0.3432 C.3       1 <0>         0.0000
      7 C7         -1.8141   -1.2560   -0.2973 C.3       1 <0>         0.0000
      8 C8          1.5181    2.6257    0.7774 C.3       1 <0>         0.0000
      9 C9          0.5907   -0.5819   -0.0252 C.3       1 <0>         0.0000
     10 C10         0.0392    0.6622    0.7135 C.3       1 <0>         0.0000
     11 C11         2.1909    1.6450    3.9475 C.3       1 <0>         0.0000
     12 C12         1.0524   -1.3371   -2.8520 C.3       1 <0>         0.0000
     13 N1          2.7707   -2.9779   -1.7277 N.1       1 <0>         0.0000
     14 N2         -0.4676   -1.1185   -0.8865 N.am      1 <0>         0.0000
     15 N3          1.0897    1.4038    1.4838 N.pl3     1 <0>         0.0000
     16 O1         -1.3115   -1.7325   -2.9060 O.2       1 <0>         0.0000
     17 O2          3.5525    0.7450    1.8703 O.2       1 <0>         0.0000
     18 O3          1.6553   -0.6818    2.8076 O.2       1 <0>         0.0000
     19 S1          2.2133    0.6296    2.4579 S.o2      1 <0>         0.0000
     20 H1         -1.1571   -1.9243    1.6375 H         1 <0>         0.0000
     21 H2         -2.7536   -1.1962    1.6284 H         1 <0>         0.0000
     22 H3          0.3544    3.7702   -0.6878 H         1 <0>         0.0000
     23 H4         -0.4364    3.5290    0.8824 H         1 <0>         0.0000
     24 H5         -1.8749    1.0346    1.6597 H         1 <0>         0.0000
     25 H6         -0.7409    0.1408    2.6667 H         1 <0>         0.0000
     26 H7         -1.4707    1.7613   -0.4654 H         1 <0>         0.0000
     27 H8          0.0375    1.4666   -1.3179 H         1 <0>         0.0000
     28 H9         -2.2134   -2.2338   -0.5771 H         1 <0>         0.0000
     29 H10        -2.4804   -0.5060   -0.7419 H         1 <0>         0.0000
     30 H11         2.2962    2.4143    0.0328 H         1 <0>         0.0000
     31 H12         1.9139    3.3604    1.4832 H         1 <0>         0.0000
     32 H13         1.4517   -0.2863   -0.6231 H         1 <0>         0.0000
     33 H14         0.9326   -1.3381    0.6828 H         1 <0>         0.0000
     34 H15         2.9304    1.2132    4.6244 H         1 <0>         0.0000
     35 H16         2.4694    2.6684    3.6943 H         1 <0>         0.0000
     36 H17         1.1916    1.5988    4.3795 H         1 <0>         0.0000
     37 H18         0.9160   -1.6123   -3.8992 H         1 <0>         0.0000
     38 H19         1.4523   -0.3181   -2.8225 H         1 <0>         0.0000
@<TRIPOS>BOND
     1    1   12 1
     2    1   13 3
     3    2   12 1
     4    2   14 am
     5    2   16 2
     6    3    5 1
     7    3    7 1
     8    3   20 1
     9    3   21 1
    10    4    6 1
    11    4    8 1
    12    4   22 1
    13    4   23 1
    14    5   10 1
    15    5   24 1
    16    5   25 1
    17    6   10 1
    18    6   26 1
    19    6   27 1
    20    7   14 1
    21    7   28 1
    22    7   29 1
    23    8   15 1
    24    8   30 1
    25    8   31 1
    26    9   10 1
    27    9   14 1
    28    9   32 1
    29    9   33 1
    30   10   15 1
    31   11   19 1
    32   11   34 1
    33   11   35 1
    34   11   36 1
    35   12   37 1
    36   12   38 1
    37   15   19 1
    38   17   19 2
    39   18   19 2
