@<TRIPOS>MOLECULE
*****
   33    34     0     0     0
SMALL
NO_CHARGES

@<TRIPOS>ATOM
      1 C1          5.3410    1.3765    2.6881 C.ar      1 <0>         0.0000
      2 C2          5.4761    2.5603    1.9538 C.ar      1 <0>         0.0000
      3 C3          5.2053    0.1576    2.0239 C.ar      1 <0>         0.0000
      4 C4          2.3645   -2.7126    1.3465 C.ar      1 <0>         0.0000
      5 C5          1.1334   -2.5155    1.9613 C.ar      1 <0>         0.0000
      6 C6          5.4980    2.5127    0.5571 C.ar      1 <0>         0.0000
      7 C7          2.3388   -0.4172    0.5815 C.ar      1 <0>         0.0000
      8 C8          1.0891   -0.2116    1.1586 C.ar      1 <0>         0.0000
      9 C9          3.0027   -1.6532    0.6861 C.ar      1 <0>         0.0000
     10 C10         5.2067    0.1054    0.6223 C.ar      1 <0>         0.0000
     11 C11         0.4815   -1.2717    1.8783 C.ar      1 <0>         0.0000
     12 C12         5.3817    1.2926   -0.1150 C.ar      1 <0>         0.0000
     13 C13         0.3886    1.1196    1.0344 C.3       1 <0>         0.0000
     14 C14         6.4269    0.6714   -2.1624 C.3       1 <0>         0.0000
     15 N1          4.2408   -1.9749    0.0546 N.2       1 <0>         0.0000
     16 N2          5.1929   -1.1617   -0.0525 N.2       1 <0>         0.0000
     17 N3         -0.7356   -1.0679    2.5368 N.pl3     1 <0>         0.0000
     18 O1          5.3231    1.3082   -1.4918 O.3       1 <0>         0.0000
     19 H1          5.3355    1.4016    3.7744 H         1 <0>         0.0000
     20 H2          5.5721    3.5147    2.4643 H         1 <0>         0.0000
     21 H3          5.0857   -0.7661    2.5828 H         1 <0>         0.0000
     22 H4          2.8552   -3.6812    1.3789 H         1 <0>         0.0000
     23 H5          0.6574   -3.3344    2.4969 H         1 <0>         0.0000
     24 H6          5.5987    3.4162   -0.0380 H         1 <0>         0.0000
     25 H7          2.7907    0.3919    0.0193 H         1 <0>         0.0000
     26 H8         -0.5690    1.0305    0.5028 H         1 <0>         0.0000
     27 H9          0.1775    1.5517    2.0201 H         1 <0>         0.0000
     28 H10         1.0021    1.8338    0.4808 H         1 <0>         0.0000
     29 H11         6.2409    0.7987   -3.2305 H         1 <0>         0.0000
     30 H12         6.4796   -0.3919   -1.9141 H         1 <0>         0.0000
     31 H13         7.3680    1.1657   -1.8919 H         1 <0>         0.0000
     32 H14        -1.2390   -1.9173    2.7646 H         1 <0>         0.0000
     33 H15        -1.3446   -0.3725    2.1228 H         1 <0>         0.0000
@<TRIPOS>BOND
     1    1    2 ar
     2    1    3 ar
     3    1   19 1
     4    2    6 ar
     5    2   20 1
     6    3   10 ar
     7    3   21 1
     8    4    5 ar
     9    4    9 ar
    10    4   22 1
    11    5   11 ar
    12    5   23 1
    13    6   12 ar
    14    6   24 1
    15    7    8 ar
    16    7    9 ar
    17    7   25 1
    18    8   11 ar
    19    8   13 1
    20    9   15 1
    21   10   12 ar
    22   10   16 1
    23   11   17 1
    24   12   18 1
    25   13   26 1
    26   13   27 1
    27   13   28 1
    28   14   18 1
    29   14   29 1
    30   14   30 1
    31   14   31 1
    32   15   16 2
    33   17   32 1
    34   17   33 1
