@<TRIPOS>MOLECULE
*****
   42    45     0     0     0
SMALL
NO_CHARGES

@<TRIPOS>ATOM
      1 C1         -0.4057    6.5176   -4.4663 C.ar      1 <0>         0.0000
      2 C2         -0.6972    5.2442   -4.9668 C.ar      1 <0>         0.0000
      3 C3          0.6986    6.6934   -3.6250 C.ar      1 <0>         0.0000
      4 C4          2.4413   -2.0645    0.0396 C.ar      1 <0>         0.0000
      5 C5          0.1025    4.1497   -4.6327 C.ar      1 <0>         0.0000
      6 C6          1.5102    5.6109   -3.2822 C.ar      1 <0>         0.0000
      7 C7          1.2320   -1.3998    0.2434 C.ar      1 <0>         0.0000
      8 C8          2.3618    0.7048   -0.2311 C.ar      1 <0>         0.0000
      9 C9          3.6125   -1.3896   -0.3265 C.ar      1 <0>         0.0000
     10 C10         1.2026    4.3439   -3.7904 C.ar      1 <0>         0.0000
     11 C11         3.5544    0.0093   -0.4937 C.ar      1 <0>         0.0000
     12 C12         1.2270   -0.0145    0.1089 C.ar      1 <0>         0.0000
     13 C13         3.5337    2.0967   -2.5264 C.2       1 <0>         0.0000
     14 C14         2.7830    1.2596   -3.3944 C.2       1 <0>         0.0000
     15 C15         4.7665    1.7996   -1.7361 C.2       1 <0>         0.0000
     16 C16         4.9098   -2.1636   -0.4807 C.3       1 <0>         0.0000
     17 C17         6.0621   -1.3182   -1.0379 C.3       1 <0>         0.0000
     18 C18         6.0004    0.1003   -0.4706 C.3       1 <0>         0.0000
     19 C19         2.9280   -0.1973   -3.6978 C.3       1 <0>         0.0000
     20 N1          3.0382    3.3367   -2.5859 N.2       1 <0>         0.0000
     21 N2          1.8382    2.0106   -3.9661 N.2       1 <0>         0.0000
     22 N3          2.0223    3.2353   -3.4448 N.pl3     1 <0>         0.0000
     23 N4          4.7267    0.7071   -0.8815 N.am      1 <0>         0.0000
     24 O1          5.7888    2.4595   -1.9001 O.2       1 <0>         0.0000
     25 F1          0.0754    0.6653    0.3417 F         1 <0>         0.0000
     26 H1         -1.0325    7.3651   -4.7297 H         1 <0>         0.0000
     27 H2         -1.5528    5.0977   -5.6205 H         1 <0>         0.0000
     28 H3          0.9342    7.6791   -3.2331 H         1 <0>         0.0000
     29 H4          2.4775   -3.1450    0.1604 H         1 <0>         0.0000
     30 H5         -0.1119    3.1576   -5.0124 H         1 <0>         0.0000
     31 H6          2.3708    5.7334   -2.6349 H         1 <0>         0.0000
     32 H7          0.3230   -1.9260    0.5163 H         1 <0>         0.0000
     33 H8          2.3113    1.7855   -0.2834 H         1 <0>         0.0000
     34 H9          5.1921   -2.5472    0.5082 H         1 <0>         0.0000
     35 H10         4.7440   -3.0439   -1.1114 H         1 <0>         0.0000
     36 H11         7.0242   -1.7808   -0.7952 H         1 <0>         0.0000
     37 H12         6.0001   -1.2525   -2.1298 H         1 <0>         0.0000
     38 H13         6.0550    0.0900    0.6243 H         1 <0>         0.0000
     39 H14         6.8015    0.7329   -0.8489 H         1 <0>         0.0000
     40 H15         2.4457   -0.8075   -2.9275 H         1 <0>         0.0000
     41 H16         2.4640   -0.4259   -4.6596 H         1 <0>         0.0000
     42 H17         3.9817   -0.4863   -3.7375 H         1 <0>         0.0000
@<TRIPOS>BOND
     1    1    3 ar
     2    1    2 ar
     3    1   26 1
     4    2    5 ar
     5    2   27 1
     6    3    6 ar
     7    3   28 1
     8    4    7 ar
     9    4    9 ar
    10    4   29 1
    11    5   10 ar
    12    5   30 1
    13    6   10 ar
    14    6   31 1
    15    7   12 ar
    16    7   32 1
    17    8   11 ar
    18    8   12 ar
    19    8   33 1
    20    9   11 ar
    21    9   16 1
    22   10   22 1
    23   11   23 1
    24   12   25 1
    25   13   14 1
    26   13   15 1
    27   13   20 2
    28   14   19 1
    29   14   21 2
    30   15   23 am
    31   15   24 2
    32   16   17 1
    33   16   34 1
    34   16   35 1
    35   17   18 1
    36   17   36 1
    37   17   37 1
    38   18   23 1
    39   18   38 1
    40   18   39 1
    41   19   40 1
    42   19   41 1
    43   19   42 1
    44   20   22 1
    45   21   22 1
