@<TRIPOS>MOLECULE
*****
   24    25     0     0     0
SMALL
NO_CHARGES

@<TRIPOS>ATOM
      1 C1         -1.0546    1.8371    1.2000 C.ar      1 <0>         0.0000
      2 C2         -1.2635    2.9706    1.9888 C.ar      1 <0>         0.0000
      3 C3          0.4788    2.2059    3.4931 C.ar      1 <0>         0.0000
      4 C4         -0.0960    0.8667    1.5221 C.ar      1 <0>         0.0000
      5 C5          0.6728    1.0800    2.6875 C.ar      1 <0>         0.0000
      6 C6         -0.4892    3.1326    3.1288 C.ar      1 <0>         0.0000
      7 C7          1.0769   -0.0312   -0.5950 C.3       1 <0>         0.0000
      8 C8         -0.1977   -0.0293   -1.4757 C.3       1 <0>         0.0000
      9 C9          0.1318   -0.3331    0.6151 C.3       1 <0>         0.0000
     10 C10         1.7329    0.0879    3.1097 C.3       1 <0>         0.0000
     11 N1         -0.9345   -0.6733   -0.3580 N.3       1 <0>         0.0000
     12 F1         -0.6778    4.2231    3.9116 F         1 <0>         0.0000
     13 F2          2.4607    0.5308    4.1612 F         1 <0>         0.0000
     14 F3          1.1983   -1.1055    3.4836 F         1 <0>         0.0000
     15 F4          2.6135   -0.1753    2.1083 F         1 <0>         0.0000
     16 H1         -1.6572    1.7154    0.3057 H         1 <0>         0.0000
     17 H2         -2.0096    3.7155    1.7293 H         1 <0>         0.0000
     18 H3          1.0665    2.3673    4.3893 H         1 <0>         0.0000
     19 H4          1.7527   -0.8611   -0.8078 H         1 <0>         0.0000
     20 H5          1.6439    0.8987   -0.5391 H         1 <0>         0.0000
     21 H6         -0.5355    0.9858   -1.7287 H         1 <0>         0.0000
     22 H7         -0.1708   -0.6300   -2.3907 H         1 <0>         0.0000
     23 H8          0.4208   -1.1986    1.2136 H         1 <0>         0.0000
     24 H9         -1.8703   -0.3295   -0.1557 H         1 <0>         0.0000
@<TRIPOS>BOND
     1    1    2 ar
     2    1    4 ar
     3    1   16 1
     4    2    6 ar
     5    2   17 1
     6    3    5 ar
     7    3    6 ar
     8    3   18 1
     9    4    5 ar
    10    4    9 1
    11    5   10 1
    12    6   12 1
    13    7    8 1
    14    7    9 1
    15    7   19 1
    16    7   20 1
    17    8   11 1
    18    8   21 1
    19    8   22 1
    20    9   11 1
    21    9   23 1
    22   10   13 1
    23   10   14 1
    24   10   15 1
    25   11   24 1
