@<TRIPOS>MOLECULE
*****
   23    23     0     0     0
SMALL
NO_CHARGES

@<TRIPOS>ATOM
      1 C1          1.7539   -1.4584   -0.2505 C.ar      1 <0>         0.0000
      2 C2          0.6924   -0.8879    0.4612 C.ar      1 <0>         0.0000
      3 C3          1.8993   -1.2601    2.5276 C.ar      1 <0>         0.0000
      4 C4          2.9654   -1.8233    1.8244 C.ar      1 <0>         0.0000
      5 C5          2.8753   -1.9119    0.4283 C.ar      1 <0>         0.0000
      6 C6          0.7599   -0.7833    1.8577 C.ar      1 <0>         0.0000
      7 C7          5.6668   -0.5039    2.0422 C.3       1 <0>         0.0000
      8 C8         -1.8220    0.3294    1.6794 C.3       1 <0>         0.0000
      9 C9          4.9393   -1.3557    3.0746 C.3       1 <0>         0.0000
     10 O1          4.0671   -2.3326    2.4650 O.3       1 <0>         0.0000
     11 F1          3.9085   -2.4445   -0.2678 F         1 <0>         0.0000
     12 S1         -0.5196   -0.0836    2.8806 S.3       1 <0>         0.0000
     13 H1          1.7186   -1.5456   -1.3325 H         1 <0>         0.0000
     14 H2         -0.1724   -0.5348   -0.0883 H         1 <0>         0.0000
     15 H3          1.9609   -1.2139    3.6120 H         1 <0>         0.0000
     16 H4          6.2315   -1.1361    1.3516 H         1 <0>         0.0000
     17 H5          4.9629    0.1003    1.4614 H         1 <0>         0.0000
     18 H6          6.3619    0.1771    2.5458 H         1 <0>         0.0000
     19 H7         -2.6430    0.7477    2.2660 H         1 <0>         0.0000
     20 H8         -2.1808   -0.5601    1.1554 H         1 <0>         0.0000
     21 H9         -1.4852    1.0816    0.9615 H         1 <0>         0.0000
     22 H10         4.3634   -0.7274    3.7660 H         1 <0>         0.0000
     23 H11         5.6430   -1.9508    3.6613 H         1 <0>         0.0000
@<TRIPOS>BOND
     1    1    2 ar
     2    1    5 ar
     3    1   13 1
     4    2    6 ar
     5    2   14 1
     6    3    4 ar
     7    3    6 ar
     8    3   15 1
     9    4    5 ar
    10    4   10 1
    11    5   11 1
    12    6   12 1
    13    7    9 1
    14    7   16 1
    15    7   17 1
    16    7   18 1
    17    8   12 1
    18    8   19 1
    19    8   20 1
    20    8   21 1
    21    9   10 1
    22    9   22 1
    23    9   23 1
