@<TRIPOS>MOLECULE
*****
   35    37     0     0     0
SMALL
NO_CHARGES

@<TRIPOS>ATOM
      1 C1         -0.9646   -0.9919   -1.7641 C.ar      1 <0>         0.0000
      2 C2          0.3162   -0.5049   -2.0842 C.ar      1 <0>         0.0000
      3 C3         -2.9297   -7.6964   -5.5948 C.ar      1 <0>         0.0000
      4 C4         -2.8077   -6.6975   -7.7912 C.ar      1 <0>         0.0000
      5 C5         -1.5045   -2.0912   -2.4314 C.ar      1 <0>         0.0000
      6 C6         -1.5772   -7.4185   -5.3828 C.ar      1 <0>         0.0000
      7 C7         -1.4580   -6.4158   -7.6020 C.ar      1 <0>         0.0000
      8 C8         -3.5630   -7.3412   -6.7937 C.ar      1 <0>         0.0000
      9 C9          1.1050   -1.0919   -3.0758 C.ar      1 <0>         0.0000
     10 C10         0.5636   -2.2021   -3.7547 C.ar      1 <0>         0.0000
     11 C11        -0.7270   -2.6818   -3.4312 C.ar      1 <0>         0.0000
     12 C12        -0.8593   -6.7762   -6.3905 C.ar      1 <0>         0.0000
     13 C13         0.4863   -3.8891   -5.1846 C.2       1 <0>         0.0000
     14 C14        -5.0220   -7.6511   -7.0268 C.3       1 <0>         0.0000
     15 C15         2.4822   -0.5872   -3.4217 C.3       1 <0>         0.0000
     16 N1          1.2253   -2.9187   -4.7475 N.2       1 <0>         0.0000
     17 N2          0.8718   -4.6958   -6.2606 N.pl3     1 <0>         0.0000
     18 O1          1.6614   -6.8267   -7.2946 O.2       1 <0>         0.0000
     19 O2          1.2241   -6.8501   -4.7796 O.2       1 <0>         0.0000
     20 S1         -1.1205   -4.0557   -4.4546 S.3       1 <0>         0.0000
     21 S2          0.8697   -6.4234   -6.1324 S.o2      1 <0>         0.0000
     22 H1         -1.5430   -0.5037   -0.9844 H         1 <0>         0.0000
     23 H2          0.7060    0.3527   -1.5411 H         1 <0>         0.0000
     24 H3         -3.4984   -8.1924   -4.8123 H         1 <0>         0.0000
     25 H4         -3.2852   -6.4144   -8.7263 H         1 <0>         0.0000
     26 H5         -2.4928   -2.4669   -2.1834 H         1 <0>         0.0000
     27 H6         -1.0853   -7.6776   -4.4511 H         1 <0>         0.0000
     28 H7         -0.8773   -5.9188   -8.3728 H         1 <0>         0.0000
     29 H8         -5.1340   -8.4476   -7.7713 H         1 <0>         0.0000
     30 H9         -5.5145   -7.9802   -6.1084 H         1 <0>         0.0000
     31 H10        -5.5565   -6.7741   -7.4056 H         1 <0>         0.0000
     32 H11         3.2338   -1.3683   -3.2683 H         1 <0>         0.0000
     33 H12         2.5397   -0.2972   -4.4759 H         1 <0>         0.0000
     34 H13         2.7481    0.2775   -2.8080 H         1 <0>         0.0000
     35 H14         1.7761   -4.4027   -6.6357 H         1 <0>         0.0000
@<TRIPOS>BOND
     1    1    2 ar
     2    1    5 ar
     3    1   22 1
     4    2    9 ar
     5    2   23 1
     6    3    6 ar
     7    3    8 ar
     8    3   24 1
     9    4    7 ar
    10    4    8 ar
    11    4   25 1
    12    5   11 ar
    13    5   26 1
    14    6   12 ar
    15    6   27 1
    16    7   12 ar
    17    7   28 1
    18    8   14 1
    19    9   10 ar
    20    9   15 1
    21   10   11 ar
    22   10   16 1
    23   11   20 1
    24   12   21 1
    25   13   16 2
    26   13   17 1
    27   13   20 1
    28   14   29 1
    29   14   30 1
    30   14   31 1
    31   15   32 1
    32   15   33 1
    33   15   34 1
    34   17   21 1
    35   17   35 1
    36   18   21 2
    37   19   21 2
