@<TRIPOS>MOLECULE
*****
   24    24     0     0     0
SMALL
NO_CHARGES

@<TRIPOS>ATOM
      1 C1          1.7295   -0.6994   -0.1179 C.ar      1 <0>         0.0000
      2 C2          0.8133    0.0569    0.6060 C.ar      1 <0>         0.0000
      3 C3          2.5790   -1.6469    1.9558 C.ar      1 <0>         0.0000
      4 C4          2.6153   -1.5564    0.5569 C.ar      1 <0>         0.0000
      5 C5          1.6600   -0.9003    2.6978 C.ar      1 <0>         0.0000
      6 C6          0.7857   -0.0576    1.9958 C.ar      1 <0>         0.0000
      7 C7          3.6037   -2.3620   -0.1942 C.2       1 <0>         0.0000
      8 C8          1.4492   -2.0211    6.1614 C.3       1 <0>         0.0000
      9 C9         -0.3188   -2.3905    4.3698 C.3       1 <0>         0.0000
     10 C10         1.1588   -2.1624    4.6751 C.3       1 <0>         0.0000
     11 O1          3.7225   -2.3628   -1.4092 O.2       1 <0>         0.0000
     12 O2          1.6219   -0.9227    4.0647 O.3       1 <0>         0.0000
     13 F1         -0.1164    0.6636    2.6918 F         1 <0>         0.0000
     14 H1          1.7780   -0.6402   -1.2007 H         1 <0>         0.0000
     15 H2          0.1130    0.7301    0.1204 H         1 <0>         0.0000
     16 H3          3.2785   -2.2934    2.4812 H         1 <0>         0.0000
     17 H4          4.2621   -2.9973    0.4376 H         1 <0>         0.0000
     18 H5          0.8871   -1.1801    6.5791 H         1 <0>         0.0000
     19 H6          1.1569   -2.9327    6.6916 H         1 <0>         0.0000
     20 H7          2.5148   -1.8434    6.3308 H         1 <0>         0.0000
     21 H8         -0.9182   -1.5588    4.7516 H         1 <0>         0.0000
     22 H9         -0.6611   -3.3174    4.8417 H         1 <0>         0.0000
     23 H10        -0.4934   -2.4779    3.2930 H         1 <0>         0.0000
     24 H11         1.7518   -2.9890    4.2606 H         1 <0>         0.0000
@<TRIPOS>BOND
     1    1    2 ar
     2    1    4 ar
     3    1   14 1
     4    2    6 ar
     5    2   15 1
     6    3    4 ar
     7    3    5 ar
     8    3   16 1
     9    4    7 1
    10    5    6 ar
    11    5   12 1
    12    6   13 1
    13    7   11 2
    14    7   17 1
    15    8   10 1
    16    8   18 1
    17    8   19 1
    18    8   20 1
    19    9   10 1
    20    9   21 1
    21    9   22 1
    22    9   23 1
    23   10   12 1
    24   10   24 1
