@<TRIPOS>MOLECULE
*****
   27    28     0     0     0
SMALL
NO_CHARGES

@<TRIPOS>ATOM
      1 C1         -0.2074   -3.1281   -1.4257 C.1       1 <0>         0.0000
      2 C2          0.4451   -2.4899   -0.6267 C.1       1 <0>         0.0000
      3 C3          1.6816    0.3570    1.4448 C.ar      1 <0>         0.0000
      4 C4          0.9274   -0.3701    0.5240 C.ar      1 <0>         0.0000
      5 C5          2.7102   -0.2569    2.1574 C.ar      1 <0>         0.0000
      6 C6          2.2500   -2.3593    1.0302 C.ar      1 <0>         0.0000
      7 C7          5.7802   -3.0880    4.9033 C.ar      1 <0>         0.0000
      8 C8          6.6453   -4.6697    3.3273 C.ar      1 <0>         0.0000
      9 C9          1.2122   -1.7317    0.3167 C.ar      1 <0>         0.0000
     10 C10         5.6823   -3.7051    3.6515 C.ar      1 <0>         0.0000
     11 C11         2.9985   -1.6177    1.9531 C.ar      1 <0>         0.0000
     12 C12         6.8241   -3.4340    5.7593 C.ar      1 <0>         0.0000
     13 C13         7.7477   -4.4009    5.3192 C.ar      1 <0>         0.0000
     14 C14         4.5882   -3.4357    2.6568 C.2       1 <0>         0.0000
     15 N1          7.6532   -4.9964    4.1404 N.ar      1 <0>         0.0000
     16 N2          4.0472   -2.1717    2.7234 N.am      1 <0>         0.0000
     17 O1          4.2386   -4.2993    1.8572 O.2       1 <0>         0.0000
     18 Cl1         6.9357   -2.6771    7.3232 Cl        1 <0>         0.0000
     19 Cl2         9.0845   -4.8765    6.3337 Cl        1 <0>         0.0000
     20 H1         -0.7791   -3.6953   -2.1294 H         1 <0>         0.0000
     21 H2          1.4691    1.4092    1.6112 H         1 <0>         0.0000
     22 H3          0.1250    0.1012   -0.0344 H         1 <0>         0.0000
     23 H4          3.2914    0.3199    2.8746 H         1 <0>         0.0000
     24 H5          2.4709   -3.4036    0.8625 H         1 <0>         0.0000
     25 H6          5.0418   -2.3701    5.2485 H         1 <0>         0.0000
     26 H7          6.5896   -5.1896    2.3751 H         1 <0>         0.0000
     27 H8          4.5178   -1.5121    3.3288 H         1 <0>         0.0000
@<TRIPOS>BOND
     1    1    2 3
     2    1   20 1
     3    2    9 1
     4    3    4 ar
     5    3    5 ar
     6    3   21 1
     7    4    9 ar
     8    4   22 1
     9    5   11 ar
    10    5   23 1
    11    6    9 ar
    12    6   11 ar
    13    6   24 1
    14    7   10 ar
    15    7   12 ar
    16    7   25 1
    17    8   10 ar
    18    8   15 ar
    19    8   26 1
    20   10   14 1
    21   11   16 1
    22   12   13 ar
    23   12   18 1
    24   13   15 ar
    25   13   19 1
    26   14   16 am
    27   14   17 2
    28   16   27 1
