@<TRIPOS>MOLECULE
*****
   24    24     0     0     0
SMALL
NO_CHARGES

@<TRIPOS>ATOM
      1 C1          1.7923   -1.4546   -0.1042 C.ar      1 <0>         0.0000
      2 C2          0.6336   -0.9688    0.5098 C.ar      1 <0>         0.0000
      3 C3          3.0263   -1.1115    1.9727 C.ar      1 <0>         0.0000
      4 C4          2.9817   -1.5248    0.6282 C.ar      1 <0>         0.0000
      5 C5          1.8806   -0.6231    2.5995 C.ar      1 <0>         0.0000
      6 C6          0.6926   -0.5670    1.8345 C.ar      1 <0>         0.0000
      7 C7          4.2056   -2.0452   -0.0171 C.2       1 <0>         0.0000
      8 C8          2.6564    0.7241    5.8810 C.3       1 <0>         0.0000
      9 C9          3.1174   -1.6928    5.2517 C.3       1 <0>         0.0000
     10 C10         2.9322   -0.2609    4.7528 C.3       1 <0>         0.0000
     11 O1          5.2904   -2.1592    0.5338 O.2       1 <0>         0.0000
     12 O2          1.7813   -0.1753    3.8751 O.3       1 <0>         0.0000
     13 F1         -0.4230   -0.0978    2.4302 F         1 <0>         0.0000
     14 H1          1.7674   -1.7775   -1.1418 H         1 <0>         0.0000
     15 H2         -0.3123   -0.8967   -0.0182 H         1 <0>         0.0000
     16 H3          3.9753   -1.1913    2.4891 H         1 <0>         0.0000
     17 H4          4.0788   -2.3416   -1.0806 H         1 <0>         0.0000
     18 H5          1.7515    0.4370    6.4253 H         1 <0>         0.0000
     19 H6          3.4962    0.7352    6.5824 H         1 <0>         0.0000
     20 H7          2.5173    1.7338    5.4854 H         1 <0>         0.0000
     21 H8          2.2371   -2.0064    5.8214 H         1 <0>         0.0000
     22 H9          3.9933   -1.7503    5.9060 H         1 <0>         0.0000
     23 H10         3.2635   -2.3977    4.4294 H         1 <0>         0.0000
     24 H11         3.8187    0.0693    4.1983 H         1 <0>         0.0000
@<TRIPOS>BOND
     1    1    2 ar
     2    1    4 ar
     3    1   14 1
     4    2    6 ar
     5    2   15 1
     6    3    4 ar
     7    3    5 ar
     8    3   16 1
     9    4    7 1
    10    5    6 ar
    11    5   12 1
    12    6   13 1
    13    7   11 2
    14    7   17 1
    15    8   10 1
    16    8   18 1
    17    8   19 1
    18    8   20 1
    19    9   10 1
    20    9   21 1
    21    9   22 1
    22    9   23 1
    23   10   12 1
    24   10   24 1
