@<TRIPOS>MOLECULE
*****
   20    20     0     0     0
SMALL
NO_CHARGES

@<TRIPOS>ATOM
      1 C1          2.4349   -1.6246   -0.3226 C.ar      1 <0>         0.0000
      2 C2          1.6337   -0.8696    0.5351 C.ar      1 <0>         0.0000
      3 C3          3.5072   -2.3830    0.1583 C.ar      1 <0>         0.0000
      4 C4          2.9698   -1.6236    2.4157 C.ar      1 <0>         0.0000
      5 C5          1.8979   -0.8616    1.9158 C.ar      1 <0>         0.0000
      6 C6          3.7484   -2.3570    1.5292 C.ar      1 <0>         0.0000
      7 C7          6.0037   -2.6061    2.1828 C.3       1 <0>         0.0000
      8 N1         -0.1253    0.3441    2.3767 N.3       1 <0>         0.0000
      9 N2          1.1559   -0.0726    2.8097 N.pl3     1 <0>         0.0000
     10 O1          4.7804   -3.1695    2.0585 O.3       1 <0>         0.0000
     11 F1          6.0112   -1.5413    3.0223 F         1 <0>         0.0000
     12 F2          6.5095   -2.1735    1.0038 F         1 <0>         0.0000
     13 F3          6.8342   -3.5338    2.6802 F         1 <0>         0.0000
     14 H1          2.2179   -1.6244   -1.3874 H         1 <0>         0.0000
     15 H2          0.8020   -0.2862    0.1584 H         1 <0>         0.0000
     16 H3          4.1341   -2.9776   -0.4972 H         1 <0>         0.0000
     17 H4          3.2016   -1.6441    3.4770 H         1 <0>         0.0000
     18 H5         -0.3103    1.2681    2.7582 H         1 <0>         0.0000
     19 H6         -0.8531   -0.2997    2.6909 H         1 <0>         0.0000
     20 H7          1.2026   -0.4059    3.7696 H         1 <0>         0.0000
@<TRIPOS>BOND
     1    1    2 ar
     2    1    3 ar
     3    1   14 1
     4    2    5 ar
     5    2   15 1
     6    3    6 ar
     7    3   16 1
     8    4    5 ar
     9    4    6 ar
    10    4   17 1
    11    5    9 1
    12    6   10 1
    13    7   10 1
    14    7   11 1
    15    7   12 1
    16    7   13 1
    17    8    9 1
    18    8   18 1
    19    8   19 1
    20    9   20 1
