@<TRIPOS>MOLECULE
*****
   27    28     0     0     0
SMALL
NO_CHARGES

@<TRIPOS>ATOM
      1 C1         -0.7909    1.0869    3.1749 C.1       1 <0>         0.0000
      2 C2         -0.0363    0.3602    2.5629 C.1       1 <0>         0.0000
      3 C3          1.5364   -1.5899   -0.2073 C.ar      1 <0>         0.0000
      4 C4          0.6547   -0.7506    0.4709 C.ar      1 <0>         0.0000
      5 C5          2.6193   -2.1914    0.4398 C.ar      1 <0>         0.0000
      6 C6          1.9401   -1.0963    2.4991 C.ar      1 <0>         0.0000
      7 C7          6.2948   -2.8708    4.1872 C.ar      1 <0>         0.0000
      8 C8          6.4523   -5.0194    3.1406 C.ar      1 <0>         0.0000
      9 C9          0.8548   -0.4980    1.8411 C.ar      1 <0>         0.0000
     10 C10         5.8595   -3.7511    3.1905 C.ar      1 <0>         0.0000
     11 C11         2.8209   -1.9390    1.8071 C.ar      1 <0>         0.0000
     12 C12         7.2716   -3.2861    5.0902 C.ar      1 <0>         0.0000
     13 C13         7.7802   -4.5924    4.9598 C.ar      1 <0>         0.0000
     14 C14         4.8360   -3.4045    2.1463 C.2       1 <0>         0.0000
     15 N1          7.3796   -5.4254    4.0119 N.ar      1 <0>         0.0000
     16 N2          3.8935   -2.4861    2.5491 N.am      1 <0>         0.0000
     17 O1          4.8671   -3.9285    1.0359 O.2       1 <0>         0.0000
     18 Cl1         7.8269   -2.1838    6.3178 Cl        1 <0>         0.0000
     19 Cl2         8.9960   -5.1842    6.0616 Cl        1 <0>         0.0000
     20 H1         -1.4584    1.7282    3.7106 H         1 <0>         0.0000
     21 H2          1.3828   -1.7871   -1.2647 H         1 <0>         0.0000
     22 H3         -0.1838   -0.2897   -0.0413 H         1 <0>         0.0000
     23 H4          3.2932   -2.8473   -0.0928 H         1 <0>         0.0000
     24 H5          2.0888   -0.8955    3.5577 H         1 <0>         0.0000
     25 H6          5.9206   -1.8535    4.2564 H         1 <0>         0.0000
     26 H7          6.1599   -5.7229    2.3663 H         1 <0>         0.0000
     27 H8          3.8972   -2.2395    3.5303 H         1 <0>         0.0000
@<TRIPOS>BOND
     1    1    2 3
     2    1   20 1
     3    2    9 1
     4    3    4 ar
     5    3    5 ar
     6    3   21 1
     7    4    9 ar
     8    4   22 1
     9    5   11 ar
    10    5   23 1
    11    6    9 ar
    12    6   11 ar
    13    6   24 1
    14    7   10 ar
    15    7   12 ar
    16    7   25 1
    17    8   10 ar
    18    8   15 ar
    19    8   26 1
    20   10   14 1
    21   11   16 1
    22   12   13 ar
    23   12   18 1
    24   13   15 ar
    25   13   19 1
    26   14   16 am
    27   14   17 2
    28   16   27 1
