@<TRIPOS>MOLECULE
*****
   27    28     0     0     0
SMALL
NO_CHARGES

@<TRIPOS>ATOM
      1 C1          1.4653   -1.7872   -2.4078 C.1       1 <0>         0.0000
      2 C2          1.5649   -1.5789   -1.2169 C.1       1 <0>         0.0000
      3 C3          0.9455   -0.1666    2.1810 C.ar      1 <0>         0.0000
      4 C4          0.8246   -0.4008    0.8115 C.ar      1 <0>         0.0000
      5 C5          1.9047   -0.8439    2.9319 C.ar      1 <0>         0.0000
      6 C6          2.6491   -2.0185    0.9398 C.ar      1 <0>         0.0000
      7 C7          5.9202   -3.0072    4.9786 C.ar      1 <0>         0.0000
      8 C8          6.0044   -5.1514    3.9154 C.ar      1 <0>         0.0000
      9 C9          1.6790   -1.3288    0.1894 C.ar      1 <0>         0.0000
     10 C10         5.5049   -3.8425    3.9357 C.ar      1 <0>         0.0000
     11 C11         2.7607   -1.7725    2.3142 C.ar      1 <0>         0.0000
     12 C12         6.7844   -3.5037    5.9527 C.ar      1 <0>         0.0000
     13 C13         7.2049   -4.8426    5.8437 C.ar      1 <0>         0.0000
     14 C14         4.5996   -3.4136    2.8152 C.2       1 <0>         0.0000
     15 N1          6.8243   -5.6339    4.8528 N.ar      1 <0>         0.0000
     16 N2          3.7170   -2.4084    3.1396 N.am      1 <0>         0.0000
     17 O1          4.6669   -3.9492    1.7125 O.2       1 <0>         0.0000
     18 Cl1         7.3132   -2.4587    7.2409 Cl        1 <0>         0.0000
     19 Cl2         8.2791   -5.5339    7.0315 Cl        1 <0>         0.0000
     20 H1          1.3814   -1.9749   -3.4573 H         1 <0>         0.0000
     21 H2          0.2897    0.5480    2.6702 H         1 <0>         0.0000
     22 H3          0.0800    0.1229    0.2205 H         1 <0>         0.0000
     23 H4          1.9909   -0.6523    3.9999 H         1 <0>         0.0000
     24 H5          3.2983   -2.7366    0.4597 H         1 <0>         0.0000
     25 H6          5.6195   -1.9649    5.0336 H         1 <0>         0.0000
     26 H7          5.7254   -5.8232    3.1087 H         1 <0>         0.0000
     27 H8          3.6661   -2.1518    4.1167 H         1 <0>         0.0000
@<TRIPOS>BOND
     1    1    2 3
     2    1   20 1
     3    2    9 1
     4    3    4 ar
     5    3    5 ar
     6    3   21 1
     7    4    9 ar
     8    4   22 1
     9    5   11 ar
    10    5   23 1
    11    6    9 ar
    12    6   11 ar
    13    6   24 1
    14    7   10 ar
    15    7   12 ar
    16    7   25 1
    17    8   10 ar
    18    8   15 ar
    19    8   26 1
    20   10   14 1
    21   11   16 1
    22   12   13 ar
    23   12   18 1
    24   13   15 ar
    25   13   19 1
    26   14   16 am
    27   14   17 2
    28   16   27 1
