@<TRIPOS>MOLECULE
*****
   21    21     0     0     0
SMALL
NO_CHARGES

@<TRIPOS>ATOM
      1 C1          2.0922   -1.2038   -0.4181 C.ar      1 <0>         0.0000
      2 C2          1.0002   -0.6160    0.2137 C.ar      1 <0>         0.0000
      3 C3          2.9030   -1.9978    1.7092 C.ar      1 <0>         0.0000
      4 C4          1.8117   -1.4164    2.3765 C.ar      1 <0>         0.0000
      5 C5          3.0592   -1.9003    0.3248 C.ar      1 <0>         0.0000
      6 C6          0.8691   -0.7268    1.5969 C.ar      1 <0>         0.0000
      7 C7          1.6623   -1.5332    3.8571 C.2       1 <0>         0.0000
      8 C8          2.6449   -2.3584    5.8403 C.3       1 <0>         0.0000
      9 C9          4.2318   -2.5275   -0.3511 C.3       1 <0>         0.0000
     10 O1          0.7307   -1.1071    4.5108 O.2       1 <0>         0.0000
     11 O2          2.7152   -2.1911    4.4094 O.3       1 <0>         0.0000
     12 F1         -0.1975   -0.1391    2.1630 F         1 <0>         0.0000
     13 Br1         3.8172   -4.3882   -0.9854 Br        1 <0>         0.0000
     14 H1          2.1922   -1.1266   -1.4979 H         1 <0>         0.0000
     15 H2          0.2443   -0.0700   -0.3418 H         1 <0>         0.0000
     16 H3          3.6345   -2.5393    2.2988 H         1 <0>         0.0000
     17 H4          3.5507   -2.8994    6.1131 H         1 <0>         0.0000
     18 H5          1.7557   -2.9312    6.1130 H         1 <0>         0.0000
     19 H6          2.6115   -1.3855    6.3359 H         1 <0>         0.0000
     20 H7          5.0850   -2.6514    0.3126 H         1 <0>         0.0000
     21 H8          4.5332   -1.9986   -1.2532 H         1 <0>         0.0000
@<TRIPOS>BOND
     1    1    2 ar
     2    1    5 ar
     3    1   14 1
     4    2    6 ar
     5    2   15 1
     6    3    4 ar
     7    3    5 ar
     8    3   16 1
     9    4    6 ar
    10    4    7 1
    11    5    9 1
    12    6   12 1
    13    7   10 2
    14    7   11 1
    15    8   11 1
    16    8   17 1
    17    8   18 1
    18    8   19 1
    19    9   13 1
    20    9   20 1
    21    9   21 1
