@<TRIPOS>MOLECULE
*****
   49    52     0     0     0
SMALL
NO_CHARGES

@<TRIPOS>ATOM
      1 C1          1.5851    6.1297   -4.5996 C.2       1 <0>         0.0000
      2 C2          0.0479    4.5249   -3.6505 C.2       1 <0>         0.0000
      3 C3         -2.9222   -0.8486   -0.1521 C.2       1 <0>         0.0000
      4 C4         -2.9053    2.2281   -3.8017 C.3       1 <0>         0.0000
      5 C5         -2.9105   -0.0491   -2.5933 C.3       1 <0>         0.0000
      6 C6         -2.0005    3.3457   -4.3266 C.3       1 <0>         0.0000
      7 C7         -2.9923   -1.5764    2.1836 C.3       1 <0>         0.0000
      8 C8         -0.8176   -0.9818    1.2379 C.3       1 <0>         0.0000
      9 C9         -2.3858   -2.8748    2.7118 C.3       1 <0>         0.0000
     10 C10        -0.2477   -2.2915    1.7829 C.3       1 <0>         0.0000
     11 C11        -0.9822    2.9876   -2.0475 C.3       1 <0>         0.0000
     12 C12        -2.0840   -0.3694   -1.3468 C.3       1 <0>         0.0000
     13 C13        -2.0788    1.0346   -3.3129 C.3       1 <0>         0.0000
     14 C14        -1.0348    1.4738   -2.2448 C.3       1 <0>         0.0000
     15 C15         2.3715    7.1082   -5.4148 C.3       1 <0>         0.0000
     16 C16        -0.3784   -3.9128    3.5668 C.3       1 <0>         0.0000
     17 N1          1.8929    5.7616   -3.3947 N.2       1 <0>         0.0000
     18 N2          1.0283    4.8532   -2.8371 N.2       1 <0>         0.0000
     19 N3         -0.9394    3.6360   -3.3591 N.pl3     1 <0>         0.0000
     20 N4         -2.2544   -1.1201    1.0058 N.am      1 <0>         0.0000
     21 N5         -0.9587   -2.7056    2.9912 N.3       1 <0>         0.0000
     22 O1         -4.1422   -0.9961   -0.2700 O.2       1 <0>         0.0000
     23 O2         -1.4290    0.8640   -1.0105 O.3       1 <0>         0.0000
     24 S1          0.1159    5.3515   -5.2131 S.3       1 <0>         0.0000
     25 H1         -3.5294    2.6037   -2.9839 H         1 <0>         0.0000
     26 H2         -3.5887    1.9238   -4.6009 H         1 <0>         0.0000
     27 H3         -3.0836   -0.9342   -3.2094 H         1 <0>         0.0000
     28 H4         -3.8850    0.3325   -2.2822 H         1 <0>         0.0000
     29 H5         -1.5446    3.0321   -5.2763 H         1 <0>         0.0000
     30 H6         -2.5901    4.2506   -4.5313 H         1 <0>         0.0000
     31 H7         -4.0343   -1.7171    1.8995 H         1 <0>         0.0000
     32 H8         -2.9354   -0.8031    2.9606 H         1 <0>         0.0000
     33 H9         -0.6533   -0.1809    1.9698 H         1 <0>         0.0000
     34 H10        -0.3078   -0.6932    0.3222 H         1 <0>         0.0000
     35 H11        -2.8946   -3.1565    3.6401 H         1 <0>         0.0000
     36 H12        -2.5622   -3.6819    1.9741 H         1 <0>         0.0000
     37 H13        -0.3037   -3.0669    0.9923 H         1 <0>         0.0000
     38 H14         0.8097   -2.1445    2.0291 H         1 <0>         0.0000
     39 H15        -1.8626    3.3130   -1.4806 H         1 <0>         0.0000
     40 H16        -0.0956    3.2866   -1.4917 H         1 <0>         0.0000
     41 H17        -1.3240   -1.1328   -1.5839 H         1 <0>         0.0000
     42 H18        -1.5478    0.6064   -4.1699 H         1 <0>         0.0000
     43 H19        -0.0363    1.1099   -2.5257 H         1 <0>         0.0000
     44 H20         2.7420    6.6541   -6.3401 H         1 <0>         0.0000
     45 H21         1.7677    7.9806   -5.6873 H         1 <0>         0.0000
     46 H22         3.2247    7.4428   -4.8210 H         1 <0>         0.0000
     47 H23        -0.9015   -4.1670    4.4942 H         1 <0>         0.0000
     48 H24         0.6748   -3.7371    3.8088 H         1 <0>         0.0000
     49 H25        -0.4355   -4.7856    2.8889 H         1 <0>         0.0000
@<TRIPOS>BOND
     1    1   15 1
     2    1   17 2
     3    1   24 1
     4    2   18 2
     5    2   19 1
     6    2   24 1
     7    3   12 1
     8    3   20 am
     9    3   22 2
    10    4    6 1
    11    4   13 1
    12    4   25 1
    13    4   26 1
    14    5   12 1
    15    5   13 1
    16    5   27 1
    17    5   28 1
    18    6   19 1
    19    6   29 1
    20    6   30 1
    21    7    9 1
    22    7   20 1
    23    7   31 1
    24    7   32 1
    25    8   10 1
    26    8   20 1
    27    8   33 1
    28    8   34 1
    29    9   21 1
    30    9   35 1
    31    9   36 1
    32   10   21 1
    33   10   37 1
    34   10   38 1
    35   11   14 1
    36   11   19 1
    37   11   39 1
    38   11   40 1
    39   12   23 1
    40   12   41 1
    41   13   14 1
    42   13   42 1
    43   14   23 1
    44   14   43 1
    45   15   44 1
    46   15   45 1
    47   15   46 1
    48   16   21 1
    49   16   47 1
    50   16   48 1
    51   16   49 1
    52   17   18 1
