@<TRIPOS>MOLECULE
*****
   21    22     0     0     0
SMALL
NO_CHARGES

@<TRIPOS>ATOM
      1 C1          1.8629   -0.8671   -0.0159 C.ar      1 <0>         0.0000
      2 C2          1.8410   -1.3198    2.7451 C.ar      1 <0>         0.0000
      3 C3          0.7574   -0.4244    0.7349 C.ar      1 <0>         0.0000
      4 C4          2.9139   -1.5317    0.5871 C.ar      1 <0>         0.0000
      5 C5          0.7873   -0.6630    2.1142 C.ar      1 <0>         0.0000
      6 C6          2.9030   -1.7595    1.9671 C.ar      1 <0>         0.0000
      7 C7         -0.3344    0.2865   -0.0212 C.2       1 <0>         0.0000
      8 C8         -2.8566    0.4794   -0.4591 C.3       1 <0>         0.0000
      9 C9         -2.4700    1.6668    0.3577 C.3       1 <0>         0.0000
     10 C10        -1.7090    0.3468    0.5387 C.3       1 <0>         0.0000
     11 O1         -0.0690    0.7783   -1.1161 O.2       1 <0>         0.0000
     12 F1          3.9626   -1.9669   -0.1399 F         1 <0>         0.0000
     13 F2         -0.2156   -0.2242    2.9142 F         1 <0>         0.0000
     14 F3          3.9334   -2.4032    2.5401 F         1 <0>         0.0000
     15 H1          1.8792   -0.6754   -1.0839 H         1 <0>         0.0000
     16 H2          1.8366   -1.4772    3.8182 H         1 <0>         0.0000
     17 H3         -3.7703   -0.0518   -0.2108 H         1 <0>         0.0000
     18 H4         -2.5726    0.4778   -1.5060 H         1 <0>         0.0000
     19 H5         -1.9200    2.4593   -0.1391 H         1 <0>         0.0000
     20 H6         -3.1047    1.9729    1.1833 H         1 <0>         0.0000
     21 H7         -1.9051   -0.2033    1.4484 H         1 <0>         0.0000
@<TRIPOS>BOND
     1    1    3 ar
     2    1    4 ar
     3    1   15 1
     4    2    5 ar
     5    2    6 ar
     6    2   16 1
     7    3    5 ar
     8    3    7 1
     9    4    6 ar
    10    4   12 1
    11    5   13 1
    12    6   14 1
    13    7   10 1
    14    7   11 2
    15    8    9 1
    16    8   10 1
    17    8   17 1
    18    8   18 1
    19    9   10 1
    20    9   19 1
    21    9   20 1
    22   10   21 1
