@<TRIPOS>MOLECULE
*****
   37    39     0     0     0
SMALL
NO_CHARGES

@<TRIPOS>ATOM
      1 C1          5.5313   -4.8567    1.1372 C.ar      1 <0>         0.0000
      2 C2          5.3956   -3.7372    1.9694 C.ar      1 <0>         0.0000
      3 C3          4.4367   -5.3573    0.4211 C.ar      1 <0>         0.0000
      4 C4         -2.8993   -8.6713   -4.3384 C.ar      1 <0>         0.0000
      5 C5         -1.7060   -9.3682   -4.5243 C.ar      1 <0>         0.0000
      6 C6          4.1581   -3.0922    2.1038 C.ar      1 <0>         0.0000
      7 C7         -1.7873   -7.1655   -2.8406 C.ar      1 <0>         0.0000
      8 C8          3.2028   -4.7159    0.5538 C.ar      1 <0>         0.0000
      9 C9         -0.5750   -7.8625   -3.0208 C.ar      1 <0>         0.0000
     10 C10        -2.9577   -7.5524   -3.4894 C.ar      1 <0>         0.0000
     11 C11        -0.5233   -8.9858   -3.8768 C.ar      1 <0>         0.0000
     12 C12         3.0899   -3.6051    1.3860 C.ar      1 <0>         0.0000
     13 C13         1.8779   -5.0117   -0.0711 C.2       1 <0>         0.0000
     14 C14         0.6266   -7.4146   -2.3140 C.2       1 <0>         0.0000
     15 C15        -4.2499   -6.7920   -3.3014 C.3       1 <0>         0.0000
     16 C16         0.7473   -9.7756   -4.1100 C.3       1 <0>         0.0000
     17 N1          0.8705   -4.2448    0.2267 N.2       1 <0>         0.0000
     18 N2          0.6048   -6.3946   -1.5280 N.2       1 <0>         0.0000
     19 N3          1.7830   -6.0685   -0.9232 N.pl3     1 <0>         0.0000
     20 O1          0.7254   -3.2448    2.6100 O.2       1 <0>         0.0000
     21 O2          1.3036   -1.7309    0.6681 O.2       1 <0>         0.0000
     22 S1          1.3727   -3.0410    1.3145 S.o2      1 <0>         0.0000
     23 H1          6.4982   -5.3431    1.0458 H         1 <0>         0.0000
     24 H2          6.2581   -3.3659    2.5156 H         1 <0>         0.0000
     25 H3          4.5702   -6.2273   -0.2174 H         1 <0>         0.0000
     26 H4         -3.7976   -8.9997   -4.8576 H         1 <0>         0.0000
     27 H5         -1.6910  -10.2308   -5.1866 H         1 <0>         0.0000
     28 H6          4.0398   -2.2240    2.7452 H         1 <0>         0.0000
     29 H7         -1.7898   -6.3078   -2.1743 H         1 <0>         0.0000
     30 H8          1.5551   -7.9775   -2.4742 H         1 <0>         0.0000
     31 H9         -5.0712   -7.4662   -3.0357 H         1 <0>         0.0000
     32 H10        -4.1596   -6.0414   -2.5122 H         1 <0>         0.0000
     33 H11        -4.5383   -6.2746   -4.2237 H         1 <0>         0.0000
     34 H12         1.5423   -9.1570   -4.5421 H         1 <0>         0.0000
     35 H13         1.1355  -10.2129   -3.1829 H         1 <0>         0.0000
     36 H14         0.5631  -10.5988   -4.8046 H         1 <0>         0.0000
     37 H15         2.6160   -6.6252   -1.1063 H         1 <0>         0.0000
@<TRIPOS>BOND
     1    1    2 ar
     2    1    3 ar
     3    1   23 1
     4    2    6 ar
     5    2   24 1
     6    3    8 ar
     7    3   25 1
     8    4    5 ar
     9    4   10 ar
    10    4   26 1
    11    5   11 ar
    12    5   27 1
    13    6   12 ar
    14    6   28 1
    15    7    9 ar
    16    7   10 ar
    17    7   29 1
    18    8   12 ar
    19    8   13 1
    20    9   11 ar
    21    9   14 1
    22   10   15 1
    23   11   16 1
    24   12   22 1
    25   13   17 2
    26   13   19 1
    27   14   18 2
    28   14   30 1
    29   15   31 1
    30   15   32 1
    31   15   33 1
    32   16   34 1
    33   16   35 1
    34   16   36 1
    35   17   22 1
    36   18   19 1
    37   19   37 1
    38   20   22 2
    39   21   22 2
