@<TRIPOS>MOLECULE
*****
   15    15     0     0     0
SMALL
NO_CHARGES

@<TRIPOS>ATOM
      1 C1          0.9803   -1.4832    1.3419 C.2       1 <0>         0.0000
      2 C2          1.0846   -0.2291   -0.8745 C.3       1 <0>         0.0000
      3 C3          0.4148   -0.4118    2.2209 C.3       1 <0>         0.0000
      4 N1          1.2962   -2.7133    1.7215 N.2       1 <0>         0.0000
      5 N2          1.7780   -3.3393    0.6124 N.2       1 <0>         0.0000
      6 N3          1.7689   -2.5404   -0.4106 N.2       1 <0>         0.0000
      7 N4          1.2709   -1.3577    0.0274 N.pl3     1 <0>         0.0000
      8 N5          1.2932    0.7727    2.2202 N.3       1 <0>         0.0000
      9 H1          1.2549    0.6915   -0.3151 H         1 <0>         0.0000
     10 H2          1.8067   -0.3222   -1.6857 H         1 <0>         0.0000
     11 H3          0.0720   -0.2385   -1.2887 H         1 <0>         0.0000
     12 H4         -0.5634   -0.1045    1.8333 H         1 <0>         0.0000
     13 H5          0.2499   -0.8653    3.2066 H         1 <0>         0.0000
     14 H6          2.1682    0.5440    2.6901 H         1 <0>         0.0000
     15 H7          0.8572    1.5181    2.7605 H         1 <0>         0.0000
@<TRIPOS>BOND
     1    1    3 1
     2    1    4 2
     3    1    7 1
     4    2    7 1
     5    2    9 1
     6    2   10 1
     7    2   11 1
     8    3    8 1
     9    3   12 1
    10    3   13 1
    11    4    5 1
    12    5    6 2
    13    6    7 1
    14    8   14 1
    15    8   15 1
