@<TRIPOS>MOLECULE
*****
   19    20     0     0     0
SMALL
NO_CHARGES

@<TRIPOS>ATOM
      1 C1         -2.0482   -1.1178    0.3696 C.1       1 <0>         0.0000
      2 C2          0.5028    1.9864    1.8632 C.ar      1 <0>         0.0000
      3 C3         -0.3439    0.9940    1.3619 C.ar      1 <0>         0.0000
      4 C4          1.5871    1.6312    2.6649 C.ar      1 <0>         0.0000
      5 C5         -0.0712   -0.3391    1.6858 C.ar      1 <0>         0.0000
      6 C6          1.7568    0.2664    2.9189 C.ar      1 <0>         0.0000
      7 C7         -0.2371   -2.8164    0.8862 C.3       1 <0>         0.0000
      8 C8         -1.0925   -2.7034    2.1023 C.3       1 <0>         0.0000
      9 C9         -0.9189   -1.4739    1.1963 C.3       1 <0>         0.0000
     10 N1         -2.9593   -0.8319   -0.2972 N.1       1 <0>         0.0000
     11 N2          0.9739   -0.6878    2.4590 N.ar      1 <0>         0.0000
     12 Br1         3.2388   -0.2852    4.0206 Br        1 <0>         0.0000
     13 H1          0.3189    3.0318    1.6304 H         1 <0>         0.0000
     14 H2         -1.1931    1.2475    0.7364 H         1 <0>         0.0000
     15 H3          2.2687    2.3674    3.0748 H         1 <0>         0.0000
     16 H4          0.8386   -2.8142    1.0240 H         1 <0>         0.0000
     17 H5         -0.6140   -3.3614    0.0275 H         1 <0>         0.0000
     18 H6         -2.0722   -3.1690    2.1006 H         1 <0>         0.0000
     19 H7         -0.5960   -2.6252    3.0633 H         1 <0>         0.0000
@<TRIPOS>BOND
     1    1    9 1
     2    1   10 3
     3    2    3 ar
     4    2    4 ar
     5    2   13 1
     6    3    5 ar
     7    3   14 1
     8    4    6 ar
     9    4   15 1
    10    5    9 1
    11    5   11 ar
    12    6   11 ar
    13    6   12 1
    14    7    8 1
    15    7    9 1
    16    7   16 1
    17    7   17 1
    18    8    9 1
    19    8   18 1
    20    8   19 1
