@<TRIPOS>MOLECULE
*****
   33    34     0     0     0
SMALL
NO_CHARGES

@<TRIPOS>ATOM
      1 C1          5.8109    2.0857    0.5486 C.ar      1 <0>         0.0000
      2 C2          5.5727    2.3364    1.9019 C.ar      1 <0>         0.0000
      3 C3          5.6660    0.7856    0.0571 C.ar      1 <0>         0.0000
      4 C4          2.2647   -2.8461    1.8220 C.ar      1 <0>         0.0000
      5 C5          1.0881   -2.5301    2.4919 C.ar      1 <0>         0.0000
      6 C6          5.2088    1.2929    2.7620 C.ar      1 <0>         0.0000
      7 C7          2.3370   -0.6076    0.9127 C.ar      1 <0>         0.0000
      8 C8          1.1426   -0.2812    1.5532 C.ar      1 <0>         0.0000
      9 C9          2.9280   -1.8735    1.0624 C.ar      1 <0>         0.0000
     10 C10         5.2377   -0.2533    0.8885 C.ar      1 <0>         0.0000
     11 C11         0.5157   -1.2509    2.3731 C.ar      1 <0>         0.0000
     12 C12         5.0544   -0.0073    2.2691 C.ar      1 <0>         0.0000
     13 C13         0.5270    1.0876    1.3915 C.3       1 <0>         0.0000
     14 C14         4.1246   -0.8487    4.3060 C.3       1 <0>         0.0000
     15 N1          4.1302   -2.2966    0.4245 N.2       1 <0>         0.0000
     16 N2          5.1403   -1.5587    0.2960 N.2       1 <0>         0.0000
     17 N3         -0.6388   -0.9214    3.0989 N.pl3     1 <0>         0.0000
     18 O1          4.7390   -1.0861    3.0420 O.3       1 <0>         0.0000
     19 H1          6.1142    2.8893   -0.1163 H         1 <0>         0.0000
     20 H2          5.6868    3.3405    2.3016 H         1 <0>         0.0000
     21 H3          5.8507    0.5575   -0.9894 H         1 <0>         0.0000
     22 H4          2.7023   -3.8373    1.8981 H         1 <0>         0.0000
     23 H5          0.5942   -3.2821    3.1043 H         1 <0>         0.0000
     24 H6          5.0527    1.4985    3.8155 H         1 <0>         0.0000
     25 H7          2.8079    0.1372    0.2807 H         1 <0>         0.0000
     26 H8         -0.4612    1.0393    0.9132 H         1 <0>         0.0000
     27 H9          0.3960    1.5831    2.3613 H         1 <0>         0.0000
     28 H10         1.1572    1.7290    0.7713 H         1 <0>         0.0000
     29 H11         3.7964   -1.8253    4.6633 H         1 <0>         0.0000
     30 H12         3.2545   -0.1909    4.1984 H         1 <0>         0.0000
     31 H13         4.8334   -0.4188    5.0242 H         1 <0>         0.0000
     32 H14        -1.1773   -1.7240    3.4050 H         1 <0>         0.0000
     33 H15        -1.2355   -0.2280    2.6627 H         1 <0>         0.0000
@<TRIPOS>BOND
     1    1    2 ar
     2    1    3 ar
     3    1   19 1
     4    2    6 ar
     5    2   20 1
     6    3   10 ar
     7    3   21 1
     8    4    5 ar
     9    4    9 ar
    10    4   22 1
    11    5   11 ar
    12    5   23 1
    13    6   12 ar
    14    6   24 1
    15    7    8 ar
    16    7    9 ar
    17    7   25 1
    18    8   11 ar
    19    8   13 1
    20    9   15 1
    21   10   12 ar
    22   10   16 1
    23   11   17 1
    24   12   18 1
    25   13   26 1
    26   13   27 1
    27   13   28 1
    28   14   18 1
    29   14   29 1
    30   14   30 1
    31   14   31 1
    32   15   16 2
    33   17   32 1
    34   17   33 1
