@<TRIPOS>MOLECULE
*****
   21    21     0     0     0
SMALL
NO_CHARGES

@<TRIPOS>ATOM
      1 C1          2.0348   -1.1100    0.2629 C.ar      1 <0>         0.0000
      2 C2          2.8459   -1.4968    2.5354 C.ar      1 <0>         0.0000
      3 C3          0.8768   -0.4898    0.7646 C.ar      1 <0>         0.0000
      4 C4          0.7498   -0.3303    2.1716 C.ar      1 <0>         0.0000
      5 C5          2.9890   -1.5925    1.1495 C.ar      1 <0>         0.0000
      6 C6          1.7229   -0.8507    3.0421 C.ar      1 <0>         0.0000
      7 C7         -0.0457    0.2274   -1.4536 C.2       1 <0>         0.0000
      8 C8         -1.3291    0.7869   -2.0393 C.3       1 <0>         0.0000
      9 N1         -0.1274   -0.0239   -0.0870 N.am      1 <0>         0.0000
     10 N2         -0.3827    0.4321    2.7036 N.pl3     1 <0>         0.0000
     11 O1         -0.1626    1.2719    3.5710 O.3       1 <0>         0.0000
     12 O2          0.9631    0.0476   -2.1214 O.2       1 <0>         0.0000
     13 O3         -1.5111    0.2010    2.2252 O.2       1 <0>         0.0000
     14 Br1         4.5450   -2.4511    0.4524 Br        1 <0>         0.0000
     15 Br2         1.5368   -0.8148    4.9405 Br        1 <0>         0.0000
     16 H1          2.1628   -1.1994   -0.8058 H         1 <0>         0.0000
     17 H2          3.5852   -1.9182    3.2054 H         1 <0>         0.0000
     18 H3         -1.3116    1.8790   -1.9556 H         1 <0>         0.0000
     19 H4         -2.2248    0.4203   -1.5301 H         1 <0>         0.0000
     20 H5         -1.3735    0.5261   -3.0970 H         1 <0>         0.0000
     21 H6         -1.0228    0.1440    0.3599 H         1 <0>         0.0000
@<TRIPOS>BOND
     1    1    3 ar
     2    1    5 ar
     3    1   16 1
     4    2    5 ar
     5    2    6 ar
     6    2   17 1
     7    3    4 ar
     8    3    9 1
     9    4    6 ar
    10    4   10 1
    11    5   14 1
    12    6   15 1
    13    7    8 1
    14    7    9 am
    15    7   12 2
    16    8   18 1
    17    8   19 1
    18    8   20 1
    19    9   21 1
    20   10   11 1
    21   10   13 2
