@<TRIPOS>MOLECULE
*****
   41    43     0     0     0
SMALL
NO_CHARGES

@<TRIPOS>ATOM
      1 C1         -6.5111    2.7630   -4.9563 C.ar      1 <0>         0.0000
      2 C2         -5.7868    3.9362   -5.1914 C.ar      1 <0>         0.0000
      3 C3         -3.5718   -0.5823   -4.2519 C.ar      1 <0>         0.0000
      4 C4         -4.1752   -0.5797   -2.9974 C.ar      1 <0>         0.0000
      5 C5         -2.7167    3.0192   -4.7097 C.2       1 <0>         0.0000
      6 C6         -3.7648    1.8083   -2.7860 C.ar      1 <0>         0.0000
      7 C7         -4.9278    2.9632   -7.2255 C.ar      1 <0>         0.0000
      8 C8         -3.1627    1.8174   -4.0585 C.ar      1 <0>         0.0000
      9 C9         -2.2799    3.0019   -5.9956 C.2       1 <0>         0.0000
     10 C10        -6.4130    1.6613   -5.8104 C.ar      1 <0>         0.0000
     11 C11        -5.6112    1.7706   -6.9720 C.ar      1 <0>         0.0000
     12 C12        -4.9732    4.0311   -6.3208 C.ar      1 <0>         0.0000
     13 C13        -3.0785    0.6135   -4.7778 C.ar      1 <0>         0.0000
     14 C14        -4.2692    0.6215   -2.2774 C.ar      1 <0>         0.0000
     15 C15        -2.1619    1.7249   -6.7162 C.2       1 <0>         0.0000
     16 C16        -2.0115    4.2525   -6.7623 C.2       1 <0>         0.0000
     17 C17        -7.1311    0.3741   -5.4864 C.3       1 <0>         0.0000
     18 C18        -5.4629    0.6042   -7.9182 C.3       1 <0>         0.0000
     19 C19        -0.6269    4.4399   -7.3318 C.3       1 <0>         0.0000
     20 N1         -2.8615    5.2065   -6.9622 N.2       1 <0>         0.0000
     21 N2         -4.1504    5.1992   -6.4764 N.pl3     1 <0>         0.0000
     22 O1         -1.7949    1.5871   -7.8651 O.2       1 <0>         0.0000
     23 O2         -2.5233    0.5726   -6.0241 O.3       1 <0>         0.0000
     24 Br1        -5.1355    0.6173   -0.5679 Br        1 <0>         0.0000
     25 H1         -7.1243    2.6890   -4.0612 H         1 <0>         0.0000
     26 H2         -5.8137    4.7582   -4.4809 H         1 <0>         0.0000
     27 H3         -3.4890   -1.4944   -4.8347 H         1 <0>         0.0000
     28 H4         -4.5762   -1.4981   -2.5818 H         1 <0>         0.0000
     29 H5         -2.8187    3.9677   -4.1891 H         1 <0>         0.0000
     30 H6         -3.8568    2.7360   -2.2302 H         1 <0>         0.0000
     31 H7         -4.3029    3.0432   -8.1106 H         1 <0>         0.0000
     32 H8         -7.8415    0.0961   -6.2738 H         1 <0>         0.0000
     33 H9         -6.4251   -0.4579   -5.3842 H         1 <0>         0.0000
     34 H10        -7.6841    0.4578   -4.5474 H         1 <0>         0.0000
     35 H11        -5.0246   -0.2609   -7.4071 H         1 <0>         0.0000
     36 H12        -6.4313    0.2840   -8.3196 H         1 <0>         0.0000
     37 H13        -4.8084    0.8546   -8.7557 H         1 <0>         0.0000
     38 H14        -0.3987    3.6517   -8.0551 H         1 <0>         0.0000
     39 H15        -0.5606    5.4133   -7.8216 H         1 <0>         0.0000
     40 H16         0.1274    4.3856   -6.5370 H         1 <0>         0.0000
     41 H17        -4.6398    5.9997   -6.8583 H         1 <0>         0.0000
@<TRIPOS>BOND
     1    1    2 ar
     2    1   10 ar
     3    1   25 1
     4    2   12 ar
     5    2   26 1
     6    3    4 ar
     7    3   13 ar
     8    3   27 1
     9    4   14 ar
    10    4   28 1
    11    5    8 1
    12    5    9 2
    13    5   29 1
    14    6    8 ar
    15    6   14 ar
    16    6   30 1
    17    7   11 ar
    18    7   12 ar
    19    7   31 1
    20    8   13 ar
    21    9   15 1
    22    9   16 1
    23   10   11 ar
    24   10   17 1
    25   11   18 1
    26   12   21 1
    27   13   23 1
    28   14   24 1
    29   15   22 2
    30   15   23 1
    31   16   19 1
    32   16   20 2
    33   17   32 1
    34   17   33 1
    35   17   34 1
    36   18   35 1
    37   18   36 1
    38   18   37 1
    39   19   38 1
    40   19   39 1
    41   19   40 1
    42   20   21 1
    43   21   41 1
