@<TRIPOS>MOLECULE
*****
   37    40     0     0     0
SMALL
NO_CHARGES

@<TRIPOS>ATOM
      1 C1         -2.5226   -5.5126    0.7324 C.ar      1 <0>         0.0000
      2 C2         -1.4329   -0.7716    0.8827 C.ar      1 <0>         0.0000
      3 C3         -1.5236   -4.5643    0.9431 C.ar      1 <0>         0.0000
      4 C4         -0.9365   -2.0565    1.0246 C.ar      1 <0>         0.0000
      5 C5         -3.8618   -5.1569    0.4108 C.ar      1 <0>         0.0000
      6 C6         -2.7978   -0.4806    0.5536 C.ar      1 <0>         0.0000
      7 C7         -1.8111   -3.1738    0.8414 C.ar      1 <0>         0.0000
      8 C8         -3.1398   -2.8671    0.5203 C.ar      1 <0>         0.0000
      9 C9         -4.1560   -3.8103    0.3071 C.ar      1 <0>         0.0000
     10 C10        -3.6414   -1.5535    0.3711 C.ar      1 <0>         0.0000
     11 C11        -6.0603    0.2667    1.0794 C.2       1 <0>         0.0000
     12 C12        -6.4664    0.7538    3.1249 C.2       1 <0>         0.0000
     13 C13        -5.3998   -3.0349    0.0036 C.2       1 <0>         0.0000
     14 C14        -6.8658    1.8146    5.3458 C.3       1 <0>         0.0000
     15 C15        -6.0317   -0.5903    5.1794 C.3       1 <0>         0.0000
     16 C16        -5.9329   -0.5797   -0.1460 C.3       1 <0>         0.0000
     17 C17        -6.8979    0.5123    4.5364 C.3       1 <0>         0.0000
     18 N1         -5.7117    1.5049    1.2354 N.2       1 <0>         0.0000
     19 N2         -5.9834    1.8268    2.5760 N.2       1 <0>         0.0000
     20 N3         -5.0041   -1.6745    0.0468 N.am      1 <0>         0.0000
     21 O1         -6.5347   -3.4187   -0.2386 O.2       1 <0>         0.0000
     22 O2         -6.5486   -0.2860    2.2295 O.3       1 <0>         0.0000
     23 H1         -2.2707   -6.5663    0.8178 H         1 <0>         0.0000
     24 H2         -0.7610    0.0701    1.0283 H         1 <0>         0.0000
     25 H3         -0.5163   -4.8929    1.1882 H         1 <0>         0.0000
     26 H4          0.1091   -2.2133    1.2759 H         1 <0>         0.0000
     27 H5         -4.6184   -5.9206    0.2548 H         1 <0>         0.0000
     28 H6         -3.1316    0.5488    0.4688 H         1 <0>         0.0000
     29 H7         -5.8490    2.2133    5.4009 H         1 <0>         0.0000
     30 H8         -7.2191    1.6226    6.3636 H         1 <0>         0.0000
     31 H9         -7.5000    2.5818    4.8945 H         1 <0>         0.0000
     32 H10        -4.9873   -0.2685    5.2466 H         1 <0>         0.0000
     33 H11        -6.0700   -1.5181    4.6021 H         1 <0>         0.0000
     34 H12        -6.3905   -0.8004    6.1916 H         1 <0>         0.0000
     35 H13        -6.8950   -1.0285   -0.4090 H         1 <0>         0.0000
     36 H14        -5.6090    0.0717   -0.9631 H         1 <0>         0.0000
     37 H15        -7.9318    0.1452    4.4918 H         1 <0>         0.0000
@<TRIPOS>BOND
     1    1    3 ar
     2    1    5 ar
     3    1   23 1
     4    2    4 ar
     5    2    6 ar
     6    2   24 1
     7    3    7 ar
     8    3   25 1
     9    4    7 ar
    10    4   26 1
    11    5    9 ar
    12    5   27 1
    13    6   10 ar
    14    6   28 1
    15    7    8 ar
    16    8    9 ar
    17    8   10 ar
    18    9   13 1
    19   10   20 1
    20   11   16 1
    21   11   18 2
    22   11   22 1
    23   12   17 1
    24   12   19 2
    25   12   22 1
    26   13   20 am
    27   13   21 2
    28   14   17 1
    29   14   29 1
    30   14   30 1
    31   14   31 1
    32   15   17 1
    33   15   32 1
    34   15   33 1
    35   15   34 1
    36   16   20 1
    37   16   35 1
    38   16   36 1
    39   17   37 1
    40   18   19 1
