@<TRIPOS>MOLECULE
*****
   37    40     0     0     0
SMALL
NO_CHARGES

@<TRIPOS>ATOM
      1 C1         -2.2074   -5.2491    0.0492 C.ar      1 <0>         0.0000
      2 C2         -1.1266   -0.5218   -0.3645 C.ar      1 <0>         0.0000
      3 C3         -1.2108   -4.3122   -0.2168 C.ar      1 <0>         0.0000
      4 C4         -0.6286   -1.8117   -0.4382 C.ar      1 <0>         0.0000
      5 C5         -3.5481   -4.8787    0.3471 C.ar      1 <0>         0.0000
      6 C6         -2.4945   -0.2158   -0.0622 C.ar      1 <0>         0.0000
      7 C7         -1.5029   -2.9191   -0.2013 C.ar      1 <0>         0.0000
      8 C8         -2.8345   -2.5979    0.0923 C.ar      1 <0>         0.0000
      9 C9         -3.8475   -3.5294    0.3640 C.ar      1 <0>         0.0000
     10 C10        -3.3403   -1.2791    0.1610 C.ar      1 <0>         0.0000
     11 C11        -5.1725    0.5743    1.8490 C.2       1 <0>         0.0000
     12 C12        -4.5944    1.0702    3.8500 C.2       1 <0>         0.0000
     13 C13        -5.0909   -2.7403    0.6312 C.2       1 <0>         0.0000
     14 C14        -3.2197   -0.2027    5.5007 C.3       1 <0>         0.0000
     15 C15        -5.6176    0.4663    6.0502 C.3       1 <0>         0.0000
     16 C16        -5.6143   -0.2804    0.7052 C.3       1 <0>         0.0000
     17 C17        -4.3268    0.8502    5.3026 C.3       1 <0>         0.0000
     18 N1         -4.8160    1.8197    1.8273 N.2       1 <0>         0.0000
     19 N2         -4.4425    2.1481    3.1420 N.2       1 <0>         0.0000
     20 N3         -4.7070   -1.3851    0.4728 N.am      1 <0>         0.0000
     21 O1         -6.2181   -3.1110    0.9241 O.2       1 <0>         0.0000
     22 O2         -5.0609    0.0218    3.0941 O.3       1 <0>         0.0000
     23 H1         -1.9517   -6.3052    0.0300 H         1 <0>         0.0000
     24 H2         -0.4528    0.3123   -0.5418 H         1 <0>         0.0000
     25 H3         -0.2013   -4.6519   -0.4367 H         1 <0>         0.0000
     26 H4          0.4194   -1.9800   -0.6716 H         1 <0>         0.0000
     27 H5         -4.3015   -5.6337    0.5531 H         1 <0>         0.0000
     28 H6         -2.8234    0.8172   -0.0062 H         1 <0>         0.0000
     29 H7         -3.5360   -1.1784    5.1189 H         1 <0>         0.0000
     30 H8         -2.9952   -0.3105    6.5665 H         1 <0>         0.0000
     31 H9         -2.2999    0.0866    4.9837 H         1 <0>         0.0000
     32 H10        -6.0114   -0.4874    5.6854 H         1 <0>         0.0000
     33 H11        -6.3915    1.2293    5.9237 H         1 <0>         0.0000
     34 H12        -5.4108    0.3620    7.1198 H         1 <0>         0.0000
     35 H13        -6.5959   -0.7194    0.9058 H         1 <0>         0.0000
     36 H14        -5.6870    0.3630   -0.1767 H         1 <0>         0.0000
     37 H15        -3.9719    1.8162    5.6746 H         1 <0>         0.0000
@<TRIPOS>BOND
     1    1    3 ar
     2    1    5 ar
     3    1   23 1
     4    2    4 ar
     5    2    6 ar
     6    2   24 1
     7    3    7 ar
     8    3   25 1
     9    4    7 ar
    10    4   26 1
    11    5    9 ar
    12    5   27 1
    13    6   10 ar
    14    6   28 1
    15    7    8 ar
    16    8    9 ar
    17    8   10 ar
    18    9   13 1
    19   10   20 1
    20   11   16 1
    21   11   18 2
    22   11   22 1
    23   12   17 1
    24   12   19 2
    25   12   22 1
    26   13   20 am
    27   13   21 2
    28   14   17 1
    29   14   29 1
    30   14   30 1
    31   14   31 1
    32   15   17 1
    33   15   32 1
    34   15   33 1
    35   15   34 1
    36   16   20 1
    37   16   35 1
    38   16   36 1
    39   17   37 1
    40   18   19 1
