@<TRIPOS>MOLECULE
*****
   45    47     0     0     0
SMALL
NO_CHARGES

@<TRIPOS>ATOM
      1 C1         -1.4745    0.5707   -3.5924 C.2       1 <0>         0.0000
      2 C2          0.2547   -0.6596   -4.2681 C.2       1 <0>         0.0000
      3 C3         -0.5552   -0.4203   -3.1596 C.2       1 <0>         0.0000
      4 C4          0.4704   -1.9464   -1.5509 C.2       1 <0>         0.0000
      5 C5          0.9838   -1.1917    1.9952 C.2       1 <0>         0.0000
      6 C6          0.3754   -2.4086   -0.0971 C.3       1 <0>         0.0000
      7 C7          0.0215    1.1512    0.2011 C.3       1 <0>         0.0000
      8 C8         -1.0944    2.1963    0.3165 C.3       1 <0>         0.0000
      9 C9         -1.4173   -0.6487   -0.8275 C.3       1 <0>         0.0000
     10 C10        -1.7625    0.1411    1.5111 C.3       1 <0>         0.0000
     11 C11        -0.6897   -0.2005    0.4511 C.3       1 <0>         0.0000
     12 C12         1.9094   -2.3484    2.3393 C.3       1 <0>         0.0000
     13 C13         0.2678    0.2349   -6.6261 C.3       1 <0>         0.0000
     14 C14        -4.4795    1.6834   -0.0966 C.3       1 <0>         0.0000
     15 N1         -1.2495    0.9158   -4.8644 N.2       1 <0>         0.0000
     16 N2         -0.1977    0.1681   -5.2509 N.pl3     1 <0>         0.0000
     17 N3         -0.4724   -1.0098   -1.8808 N.am      1 <0>         0.0000
     18 N4          0.2254   -1.2904    0.8439 N.am      1 <0>         0.0000
     19 N5         -2.0584    1.5598    1.2395 N.pl3     1 <0>         0.0000
     20 O1          1.3106   -2.3998   -2.3247 O.2       1 <0>         0.0000
     21 O2          0.9129   -0.2075    2.7315 O.2       1 <0>         0.0000
     22 O3         -3.4754    3.6244    1.3765 O.2       1 <0>         0.0000
     23 O4         -4.2154    1.4448    2.5167 O.2       1 <0>         0.0000
     24 S1         -3.5886    2.1658    1.4078 S.o2      1 <0>         0.0000
     25 H1         -2.2814    1.0518   -3.0558 H         1 <0>         0.0000
     26 H2          1.0848   -1.3337   -4.3997 H         1 <0>         0.0000
     27 H3         -0.4596   -3.1179   -0.0017 H         1 <0>         0.0000
     28 H4          1.2913   -2.9545    0.1001 H         1 <0>         0.0000
     29 H5          0.5132    1.1775   -0.7745 H         1 <0>         0.0000
     30 H6          0.7653    1.3081    0.9800 H         1 <0>         0.0000
     31 H7         -0.7468    3.1444    0.7293 H         1 <0>         0.0000
     32 H8         -1.5520    2.4056   -0.6601 H         1 <0>         0.0000
     33 H9         -2.0813   -1.4942   -0.6109 H         1 <0>         0.0000
     34 H10        -2.0461    0.1667   -1.1719 H         1 <0>         0.0000
     35 H11        -2.6548   -0.4834    1.4026 H         1 <0>         0.0000
     36 H12        -1.3763    0.0233    2.5214 H         1 <0>         0.0000
     37 H13         2.7473   -2.4110    1.6369 H         1 <0>         0.0000
     38 H14         1.3934   -3.3130    2.3393 H         1 <0>         0.0000
     39 H15         2.3063   -2.1539    3.3353 H         1 <0>         0.0000
     40 H16        -0.3636   -0.3765   -7.2781 H         1 <0>         0.0000
     41 H17         0.2303    1.2732   -6.9586 H         1 <0>         0.0000
     42 H18         1.2963   -0.1271   -6.6734 H         1 <0>         0.0000
     43 H19        -5.4918    2.0827   -0.0116 H         1 <0>         0.0000
     44 H20        -3.9811    2.1218   -0.9631 H         1 <0>         0.0000
     45 H21        -4.5115    0.5943   -0.1579 H         1 <0>         0.0000
@<TRIPOS>BOND
     1    1    3 1
     2    1   15 2
     3    1   25 1
     4    2    3 2
     5    2   16 1
     6    2   26 1
     7    3   17 1
     8    4    6 1
     9    4   17 am
    10    4   20 2
    11    5   12 1
    12    5   18 am
    13    5   21 2
    14    6   18 1
    15    6   27 1
    16    6   28 1
    17    7    8 1
    18    7   11 1
    19    7   29 1
    20    7   30 1
    21    8   19 1
    22    8   31 1
    23    8   32 1
    24    9   11 1
    25    9   17 1
    26    9   33 1
    27    9   34 1
    28   10   11 1
    29   10   19 1
    30   10   35 1
    31   10   36 1
    32   11   18 1
    33   12   37 1
    34   12   38 1
    35   12   39 1
    36   13   16 1
    37   13   40 1
    38   13   41 1
    39   13   42 1
    40   14   24 1
    41   14   43 1
    42   14   44 1
    43   14   45 1
    44   15   16 1
    45   19   24 1
    46   22   24 2
    47   23   24 2
