@<TRIPOS>MOLECULE
*****
   37    40     0     0     0
SMALL
NO_CHARGES

@<TRIPOS>ATOM
      1 C1         -1.7001   -4.7902   -0.4447 C.ar      1 <0>         0.0000
      2 C2         -1.9040   -0.7246    2.2207 C.ar      1 <0>         0.0000
      3 C3         -1.0605   -4.0029    0.5102 C.ar      1 <0>         0.0000
      4 C4         -1.1574   -1.8524    1.9242 C.ar      1 <0>         0.0000
      5 C5         -2.9562   -4.4377   -1.0118 C.ar      1 <0>         0.0000
      6 C6         -3.1708   -0.4330    1.6174 C.ar      1 <0>         0.0000
      7 C7         -1.6529   -2.7911    0.9656 C.ar      1 <0>         0.0000
      8 C8         -2.8902   -2.4827    0.3851 C.ar      1 <0>         0.0000
      9 C9         -3.5438   -3.2644   -0.5785 C.ar      1 <0>         0.0000
     10 C10        -3.6522   -1.3302    0.6906 C.ar      1 <0>         0.0000
     11 C11        -6.8231   -0.4858    1.0002 C.2       1 <0>         0.0000
     12 C12        -7.4714   -0.4650    3.0450 C.2       1 <0>         0.0000
     13 C13        -4.8141   -2.5495   -0.9173 C.2       1 <0>         0.0000
     14 C14        -8.6749   -0.6610    5.2193 C.3       1 <0>         0.0000
     15 C15        -6.7818    1.0222    4.9290 C.3       1 <0>         0.0000
     16 C16        -5.8731   -0.4014   -0.1529 C.3       1 <0>         0.0000
     17 C17        -7.3375   -0.3599    4.5313 C.3       1 <0>         0.0000
     18 N1         -8.1020   -0.6838    0.9797 N.2       1 <0>         0.0000
     19 N2         -8.5274   -0.6677    2.3192 N.2       1 <0>         0.0000
     20 N3         -4.8126   -1.3879   -0.0993 N.am      1 <0>         0.0000
     21 O1         -5.6921   -2.8303   -1.7171 O.2       1 <0>         0.0000
     22 O2         -6.3400   -0.3308    2.2740 O.3       1 <0>         0.0000
     23 H1         -1.2216   -5.7096   -0.7713 H         1 <0>         0.0000
     24 H2         -1.5198   -0.0181    2.9518 H         1 <0>         0.0000
     25 H3         -0.0994   -4.3192    0.9090 H         1 <0>         0.0000
     26 H4         -0.2036   -2.0215    2.4169 H         1 <0>         0.0000
     27 H5         -3.4288   -5.0718   -1.7564 H         1 <0>         0.0000
     28 H6         -3.7181    0.4575    1.9085 H         1 <0>         0.0000
     29 H7         -9.4335    0.0730    4.9335 H         1 <0>         0.0000
     30 H8         -8.5459   -0.6226    6.3053 H         1 <0>         0.0000
     31 H9         -9.0502   -1.6503    4.9460 H         1 <0>         0.0000
     32 H10        -7.4800    1.8156    4.6428 H         1 <0>         0.0000
     33 H11        -5.8187    1.2203    4.4498 H         1 <0>         0.0000
     34 H12        -6.6396    1.0678    6.0131 H         1 <0>         0.0000
     35 H13        -6.4491   -0.5799   -1.0628 H         1 <0>         0.0000
     36 H14        -5.4342    0.6020   -0.2039 H         1 <0>         0.0000
     37 H15        -6.6030   -1.1179    4.8343 H         1 <0>         0.0000
@<TRIPOS>BOND
     1    1    3 ar
     2    1    5 ar
     3    1   23 1
     4    2    4 ar
     5    2    6 ar
     6    2   24 1
     7    3    7 ar
     8    3   25 1
     9    4    7 ar
    10    4   26 1
    11    5    9 ar
    12    5   27 1
    13    6   10 ar
    14    6   28 1
    15    7    8 ar
    16    8    9 ar
    17    8   10 ar
    18    9   13 1
    19   10   20 1
    20   11   16 1
    21   11   18 2
    22   11   22 1
    23   12   17 1
    24   12   19 2
    25   12   22 1
    26   13   20 am
    27   13   21 2
    28   14   17 1
    29   14   29 1
    30   14   30 1
    31   14   31 1
    32   15   17 1
    33   15   32 1
    34   15   33 1
    35   15   34 1
    36   16   20 1
    37   16   35 1
    38   16   36 1
    39   17   37 1
    40   18   19 1
