@<TRIPOS>MOLECULE
*****
   37    40     0     0     0
SMALL
NO_CHARGES

@<TRIPOS>ATOM
      1 C1         -3.0806   -5.2057    1.2895 C.ar      1 <0>         0.0000
      2 C2         -1.0316   -1.1521   -0.4547 C.ar      1 <0>         0.0000
      3 C3         -1.9168   -4.6216    0.7944 C.ar      1 <0>         0.0000
      4 C4         -0.8217   -2.4811   -0.1281 C.ar      1 <0>         0.0000
      5 C5         -4.3008   -4.4873    1.4241 C.ar      1 <0>         0.0000
      6 C6         -2.2930   -0.4892   -0.3022 C.ar      1 <0>         0.0000
      7 C7         -1.9047   -3.2553    0.3946 C.ar      1 <0>         0.0000
      8 C8         -3.1266   -2.5852    0.5402 C.ar      1 <0>         0.0000
      9 C9         -4.3044   -3.1601    1.0390 C.ar      1 <0>         0.0000
     10 C10        -3.3396   -1.2271    0.2040 C.ar      1 <0>         0.0000
     11 C11        -5.6990    0.6413   -1.0871 C.2       1 <0>         0.0000
     12 C12        -5.3582    1.0228   -3.1700 C.2       1 <0>         0.0000
     13 C13        -5.3433   -2.0830    1.0261 C.2       1 <0>         0.0000
     14 C14        -3.8129   -0.1031   -4.7740 C.3       1 <0>         0.0000
     15 C15        -3.6261    2.4007   -4.3357 C.3       1 <0>         0.0000
     16 C16        -5.3546    0.3346    0.3362 C.3       1 <0>         0.0000
     17 C17        -4.5747    1.1912   -4.4302 C.3       1 <0>         0.0000
     18 N1         -6.8646    0.8174   -1.6216 N.2       1 <0>         0.0000
     19 N2         -6.6419    1.0695   -2.9869 N.2       1 <0>         0.0000
     20 N3         -4.6831   -0.9404    0.4989 N.am      1 <0>         0.0000
     21 O1         -6.5089   -2.1028    1.3868 O.2       1 <0>         0.0000
     22 O2         -4.6836    0.7620   -2.0015 O.3       1 <0>         0.0000
     23 H1         -3.0568   -6.2510    1.5858 H         1 <0>         0.0000
     24 H2         -0.2029   -0.5720   -0.8524 H         1 <0>         0.0000
     25 H3         -1.0104   -5.2173    0.7143 H         1 <0>         0.0000
     26 H4          0.1577   -2.9306   -0.2686 H         1 <0>         0.0000
     27 H5         -5.1916   -4.9705    1.8152 H         1 <0>         0.0000
     28 H6         -2.3984    0.5497   -0.5962 H         1 <0>         0.0000
     29 H7         -3.0776   -0.3416   -3.9989 H         1 <0>         0.0000
     30 H8         -3.2818    0.0177   -5.7234 H         1 <0>         0.0000
     31 H9         -4.4969   -0.9516   -4.8692 H         1 <0>         0.0000
     32 H10        -2.8725    2.2460   -3.5567 H         1 <0>         0.0000
     33 H11        -4.1745    3.3194   -4.1067 H         1 <0>         0.0000
     34 H12        -3.1047    2.5413   -5.2876 H         1 <0>         0.0000
     35 H13        -4.7287    1.1331    0.7515 H         1 <0>         0.0000
     36 H14        -6.2893    0.2902    0.8983 H         1 <0>         0.0000
     37 H15        -5.3220    1.3836   -5.2058 H         1 <0>         0.0000
@<TRIPOS>BOND
     1    1    3 ar
     2    1    5 ar
     3    1   23 1
     4    2    4 ar
     5    2    6 ar
     6    2   24 1
     7    3    7 ar
     8    3   25 1
     9    4    7 ar
    10    4   26 1
    11    5    9 ar
    12    5   27 1
    13    6   10 ar
    14    6   28 1
    15    7    8 ar
    16    8    9 ar
    17    8   10 ar
    18    9   13 1
    19   10   20 1
    20   11   16 1
    21   11   18 2
    22   11   22 1
    23   12   17 1
    24   12   19 2
    25   12   22 1
    26   13   20 am
    27   13   21 2
    28   14   17 1
    29   14   29 1
    30   14   30 1
    31   14   31 1
    32   15   17 1
    33   15   32 1
    34   15   33 1
    35   15   34 1
    36   16   20 1
    37   16   35 1
    38   16   36 1
    39   17   37 1
    40   18   19 1
