@<TRIPOS>MOLECULE
*****
   42    45     0     0     0
SMALL
NO_CHARGES

@<TRIPOS>ATOM
      1 C1          1.6134    0.6544   -6.3519 C.ar      1 <0>         0.0000
      2 C2          0.3167    0.2691   -6.7087 C.ar      1 <0>         0.0000
      3 C3          2.2022    0.1202   -5.2001 C.ar      1 <0>         0.0000
      4 C4          3.0989   -1.9243    0.1262 C.ar      1 <0>         0.0000
      5 C5         -0.3918   -0.6464   -5.9280 C.ar      1 <0>         0.0000
      6 C6          1.5075   -0.7928   -4.4058 C.ar      1 <0>         0.0000
      7 C7          2.4621   -0.6840    0.0974 C.ar      1 <0>         0.0000
      8 C8          0.3396   -1.8313   -0.2151 C.ar      1 <0>         0.0000
      9 C9          2.3990   -3.1271   -0.0406 C.ar      1 <0>         0.0000
     10 C10         0.2136   -1.1715   -4.7819 C.ar      1 <0>         0.0000
     11 C11         1.0094   -3.0645   -0.2500 C.ar      1 <0>         0.0000
     12 C12         1.0790   -0.6710   -0.0649 C.ar      1 <0>         0.0000
     13 C13        -0.9107   -3.4925   -2.4548 C.2       1 <0>         0.0000
     14 C14        -2.1039   -3.2349   -3.1828 C.2       1 <0>         0.0000
     15 C15        -0.7246   -4.4774   -1.3593 C.2       1 <0>         0.0000
     16 C16         3.1342   -4.4516    0.0691 C.3       1 <0>         0.0000
     17 C17         2.2544   -5.6698   -0.2463 C.3       1 <0>         0.0000
     18 C18         0.8288   -5.4455    0.2625 C.3       1 <0>         0.0000
     19 C19        -3.4746   -3.8023   -3.0052 C.3       1 <0>         0.0000
     20 N1          0.0831   -2.7702   -2.9883 N.2       1 <0>         0.0000
     21 N2         -1.8162   -2.3404   -4.1322 N.2       1 <0>         0.0000
     22 N3         -0.4992   -2.0996   -3.9760 N.pl3     1 <0>         0.0000
     23 N4          0.2795   -4.2705   -0.4291 N.am      1 <0>         0.0000
     24 O1         -1.4397   -5.4827   -1.3320 O.2       1 <0>         0.0000
     25 F1          0.4261    0.5211   -0.0603 F         1 <0>         0.0000
     26 H1          2.1591    1.3672   -6.9640 H         1 <0>         0.0000
     27 H2         -0.1485    0.6802   -7.6004 H         1 <0>         0.0000
     28 H3          3.2062    0.4199   -4.9120 H         1 <0>         0.0000
     29 H4          4.1754   -1.9627    0.2790 H         1 <0>         0.0000
     30 H5         -1.3975   -0.9538   -6.1903 H         1 <0>         0.0000
     31 H6          1.9465   -1.2069   -3.5052 H         1 <0>         0.0000
     32 H7          3.0066    0.2472    0.2175 H         1 <0>         0.0000
     33 H8         -0.7375   -1.7715   -0.3216 H         1 <0>         0.0000
     34 H9          4.0148   -4.4428   -0.5824 H         1 <0>         0.0000
     35 H10         3.5157   -4.5389    1.0947 H         1 <0>         0.0000
     36 H11         2.2056   -5.8384   -1.3275 H         1 <0>         0.0000
     37 H12         2.6800   -6.5717    0.2058 H         1 <0>         0.0000
     38 H13         0.1764   -6.2905    0.0497 H         1 <0>         0.0000
     39 H14         0.8178   -5.2612    1.3431 H         1 <0>         0.0000
     40 H15        -3.8117   -3.6920   -1.9705 H         1 <0>         0.0000
     41 H16        -4.1774   -3.2941   -3.6687 H         1 <0>         0.0000
     42 H17        -3.4736   -4.8733   -3.2241 H         1 <0>         0.0000
@<TRIPOS>BOND
     1    1    3 ar
     2    1    2 ar
     3    1   26 1
     4    2    5 ar
     5    2   27 1
     6    3    6 ar
     7    3   28 1
     8    4    7 ar
     9    4    9 ar
    10    4   29 1
    11    5   10 ar
    12    5   30 1
    13    6   10 ar
    14    6   31 1
    15    7   12 ar
    16    7   32 1
    17    8   11 ar
    18    8   12 ar
    19    8   33 1
    20    9   11 ar
    21    9   16 1
    22   10   22 1
    23   11   23 1
    24   12   25 1
    25   13   14 1
    26   13   15 1
    27   13   20 2
    28   14   19 1
    29   14   21 2
    30   15   23 am
    31   15   24 2
    32   16   17 1
    33   16   34 1
    34   16   35 1
    35   17   18 1
    36   17   36 1
    37   17   37 1
    38   18   23 1
    39   18   38 1
    40   18   39 1
    41   19   40 1
    42   19   41 1
    43   19   42 1
    44   20   22 1
    45   21   22 1
