@<TRIPOS>MOLECULE
*****
   23    23     0     0     0
SMALL
NO_CHARGES

@<TRIPOS>ATOM
      1 C1          1.6342   -0.1589   -0.0358 C.ar      1 <0>         0.0000
      2 C2          0.4088    0.3041    0.4538 C.ar      1 <0>         0.0000
      3 C3          1.0518   -0.3735    2.6901 C.ar      1 <0>         0.0000
      4 C4          2.2779   -0.8482    2.2159 C.ar      1 <0>         0.0000
      5 C5          2.5481   -0.7218    0.8451 C.ar      1 <0>         0.0000
      6 C6          0.1138    0.1988    1.8194 C.ar      1 <0>         0.0000
      7 C7          4.5105   -3.1271    4.0193 C.3       1 <0>         0.0000
      8 C8         -2.3879   -0.7546    2.5310 C.3       1 <0>         0.0000
      9 C9          3.5097   -2.7579    2.9400 C.3       1 <0>         0.0000
     10 O1          3.1957   -1.3540    3.0991 O.3       1 <0>         0.0000
     11 F1          3.7450   -1.1504    0.3689 F         1 <0>         0.0000
     12 S1         -1.4459    0.8172    2.4532 S.3       1 <0>         0.0000
     13 H1          1.8933   -0.0783   -1.0873 H         1 <0>         0.0000
     14 H2         -0.3143    0.7508   -0.2214 H         1 <0>         0.0000
     15 H3          0.8499   -0.4464    3.7546 H         1 <0>         0.0000
     16 H4          5.4263   -2.5389    3.9108 H         1 <0>         0.0000
     17 H5          4.0945   -2.9420    5.0140 H         1 <0>         0.0000
     18 H6          4.7680   -4.1885    3.9412 H         1 <0>         0.0000
     19 H7         -3.3830   -0.5077    2.9101 H         1 <0>         0.0000
     20 H8         -1.9100   -1.4622    3.2127 H         1 <0>         0.0000
     21 H9         -2.4804   -1.2006    1.5380 H         1 <0>         0.0000
     22 H10         2.5826   -3.3375    3.0411 H         1 <0>         0.0000
     23 H11         3.9235   -2.9342    1.9420 H         1 <0>         0.0000
@<TRIPOS>BOND
     1    1    2 ar
     2    1    5 ar
     3    1   13 1
     4    2    6 ar
     5    2   14 1
     6    3    4 ar
     7    3    6 ar
     8    3   15 1
     9    4    5 ar
    10    4   10 1
    11    5   11 1
    12    6   12 1
    13    7    9 1
    14    7   16 1
    15    7   17 1
    16    7   18 1
    17    8   12 1
    18    8   19 1
    19    8   20 1
    20    8   21 1
    21    9   10 1
    22    9   22 1
    23    9   23 1
