@<TRIPOS>MOLECULE
*****
   40    42     0     0     0
SMALL
NO_CHARGES

@<TRIPOS>ATOM
      1 C1          5.7742   -0.6185   -0.9751 C.ar      1 <0>         0.0000
      2 C2          6.2523   -1.7835   -0.3511 C.ar      1 <0>         0.0000
      3 C3          4.4120   -0.3963   -1.0797 C.ar      1 <0>         0.0000
      4 C4          5.2931   -2.6646    0.1347 C.ar      1 <0>         0.0000
      5 C5          3.5189   -1.3648   -0.5413 C.ar      1 <0>         0.0000
      6 C6         -0.1656    0.5066    0.7741 C.2       1 <0>         0.0000
      7 C7         -2.3498    0.4355   -1.1595 C.3       1 <0>         0.0000
      8 C8         -0.9105    0.4652   -1.6650 C.3       1 <0>         0.0000
      9 C9         -0.1202   -1.6633   -0.4489 C.3       1 <0>         0.0000
     10 C10        -2.4686    1.2681    0.1108 C.3       1 <0>         0.0000
     11 C11         1.2467   -2.1452    0.0370 C.3       1 <0>         0.0000
     12 C12         1.5199    0.0231   -1.0321 C.3       1 <0>         0.0000
     13 C13         0.0389   -0.1231   -0.6155 C.3       1 <0>         0.0000
     14 C14        -1.6278    1.5588    2.4110 C.3       1 <0>         0.0000
     15 C15         5.6963   -3.9572    0.8213 C.3       1 <0>         0.0000
     16 N1          3.9733   -2.4827    0.0570 N.ar      1 <0>         0.0000
     17 N2          2.1669   -1.2186   -0.6231 N.pl3     1 <0>         0.0000
     18 N3         -1.4196    0.9704    1.0908 N.am      1 <0>         0.0000
     19 O1          0.7557    0.5080    1.5948 O.2       1 <0>         0.0000
     20 F1          7.0465   -4.0948    0.8862 F         1 <0>         0.0000
     21 F2          5.2295   -4.0215    2.0897 F         1 <0>         0.0000
     22 F3          5.2196   -5.0428    0.1653 F         1 <0>         0.0000
     23 H1          6.4729    0.1101   -1.3781 H         1 <0>         0.0000
     24 H2          7.3110   -1.9885   -0.2517 H         1 <0>         0.0000
     25 H3          4.0349    0.4961   -1.5661 H         1 <0>         0.0000
     26 H4         -3.0389    0.8370   -1.9095 H         1 <0>         0.0000
     27 H5         -2.6553   -0.5972   -0.9601 H         1 <0>         0.0000
     28 H6         -0.8105   -0.0968   -2.6004 H         1 <0>         0.0000
     29 H7         -0.6218    1.5023   -1.8842 H         1 <0>         0.0000
     30 H8         -0.3484   -2.0997   -1.4282 H         1 <0>         0.0000
     31 H9         -0.9227   -1.9379    0.2395 H         1 <0>         0.0000
     32 H10        -2.4301    2.3397   -0.1412 H         1 <0>         0.0000
     33 H11        -3.4373    1.0919    0.5918 H         1 <0>         0.0000
     34 H12         1.3436   -2.0697    1.1256 H         1 <0>         0.0000
     35 H13         1.4645   -3.1748   -0.2539 H         1 <0>         0.0000
     36 H14         1.5933    0.1585   -2.1205 H         1 <0>         0.0000
     37 H15         1.9781    0.8889   -0.5435 H         1 <0>         0.0000
     38 H16        -1.6200    2.6560    2.3589 H         1 <0>         0.0000
     39 H17        -0.8305    1.2334    3.0766 H         1 <0>         0.0000
     40 H18        -2.5964    1.2355    2.8065 H         1 <0>         0.0000
@<TRIPOS>BOND
     1    1    2 ar
     2    1    3 ar
     3    1   23 1
     4    2    4 ar
     5    2   24 1
     6    3    5 ar
     7    3   25 1
     8    4   15 1
     9    4   16 ar
    10    5   16 ar
    11    5   17 1
    12    6   13 1
    13    6   18 am
    14    6   19 2
    15    7    8 1
    16    7   10 1
    17    7   26 1
    18    7   27 1
    19    8   13 1
    20    8   28 1
    21    8   29 1
    22    9   11 1
    23    9   13 1
    24    9   30 1
    25    9   31 1
    26   10   18 1
    27   10   32 1
    28   10   33 1
    29   11   17 1
    30   11   34 1
    31   11   35 1
    32   12   13 1
    33   12   17 1
    34   12   36 1
    35   12   37 1
    36   14   18 1
    37   14   38 1
    38   14   39 1
    39   14   40 1
    40   15   20 1
    41   15   21 1
    42   15   22 1
