@<TRIPOS>MOLECULE
*****
   50    54     0     0     0
SMALL
NO_CHARGES

@<TRIPOS>ATOM
      1 C1         -1.6241    6.2522    2.2484 C.ar      1 <0>         0.0000
      2 C2         -1.3459    4.9119    1.9607 C.ar      1 <0>         0.0000
      3 C3         -0.4915    5.4911   -0.2432 C.ar      1 <0>         0.0000
      4 C4         -0.6247    8.0700   -0.6495 C.2       1 <0>         0.0000
      5 C5         -0.7552    2.2366   -2.9904 C.ar      1 <0>         0.0000
      6 C6         -0.7650    6.8415    0.0311 C.ar      1 <0>         0.0000
      7 C7         -0.1976    1.0497   -0.6719 C.ar      1 <0>         0.0000
      8 C8          0.1401    0.0895    0.3166 C.2       1 <0>         0.0000
      9 C9         -1.3195    7.1886    1.2580 C.ar      1 <0>         0.0000
     10 C10        -0.7893    4.5358    0.7367 C.ar      1 <0>         0.0000
     11 C11         0.3302   -1.1149   -0.3338 C.2       1 <0>         0.0000
     12 C12        -0.2060    0.3847   -1.8946 C.ar      1 <0>         0.0000
     13 C13        -0.5003    2.4107   -0.6999 C.ar      1 <0>         0.0000
     14 C14         0.3070    0.2429    1.7901 C.3       1 <0>         0.0000
     15 C15         0.6752   -2.4139    0.2993 C.3       1 <0>         0.0000
     16 C16         1.1644   -2.1716    1.7383 C.3       1 <0>         0.0000
     17 C17         0.3248   -1.1271    2.5196 C.3       1 <0>         0.0000
     18 C18         0.2592   -0.0017    4.5815 C.3       1 <0>         0.0000
     19 C19        -2.3210   -3.1388    4.1173 C.3       1 <0>         0.0000
     20 C20        -1.0958   -1.6398    2.7851 C.3       1 <0>         0.0000
     21 N1         -1.0480    9.1121    0.0694 N.2       1 <0>         0.0000
     22 N2         -0.4792    0.9210   -3.0969 N.ar      1 <0>         0.0000
     23 N3         -0.7826    3.0079   -1.8806 N.ar      1 <0>         0.0000
     24 N4         -1.4621    8.5493    1.2169 N.pl3     1 <0>         0.0000
     25 N5          0.1152   -0.9296   -1.6712 N.pl3     1 <0>         0.0000
     26 N6         -0.5209    3.1745    0.4814 N.pl3     1 <0>         0.0000
     27 O1          0.9598   -0.9461    3.7904 O.3       1 <0>         0.0000
     28 O2         -1.0345   -2.6114    3.8111 O.3       1 <0>         0.0000
     29 H1         -2.0565    6.5461    3.1985 H         1 <0>         0.0000
     30 H2         -1.5713    4.1580    2.7120 H         1 <0>         0.0000
     31 H3         -0.0588    5.1969   -1.1954 H         1 <0>         0.0000
     32 H4         -0.2314    8.2473   -1.6405 H         1 <0>         0.0000
     33 H5         -0.9866    2.7454   -3.9201 H         1 <0>         0.0000
     34 H6          1.2402    0.7837    1.9977 H         1 <0>         0.0000
     35 H7         -0.5269    0.8544    2.1622 H         1 <0>         0.0000
     36 H8         -0.1899   -3.0861    0.3095 H         1 <0>         0.0000
     37 H9          1.4651   -2.9000   -0.2854 H         1 <0>         0.0000
     38 H10         1.1501   -3.1267    2.2889 H         1 <0>         0.0000
     39 H11         2.2180   -1.8538    1.6907 H         1 <0>         0.0000
     40 H12         0.7650    0.1160    5.5430 H         1 <0>         0.0000
     41 H13        -0.7667   -0.3449    4.7371 H         1 <0>         0.0000
     42 H14         0.2450    0.9582    4.0599 H         1 <0>         0.0000
     43 H15        -2.2306   -3.8835    4.9119 H         1 <0>         0.0000
     44 H16        -2.7509   -3.5957    3.2224 H         1 <0>         0.0000
     45 H17        -2.9674   -2.3254    4.4552 H         1 <0>         0.0000
     46 H18        -1.4980   -2.0914    1.8802 H         1 <0>         0.0000
     47 H19        -1.7305   -0.8149    3.1028 H         1 <0>         0.0000
     48 H20        -1.8358    9.1536    1.9381 H         1 <0>         0.0000
     49 H21         0.1832   -1.6432   -2.3838 H         1 <0>         0.0000
     50 H22        -0.2992    2.6413    1.3187 H         1 <0>         0.0000
@<TRIPOS>BOND
     1    1    2 ar
     2    1    9 ar
     3    1   29 1
     4    2   10 ar
     5    2   30 1
     6    3    6 ar
     7    3   10 ar
     8    3   31 1
     9    4    6 1
    10    4   21 2
    11    4   32 1
    12    5   22 ar
    13    5   23 ar
    14    5   33 1
    15    6    9 ar
    16    7    8 1
    17    7   12 ar
    18    7   13 ar
    19    8   11 2
    20    8   14 1
    21    9   24 1
    22   10   26 1
    23   11   15 1
    24   11   25 1
    25   12   22 ar
    26   12   25 1
    27   13   23 ar
    28   13   26 1
    29   14   17 1
    30   14   34 1
    31   14   35 1
    32   15   16 1
    33   15   36 1
    34   15   37 1
    35   16   17 1
    36   16   38 1
    37   16   39 1
    38   17   20 1
    39   17   27 1
    40   18   27 1
    41   18   40 1
    42   18   41 1
    43   18   42 1
    44   19   28 1
    45   19   43 1
    46   19   44 1
    47   19   45 1
    48   20   28 1
    49   20   46 1
    50   20   47 1
    51   21   24 1
    52   24   48 1
    53   25   49 1
    54   26   50 1
