@<TRIPOS>MOLECULE
*****
   27    28     0     0     0
SMALL
NO_CHARGES

@<TRIPOS>ATOM
      1 C1         -2.5320   -2.4060    0.1190 C.ar      1 <0>         0.0000
      2 C2         -2.2740   -1.0680    0.4120 C.ar      1 <0>         0.0000
      3 C3         -1.4940   -3.2440   -0.2850 C.ar      1 <0>         0.0000
      4 C4          6.9020   -2.1990    0.4020 C.ar      1 <0>         0.0000
      5 C5          7.6540   -1.2160   -0.2310 C.ar      1 <0>         0.0000
      6 C6         -0.9820   -0.5650    0.3030 C.ar      1 <0>         0.0000
      7 C7         -0.1990   -2.7510   -0.3990 C.ar      1 <0>         0.0000
      8 C8          5.5240   -2.0650    0.4020 C.ar      1 <0>         0.0000
      9 C9          7.0110   -0.1380   -0.8340 C.ar      1 <0>         0.0000
     10 C10         0.0550   -1.4090   -0.0980 C.ar      1 <0>         0.0000
     11 C11         4.9560   -0.9550   -0.2360 C.ar      1 <0>         0.0000
     12 C12         2.5440   -1.4820   -0.0490 C.2       1 <0>         0.0000
     13 N1          5.6830   -0.0130   -0.8320 N.ar      1 <0>         0.0000
     14 N2          1.3450   -0.8410   -0.2150 N.am      1 <0>         0.0000
     15 N3          3.6050   -0.6720   -0.3240 N.am      1 <0>         0.0000
     16 O1          2.6490   -2.6440    0.3110 O.2       1 <0>         0.0000
     17 H1         -3.5180   -2.7870    0.2040 H         1 <0>         0.0000
     18 H2         -3.0660   -0.4340    0.7190 H         1 <0>         0.0000
     19 H3         -1.6920   -4.2620   -0.5080 H         1 <0>         0.0000
     20 H4          7.3690   -3.0270    0.8710 H         1 <0>         0.0000
     21 H5          8.7110   -1.2830   -0.2530 H         1 <0>         0.0000
     22 H6         -0.7870    0.4510    0.5280 H         1 <0>         0.0000
     23 H7          0.5830   -3.3900   -0.7160 H         1 <0>         0.0000
     24 H8          4.9210   -2.7880    0.8820 H         1 <0>         0.0000
     25 H9          7.5800    0.6160   -1.3160 H         1 <0>         0.0000
     26 H10         1.3950    0.1700   -0.3590 H         1 <0>         0.0000
     27 H11         3.4130    0.2370   -0.7450 H         1 <0>         0.0000
@<TRIPOS>BOND
     1    1    2 ar
     2    1    3 ar
     3    1   17 1
     4    2    6 ar
     5    2   18 1
     6    3    7 ar
     7    3   19 1
     8    4    5 ar
     9    4    8 ar
    10    4   20 1
    11    5    9 ar
    12    5   21 1
    13    6   10 ar
    14    6   22 1
    15    7   10 ar
    16    7   23 1
    17    8   11 ar
    18    8   24 1
    19    9   13 ar
    20    9   25 1
    21   10   14 1
    22   11   13 ar
    23   11   15 1
    24   12   14 am
    25   12   15 am
    26   12   16 2
    27   14   26 1
    28   15   27 1
