@<TRIPOS>MOLECULE
*****
   25    25     0     0     0
SMALL
NO_CHARGES

@<TRIPOS>ATOM
      1 C1          4.8143    1.1081   -3.3350 C.2       1 <0>         0.0000
      2 C2          4.3120    0.7012   -4.5400 C.2       1 <0>         0.0000
      3 C3          6.3366   -0.1854   -4.7331 C.2       1 <0>         0.0000
      4 C4          1.9711    1.7539   -4.2944 C.2       1 <0>         0.0000
      5 C5         -0.2351    2.6066   -4.2733 C.3       1 <0>         0.0000
      6 C6          6.3986   -2.2495   -7.4520 C.3       1 <0>         0.0000
      7 C7          2.9481    0.9461   -5.1237 C.3       1 <0>         0.0000
      8 N1          5.1912   -0.0218   -5.3314 N.2       1 <0>         0.0000
      9 N2          7.3922   -0.9024   -5.3071 N.pl3     1 <0>         0.0000
     10 O1          2.1689    2.2540   -3.2037 O.2       1 <0>         0.0000
     11 O2          8.4621   -3.0827   -5.9553 O.2       1 <0>         0.0000
     12 O3          6.1050   -3.1739   -4.9832 O.2       1 <0>         0.0000
     13 O4          0.7940    1.8560   -4.9541 O.3       1 <0>         0.0000
     14 S1          6.4425    0.5268   -3.1356 S.3       1 <0>         0.0000
     15 S2          7.1105   -2.5334   -5.8280 S.o2      1 <0>         0.0000
     16 H1          4.3322    1.7124   -2.5819 H         1 <0>         0.0000
     17 H2         -1.0936    2.5942   -4.9441 H         1 <0>         0.0000
     18 H3          0.0984    3.6307   -4.0911 H         1 <0>         0.0000
     19 H4         -0.4828    2.1332   -3.3206 H         1 <0>         0.0000
     20 H5          6.1502   -3.2332   -7.8547 H         1 <0>         0.0000
     21 H6          5.5085   -1.6353   -7.3150 H         1 <0>         0.0000
     22 H7          7.1459   -1.7470   -8.0654 H         1 <0>         0.0000
     23 H8          3.0508    1.4441   -6.0947 H         1 <0>         0.0000
     24 H9          2.4756   -0.0164   -5.3506 H         1 <0>         0.0000
     25 H10         8.2840   -0.8684   -4.8167 H         1 <0>         0.0000
@<TRIPOS>BOND
     1    1    2 2
     2    1   14 1
     3    1   16 1
     4    2    7 1
     5    2    8 1
     6    3    8 2
     7    3    9 1
     8    3   14 1
     9    4    7 1
    10    4   10 2
    11    4   13 1
    12    5   13 1
    13    5   17 1
    14    5   18 1
    15    5   19 1
    16    6   15 1
    17    6   20 1
    18    6   21 1
    19    6   22 1
    20    7   23 1
    21    7   24 1
    22    9   15 1
    23    9   25 1
    24   11   15 2
    25   12   15 2
