@<TRIPOS>MOLECULE
*****
   55    57     0     0     0
SMALL
NO_CHARGES

@<TRIPOS>ATOM
      1 C1         -0.8022   -1.3995   -1.4210 C.ar      1 <0>         0.0000
      2 C2         -0.0514   -1.0395   -0.3099 C.ar      1 <0>         0.0000
      3 C3          1.7953   -7.7630    1.0864 C.ar      1 <0>         0.0000
      4 C4          1.3306   -7.2439    3.3997 C.ar      1 <0>         0.0000
      5 C5         -0.8596   -2.7355   -1.8208 C.ar      1 <0>         0.0000
      6 C6          2.4526   -8.9287    1.4800 C.ar      1 <0>         0.0000
      7 C7          1.9878   -8.4095    3.7933 C.ar      1 <0>         0.0000
      8 C8          0.6551   -2.0131    0.3924 C.ar      1 <0>         0.0000
      9 C9          1.2343   -6.9207    2.0462 C.ar      1 <0>         0.0000
     10 C10        -0.1832   -3.7424   -1.1054 C.ar      1 <0>         0.0000
     11 C11         2.5488   -9.2519    2.8335 C.ar      1 <0>         0.0000
     12 C12         0.5985   -3.3633    0.0061 C.ar      1 <0>         0.0000
     13 C13        -0.4792   -6.2031   -0.6944 C.2       1 <0>         0.0000
     14 C14        -2.3911   -6.6068    2.3162 C.2       1 <0>         0.0000
     15 C15         0.5168   -5.6468    1.6160 C.3       1 <0>         0.0000
     16 C16        -0.7480   -5.8899    0.7765 C.3       1 <0>         0.0000
     17 C17        -3.1012   -7.8267    2.8197 C.3       1 <0>         0.0000
     18 C18         1.2375   -6.3731   -5.4569 C.3       1 <0>         0.0000
     19 C19         1.7252   -4.0498   -5.8271 C.3       1 <0>         0.0000
     20 C20         3.7416  -11.2044    2.1848 C.3       1 <0>         0.0000
     21 C21        -0.3269   -5.3406   -2.9913 C.3       1 <0>         0.0000
     22 C22         0.8984   -4.7784   -3.6921 C.3       1 <0>         0.0000
     23 N1         -0.2946   -5.1038   -1.5481 N.am      1 <0>         0.0000
     24 N2          0.8532   -4.9952   -5.1128 N.3       1 <0>         0.0000
     25 O1         -0.5187   -7.3718   -1.0913 O.2       1 <0>         0.0000
     26 O2         -2.5995   -5.4737    2.7282 O.2       1 <0>         0.0000
     27 O3          3.1912  -10.3886    3.2179 O.3       1 <0>         0.0000
     28 O4         -1.4963   -6.9603    1.3461 O.3       1 <0>         0.0000
     29 S1          1.7097   -4.4799    0.8529 S.3       1 <0>         0.0000
     30 H1         -1.3463   -0.6427   -1.9785 H         1 <0>         0.0000
     31 H2         -0.0005   -0.0000    0.0003 H         1 <0>         0.0000
     32 H3          1.7250   -7.5192    0.0294 H         1 <0>         0.0000
     33 H4          0.8964   -6.5935    4.1543 H         1 <0>         0.0000
     34 H5         -1.4736   -2.9770   -2.6852 H         1 <0>         0.0000
     35 H6          2.8877   -9.5804    0.7276 H         1 <0>         0.0000
     36 H7          2.0597   -8.6558    4.8494 H         1 <0>         0.0000
     37 H8          1.2676   -1.6992    1.2356 H         1 <0>         0.0000
     38 H9          0.1731   -5.1751    2.5871 H         1 <0>         0.0000
     39 H10        -1.4068   -5.0314    0.8436 H         1 <0>         0.0000
     40 H11        -4.0030   -8.0017    2.2279 H         1 <0>         0.0000
     41 H12        -3.3518   -7.7006    3.8760 H         1 <0>         0.0000
     42 H13        -2.4445   -8.6958    2.7197 H         1 <0>         0.0000
     43 H14         0.5857   -7.0802   -4.9230 H         1 <0>         0.0000
     44 H15         1.1309   -6.5234   -6.5413 H         1 <0>         0.0000
     45 H16         2.2836   -6.5458   -5.1639 H         1 <0>         0.0000
     46 H17         1.4382   -3.0195   -5.5701 H         1 <0>         0.0000
     47 H18         2.7713   -4.2228   -5.5341 H         1 <0>         0.0000
     48 H19         1.6186   -4.2004   -6.9115 H         1 <0>         0.0000
     49 H20         4.2253  -12.0782    2.6282 H         1 <0>         0.0000
     50 H21         4.4683  -10.6249    1.6099 H         1 <0>         0.0000
     51 H22         2.9358  -11.5329    1.5240 H         1 <0>         0.0000
     52 H23        -0.4135   -6.4212   -3.1435 H         1 <0>         0.0000
     53 H24        -1.2327   -4.8610   -3.3752 H         1 <0>         0.0000
     54 H25         0.9627   -3.6975   -3.5340 H         1 <0>         0.0000
     55 H26         1.8183   -5.2392   -3.3180 H         1 <0>         0.0000
@<TRIPOS>BOND
     1    1    2 ar
     2    1    5 ar
     3    1   30 1
     4    2    8 ar
     5    2   31 1
     6    3    6 ar
     7    3    9 ar
     8    3   32 1
     9    4    7 ar
    10    4    9 ar
    11    4   33 1
    12    5   10 ar
    13    5   34 1
    14    6   11 ar
    15    6   35 1
    16    7   11 ar
    17    7   36 1
    18    8   12 ar
    19    8   37 1
    20    9   15 1
    21   10   12 ar
    22   10   23 1
    23   11   27 1
    24   12   29 1
    25   13   16 1
    26   13   23 am
    27   13   25 2
    28   14   17 1
    29   14   26 2
    30   14   28 1
    31   15   16 1
    32   15   29 1
    33   15   38 1
    34   16   28 1
    35   16   39 1
    36   17   40 1
    37   17   41 1
    38   17   42 1
    39   18   24 1
    40   18   43 1
    41   18   44 1
    42   18   45 1
    43   19   24 1
    44   19   46 1
    45   19   47 1
    46   19   48 1
    47   20   27 1
    48   20   49 1
    49   20   50 1
    50   20   51 1
    51   21   22 1
    52   21   23 1
    53   21   52 1
    54   21   53 1
    55   22   24 1
    56   22   54 1
    57   22   55 1
