@<TRIPOS>MOLECULE
*****
   28    30     0     0     0
SMALL
NO_CHARGES

@<TRIPOS>ATOM
      1 C1         -1.2556    0.7516   -1.5271 C.ar      1 <0>         0.0000
      2 C2         -0.8703   -0.1982   -0.5671 C.ar      1 <0>         0.0000
      3 C3         -2.3029    0.4759   -2.4133 C.ar      1 <0>         0.0000
      4 C4         -1.5040   -1.4427   -0.4677 C.ar      1 <0>         0.0000
      5 C5         -2.9387   -0.7629   -2.3230 C.ar      1 <0>         0.0000
      6 C6         -2.5363   -1.6986   -1.3643 C.ar      1 <0>         0.0000
      7 C7         -5.9861    0.3278   -2.9461 C.cat     1 <0>         0.0000
      8 C8         -6.6586    2.1004   -4.2694 C.3       1 <0>         0.0000
      9 C9         -7.4294    2.0813   -2.9363 C.3       1 <0>         0.0000
     10 C10        -4.0116   -2.8316   -2.6444 C.3       1 <0>         0.0000
     11 C11        -4.1363   -1.3435   -3.0363 C.3       1 <0>         0.0000
     12 N1         -5.6356    1.0730   -3.9983 N.pl3     1 <0>         0.0000
     13 N2         -5.4140   -0.7768   -2.5120 N.pl3     1 <0>         0.0000
     14 O1         -3.2762   -2.8577   -1.4036 O.3       1 <0>         0.0000
     15 O2         -7.0495    0.7991   -2.3164 O.3       1 <0>         0.0000
     16 H1         -0.7322    1.7007   -1.5852 H         1 <0>         0.0000
     17 H2         -0.0534    0.0324    0.1106 H         1 <0>         0.0000
     18 H3         -2.5964    1.2142   -3.1561 H         1 <0>         0.0000
     19 H4         -1.2028   -2.1830    0.2664 H         1 <0>         0.0000
     20 H5         -7.2785    1.8100   -5.1219 H         1 <0>         0.0000
     21 H6         -6.1938    3.0674   -4.4656 H         1 <0>         0.0000
     22 H7         -7.1177    2.8685   -2.2488 H         1 <0>         0.0000
     23 H8         -8.5118    2.0740   -3.0459 H         1 <0>         0.0000
     24 H9         -4.9673   -3.3366   -2.4945 H         1 <0>         0.0000
     25 H10        -3.4327   -3.3599   -3.4084 H         1 <0>         0.0000
     26 H11        -4.1455   -1.2262   -4.1224 H         1 <0>         0.0000
     27 H12        -4.9098    0.8144   -4.6546 H         1 <0>         0.0000
     28 H13        -5.7341   -1.1056   -1.6036 H         1 <0>         0.0000
@<TRIPOS>BOND
     1    1    2 ar
     2    1    3 ar
     3    1   16 1
     4    2    4 ar
     5    2   17 1
     6    3    5 ar
     7    3   18 1
     8    4    6 ar
     9    4   19 1
    10    5    6 ar
    11    5   11 1
    12    6   14 1
    13    7   12 2
    14    7   13 1
    15    7   15 1
    16    8    9 1
    17    8   12 1
    18    8   20 1
    19    8   21 1
    20    9   15 1
    21    9   22 1
    22    9   23 1
    23   10   11 1
    24   10   14 1
    25   10   24 1
    26   10   25 1
    27   11   13 1
    28   11   26 1
    29   12   27 1
    30   13   28 1
