@<TRIPOS>MOLECULE
*****
   28    30     0     0     0
SMALL
NO_CHARGES

@<TRIPOS>ATOM
      1 C1         -1.2816    0.5840   -1.5447 C.ar      1 <0>         0.0000
      2 C2         -0.7501   -0.4435   -0.7472 C.ar      1 <0>         0.0000
      3 C3         -2.4171    0.3518   -2.3283 C.ar      1 <0>         0.0000
      4 C4         -1.3265   -1.7184   -0.7093 C.ar      1 <0>         0.0000
      5 C5         -2.9969   -0.9167   -2.2952 C.ar      1 <0>         0.0000
      6 C6         -2.4540   -1.9287   -1.4995 C.ar      1 <0>         0.0000
      7 C7         -5.8489   -0.6965   -1.2056 C.cat     1 <0>         0.0000
      8 C8         -7.0227   -0.2465    0.7349 C.3       1 <0>         0.0000
      9 C9         -5.6888   -0.9514    1.0400 C.3       1 <0>         0.0000
     10 C10        -4.1173   -2.9740   -2.6280 C.3       1 <0>         0.0000
     11 C11        -4.2316   -1.4631   -2.9615 C.3       1 <0>         0.0000
     12 N1         -6.8359    0.0524   -0.6978 N.pl3     1 <0>         0.0000
     13 N2         -5.5009   -0.8143   -2.4756 N.pl3     1 <0>         0.0000
     14 O1         -3.1509   -3.1052   -1.5649 O.3       1 <0>         0.0000
     15 O2         -5.1961   -1.3707   -0.2828 O.3       1 <0>         0.0000
     16 H1         -0.8003    1.5569   -1.5619 H         1 <0>         0.0000
     17 H2          0.1372   -0.2488   -0.1514 H         1 <0>         0.0000
     18 H3         -2.8273    1.1426   -2.9523 H         1 <0>         0.0000
     19 H4         -0.9127   -2.5170   -0.1017 H         1 <0>         0.0000
     20 H5         -7.8903   -0.8953    0.8841 H         1 <0>         0.0000
     21 H6         -7.1465    0.6724    1.3092 H         1 <0>         0.0000
     22 H7         -4.9343   -0.2834    1.4572 H         1 <0>         0.0000
     23 H8         -5.7824   -1.8516    1.6435 H         1 <0>         0.0000
     24 H9         -5.0563   -3.4232   -2.3016 H         1 <0>         0.0000
     25 H10        -3.7393   -3.5138   -3.5011 H         1 <0>         0.0000
     26 H11        -4.2607   -1.3010   -4.0400 H         1 <0>         0.0000
     27 H12        -7.5109    0.5567   -1.2604 H         1 <0>         0.0000
     28 H13        -6.0542   -0.3072   -3.1571 H         1 <0>         0.0000
@<TRIPOS>BOND
     1    1    2 ar
     2    1    3 ar
     3    1   16 1
     4    2    4 ar
     5    2   17 1
     6    3    5 ar
     7    3   18 1
     8    4    6 ar
     9    4   19 1
    10    5    6 ar
    11    5   11 1
    12    6   14 1
    13    7   12 2
    14    7   13 1
    15    7   15 1
    16    8    9 1
    17    8   12 1
    18    8   20 1
    19    8   21 1
    20    9   15 1
    21    9   22 1
    22    9   23 1
    23   10   11 1
    24   10   14 1
    25   10   24 1
    26   10   25 1
    27   11   13 1
    28   11   26 1
    29   12   27 1
    30   13   28 1
