@<TRIPOS>MOLECULE
*****
   27    29     0     0     0
SMALL
NO_CHARGES

@<TRIPOS>ATOM
      1 C1          0.0665   -0.2030    1.9165 C.ar      1 <0>         0.0000
      2 C2         -0.3784   -0.7800    0.7176 C.ar      1 <0>         0.0000
      3 C3         -0.0215   -0.9195    3.1186 C.ar      1 <0>         0.0000
      4 C4         -0.9215   -2.0712    0.6840 C.ar      1 <0>         0.0000
      5 C5         -0.5670   -2.2003    3.0965 C.ar      1 <0>         0.0000
      6 C6         -1.0058   -2.7607    1.8929 C.ar      1 <0>         0.0000
      7 C7          0.6444   -4.6523    5.6183 C.2       1 <0>         0.0000
      8 C8          0.2725   -5.9415    7.3643 C.3       1 <0>         0.0000
      9 C9          1.7249   -6.1697    6.8705 C.3       1 <0>         0.0000
     10 C10        -1.6145   -4.2835    3.4633 C.3       1 <0>         0.0000
     11 C11        -0.7286   -3.2346    4.1856 C.3       1 <0>         0.0000
     12 N1         -0.3232   -5.0387    6.3686 N.2       1 <0>         0.0000
     13 N2          0.5823   -3.7227    4.6192 N.pl3     1 <0>         0.0000
     14 O1         -1.4958   -4.0309    2.0327 O.3       1 <0>         0.0000
     15 O2          1.8982   -5.1692    5.8286 O.3       1 <0>         0.0000
     16 H1          0.4807    0.8012    1.9116 H         1 <0>         0.0000
     17 H2         -0.3038   -0.2145   -0.2077 H         1 <0>         0.0000
     18 H3          0.3331   -0.4870    4.0509 H         1 <0>         0.0000
     19 H4         -1.2672   -2.5227   -0.2409 H         1 <0>         0.0000
     20 H5         -0.2919   -6.8776    7.4229 H         1 <0>         0.0000
     21 H6          0.2462   -5.4771    8.3581 H         1 <0>         0.0000
     22 H7          2.4909   -5.9981    7.6293 H         1 <0>         0.0000
     23 H8          1.8746   -7.1545    6.4172 H         1 <0>         0.0000
     24 H9         -1.3063   -5.3103    3.6576 H         1 <0>         0.0000
     25 H10        -2.6664   -4.1578    3.7386 H         1 <0>         0.0000
     26 H11        -1.2393   -2.8621    5.0755 H         1 <0>         0.0000
     27 H12         1.3079   -3.7842    3.9145 H         1 <0>         0.0000
@<TRIPOS>BOND
     1    1    2 ar
     2    1    3 ar
     3    1   16 1
     4    2    4 ar
     5    2   17 1
     6    3    5 ar
     7    3   18 1
     8    4    6 ar
     9    4   19 1
    10    5    6 ar
    11    5   11 1
    12    6   14 1
    13    7   12 2
    14    7   13 1
    15    7   15 1
    16    8    9 1
    17    8   12 1
    18    8   20 1
    19    8   21 1
    20    9   15 1
    21    9   22 1
    22    9   23 1
    23   10   11 1
    24   10   14 1
    25   10   24 1
    26   10   25 1
    27   11   13 1
    28   11   26 1
    29   13   27 1
