@<TRIPOS>MOLECULE
*****
   28    30     0     0     0
SMALL
NO_CHARGES

@<TRIPOS>ATOM
      1 C1          4.5806    0.4768    1.1686 C.ar      1 <0>         0.0000
      2 C2          4.8763    0.6180   -0.1973 C.ar      1 <0>         0.0000
      3 C3          3.3989    1.0111    1.6946 C.ar      1 <0>         0.0000
      4 C4          4.0176    1.2946   -1.0721 C.ar      1 <0>         0.0000
      5 C5          2.5379    1.6869    0.8286 C.ar      1 <0>         0.0000
      6 C6          2.8507    1.8241   -0.5282 C.ar      1 <0>         0.0000
      7 C7         -1.0783    1.3715    1.5471 C.cat     1 <0>         0.0000
      8 C8         -3.2400    1.0116    2.2882 C.3       1 <0>         0.0000
      9 C9         -2.9303    2.5168    2.1949 C.3       1 <0>         0.0000
     10 C10         1.0188    3.1169   -0.2587 C.3       1 <0>         0.0000
     11 C11         1.1801    2.3001    1.0436 C.3       1 <0>         0.0000
     12 N1         -2.0523    0.4551    1.6140 N.pl3     1 <0>         0.0000
     13 N2          0.1698    1.1963    1.1643 N.pl3     1 <0>         0.0000
     14 O1          1.8923    2.5089   -1.2339 O.3       1 <0>         0.0000
     15 O2         -1.4820    2.5743    1.9194 O.3       1 <0>         0.0000
     16 H1          5.2771   -0.0421    1.8195 H         1 <0>         0.0000
     17 H2          5.8006    0.2004   -0.5863 H         1 <0>         0.0000
     18 H3          3.1679    0.9094    2.7522 H         1 <0>         0.0000
     19 H4          4.2496    1.4147   -2.1254 H         1 <0>         0.0000
     20 H5         -3.3001    0.6556    3.3203 H         1 <0>         0.0000
     21 H6         -4.1517    0.7430    1.7532 H         1 <0>         0.0000
     22 H7         -3.4282    3.0064    1.3572 H         1 <0>         0.0000
     23 H8         -3.1007    3.0678    3.1174 H         1 <0>         0.0000
     24 H9          0.0050    3.1216   -0.6609 H         1 <0>         0.0000
     25 H10         1.3510    4.1454   -0.0829 H         1 <0>         0.0000
     26 H11         1.0861    2.9213    1.9349 H         1 <0>         0.0000
     27 H12        -1.8909   -0.5387    1.4979 H         1 <0>         0.0000
     28 H13         0.4751    0.2682    0.8860 H         1 <0>         0.0000
@<TRIPOS>BOND
     1    1    2 ar
     2    1    3 ar
     3    1   16 1
     4    2    4 ar
     5    2   17 1
     6    3    5 ar
     7    3   18 1
     8    4    6 ar
     9    4   19 1
    10    5    6 ar
    11    5   11 1
    12    6   14 1
    13    7   12 1
    14    7   13 2
    15    7   15 1
    16    8    9 1
    17    8   12 1
    18    8   20 1
    19    8   21 1
    20    9   15 1
    21    9   22 1
    22    9   23 1
    23   10   11 1
    24   10   14 1
    25   10   24 1
    26   10   25 1
    27   11   13 1
    28   11   26 1
    29   12   27 1
    30   13   28 1
