@<TRIPOS>MOLECULE
*****
   31    31     0     0     0
SMALL
NO_CHARGES

@<TRIPOS>ATOM
      1 C1          1.0091    0.0279    0.4296 C.3       1 <0>         0.0000
      2 C2          0.9869    0.8493    1.7159 C.3       1 <0>         0.0000
      3 C3          1.9788    0.6051   -0.5982 C.3       1 <0>         0.0000
      4 C4          0.7042    2.3259    1.4357 C.3       1 <0>         0.0000
      5 C5          1.6941    2.0823   -0.8729 C.3       1 <0>         0.0000
      6 C6          1.6666    2.9312    0.4051 C.3       1 <0>         0.0000
      7 C7          4.6333    4.7213    3.0776 C.3       1 <0>         0.0000
      8 C8          6.1697    3.3261    1.7641 C.3       1 <0>         0.0000
      9 N1          3.0131    3.0391    0.9711 N.pl3     1 <0>         0.0000
     10 N2          5.1711    4.4289    1.7201 N.pl3     1 <0>         0.0000
     11 O1          4.6949    3.8902   -0.7694 O.2       1 <0>         0.0000
     12 O2          3.2229    5.5447    0.4179 O.2       1 <0>         0.0000
     13 S1          4.0109    4.3253    0.4348 S.o2      1 <0>         0.0000
     14 H1          0.0001   -0.0137    0.0015 H         1 <0>         0.0000
     15 H2          1.2977   -1.0055    0.6622 H         1 <0>         0.0000
     16 H3          0.2175    0.4534    2.3896 H         1 <0>         0.0000
     17 H4          1.9474    0.7505    2.2332 H         1 <0>         0.0000
     18 H5          3.0076    0.4888   -0.2406 H         1 <0>         0.0000
     19 H6          1.8983    0.0393   -1.5340 H         1 <0>         0.0000
     20 H7         -0.3359    2.4404    1.0869 H         1 <0>         0.0000
     21 H8          0.7632    2.8912    2.3822 H         1 <0>         0.0000
     22 H9          2.4571    2.4750   -1.5678 H         1 <0>         0.0000
     23 H10         0.7325    2.1777   -1.4046 H         1 <0>         0.0000
     24 H11         1.3200    3.9502    0.1479 H         1 <0>         0.0000
     25 H12         3.8996    5.5385    3.0137 H         1 <0>         0.0000
     26 H13         4.1455    3.8214    3.4803 H         1 <0>         0.0000
     27 H14         5.4576    5.0200    3.7419 H         1 <0>         0.0000
     28 H15         6.5484    3.1329    0.7496 H         1 <0>         0.0000
     29 H16         7.0055    3.6143    2.4187 H         1 <0>         0.0000
     30 H17         5.6933    2.4157    2.1570 H         1 <0>         0.0000
     31 H18         3.4664    2.1303    1.1136 H         1 <0>         0.0000
@<TRIPOS>BOND
     1    1    3 1
     2    1    2 1
     3    1   14 1
     4    1   15 1
     5    2    4 1
     6    2   16 1
     7    2   17 1
     8    3    5 1
     9    3   18 1
    10    3   19 1
    11    4    6 1
    12    4   20 1
    13    4   21 1
    14    5    6 1
    15    5   22 1
    16    5   23 1
    17    6    9 1
    18    6   24 1
    19    7   10 1
    20    7   25 1
    21    7   26 1
    22    7   27 1
    23    8   10 1
    24    8   28 1
    25    8   29 1
    26    8   30 1
    27    9   13 1
    28    9   31 1
    29   10   13 1
    30   11   13 2
    31   12   13 2
