@<TRIPOS>MOLECULE
*****
   29    29     0     0     0
SMALL
NO_CHARGES

@<TRIPOS>ATOM
      1 C1         -5.5643   -4.1458    0.8296 C.ar      1 <0>         0.0000
      2 C2         -4.2325   -4.5305    0.9848 C.ar      1 <0>         0.0000
      3 C3         -6.1186   -3.1918    1.6830 C.ar      1 <0>         0.0000
      4 C4         -3.4550   -3.9612    1.9932 C.ar      1 <0>         0.0000
      5 C5         -5.3411   -2.6224    2.6914 C.ar      1 <0>         0.0000
      6 C6         -4.0093   -3.0071    2.8466 C.ar      1 <0>         0.0000
      7 C7         -1.9159   -2.8798    5.8006 C.2       1 <0>         0.0000
      8 C8         -2.0313   -4.3862    2.1430 C.3       1 <0>         0.0000
      9 C9         -5.9529   -1.6029    3.5949 C.3       1 <0>         0.0000
     10 C10        -0.7389   -3.4779    7.9108 C.3       1 <0>         0.0000
     11 C11        -3.2382   -3.0916    5.0947 C.3       1 <0>         0.0000
     12 N1         -1.8842   -3.5179    7.0307 N.am      1 <0>         0.0000
     13 O1         -1.0023   -2.2183    5.3150 O.2       1 <0>         0.0000
     14 O2         -3.2426   -2.4449    3.8398 O.3       1 <0>         0.0000
     15 H1         -6.1698   -4.5893    0.0446 H         1 <0>         0.0000
     16 H2         -3.8097   -5.2744    0.3149 H         1 <0>         0.0000
     17 H3         -7.1570   -2.8985    1.5541 H         1 <0>         0.0000
     18 H4         -1.3785   -3.7484    1.5358 H         1 <0>         0.0000
     19 H5         -1.7067   -4.3235    3.1890 H         1 <0>         0.0000
     20 H6         -1.8934   -5.4281    1.8279 H         1 <0>         0.0000
     21 H7         -6.3990   -2.0896    4.4701 H         1 <0>         0.0000
     22 H8         -5.2042   -0.8796    3.9411 H         1 <0>         0.0000
     23 H9         -6.7332   -1.0314    3.0771 H         1 <0>         0.0000
     24 H10        -0.0675   -4.3122    7.6919 H         1 <0>         0.0000
     25 H11        -1.0608   -3.5494    8.9534 H         1 <0>         0.0000
     26 H12        -0.1916   -2.5411    7.7765 H         1 <0>         0.0000
     27 H13        -3.3938   -4.1627    4.9337 H         1 <0>         0.0000
     28 H14        -4.0571   -2.6990    5.7054 H         1 <0>         0.0000
     29 H15        -2.7047   -4.0381    7.3274 H         1 <0>         0.0000
@<TRIPOS>BOND
     1    1    3 ar
     2    1    2 ar
     3    1   15 1
     4    2    4 ar
     5    2   16 1
     6    3    5 ar
     7    3   17 1
     8    4    6 ar
     9    4    8 1
    10    5    6 ar
    11    5    9 1
    12    6   14 1
    13    7   11 1
    14    7   12 am
    15    7   13 2
    16    8   18 1
    17    8   19 1
    18    8   20 1
    19    9   21 1
    20    9   22 1
    21    9   23 1
    22   10   12 1
    23   10   24 1
    24   10   25 1
    25   10   26 1
    26   11   14 1
    27   11   27 1
    28   11   28 1
    29   12   29 1
