@<TRIPOS>MOLECULE
*****
   15    15     0     0     0
SMALL
NO_CHARGES

@<TRIPOS>ATOM
      1 C1          1.8851   -1.0363   -0.1124 C.ar      1 <0>         0.0000
      2 C2          2.9210   -1.6309    0.6081 C.ar      1 <0>         0.0000
      3 C3          0.8066   -0.4630    0.5610 C.ar      1 <0>         0.0000
      4 C4          2.8783   -1.6520    2.0022 C.ar      1 <0>         0.0000
      5 C5          0.7638   -0.4841    1.9551 C.ar      1 <0>         0.0000
      6 C6          1.7997   -1.0786    2.6757 C.ar      1 <0>         0.0000
      7 O1          0.5850   -0.4883    5.1545 O.2       1 <0>         0.0000
      8 P1          1.7456   -1.1055    4.4406 P.3       1 <0>         0.0000
      9 Cl1         1.9497   -3.0344    4.9410 Cl        1 <0>         0.0000
     10 Cl2         3.4706   -0.2733    5.0277 Cl        1 <0>         0.0000
     11 H1          1.9183   -1.0197   -1.1979 H         1 <0>         0.0000
     12 H2          3.7606   -2.0775    0.0836 H         1 <0>         0.0000
     13 H3          0.0002    0.0002    0.0000 H         1 <0>         0.0000
     14 H4          3.6871   -2.1165    2.5590 H         1 <0>         0.0000
     15 H5         -0.0779   -0.0359    2.4752 H         1 <0>         0.0000
@<TRIPOS>BOND
     1    1    3 ar
     2    1    2 ar
     3    1   11 1
     4    2    4 ar
     5    2   12 1
     6    3    5 ar
     7    3   13 1
     8    4    6 ar
     9    4   14 1
    10    5    6 ar
    11    5   15 1
    12    6    8 1
    13    7    8 2
    14    8    9 1
    15    8   10 1
