@<TRIPOS>MOLECULE
*****
   16    15     0     0     0
SMALL
NO_CHARGES

@<TRIPOS>ATOM
      1 C1         -1.3437   -1.5887    0.5084 C.2       1 <0>         0.0000
      2 C2         -1.2444   -0.2503   -0.1772 C.3       1 <0>         0.0000
      3 C3          0.0489   -1.2526    3.9949 C.3       1 <0>         0.0000
      4 C4         -1.2416   -1.6646    2.0179 C.3       1 <0>         0.0000
      5 N1          1.0644   -1.7331    1.9439 N.2       1 <0>         0.0000
      6 N2          0.0055   -1.1685    2.5165 N.pl3     1 <0>         0.0000
      7 O1         -1.5050   -2.6188   -0.1507 O.2       1 <0>         0.0000
      8 O2          2.1279   -1.2049    2.2903 O.2       1 <0>         0.0000
      9 H1         -0.1978   -0.0411   -0.4178 H         1 <0>         0.0000
     10 H2         -1.8158   -0.2655   -1.1085 H         1 <0>         0.0000
     11 H3         -1.6096    0.5366    0.4871 H         1 <0>         0.0000
     12 H4          0.4648   -2.2256    4.2953 H         1 <0>         0.0000
     13 H5          0.6833   -0.4453    4.3895 H         1 <0>         0.0000
     14 H6         -0.9694   -1.1490    4.3979 H         1 <0>         0.0000
     15 H7         -1.3352   -2.7077    2.3309 H         1 <0>         0.0000
     16 H8         -2.0406   -1.0644    2.4610 H         1 <0>         0.0000
@<TRIPOS>BOND
     1    1    2 1
     2    1    4 1
     3    1    7 2
     4    2    9 1
     5    2   10 1
     6    2   11 1
     7    3    6 1
     8    3   12 1
     9    3   13 1
    10    3   14 1
    11    4    6 1
    12    4   15 1
    13    4   16 1
    14    5    6 1
    15    5    8 2
