@<TRIPOS>MOLECULE
*****
   29    31     0     0     0
SMALL
NO_CHARGES

@<TRIPOS>ATOM
      1 C1         -3.1196   -1.4113   -7.8061 C.ar      1 <0>         0.0000
      2 C2          1.6493    1.7052   -4.8351 C.ar      1 <0>         0.0000
      3 C3          2.6009    1.7535   -5.8694 C.ar      1 <0>         0.0000
      4 C4         -3.8800   -0.8829   -6.7573 C.ar      1 <0>         0.0000
      5 C5         -2.2627   -2.4842   -7.5709 C.ar      1 <0>         0.0000
      6 C6          0.8169    0.5933   -4.6508 C.ar      1 <0>         0.0000
      7 C7          2.7605    0.6851   -6.7671 C.ar      1 <0>         0.0000
      8 C8         -3.7872   -1.4351   -5.4776 C.ar      1 <0>         0.0000
      9 C9         -2.1478   -3.0536   -6.2904 C.ar      1 <0>         0.0000
     10 C10         0.9666   -0.4747   -5.5375 C.ar      1 <0>         0.0000
     11 C11         1.9247   -0.3994   -6.5617 C.ar      1 <0>         0.0000
     12 C12        -2.9314   -2.5144   -5.2601 C.ar      1 <0>         0.0000
     13 C13         0.8547   -2.2904   -6.6394 C.2       1 <0>         0.0000
     14 C14        -1.2954   -4.2432   -6.0779 C.2       1 <0>         0.0000
     15 N1          0.3023   -1.7076   -5.6216 N.2       1 <0>         0.0000
     16 N2         -0.1167   -4.5146   -6.5163 N.2       1 <0>         0.0000
     17 N3          0.5876   -3.5171   -7.2090 N.pl3     1 <0>         0.0000
     18 O1          1.8523   -1.5853   -7.2847 O.3       1 <0>         0.0000
     19 Br1        -2.7929   -3.2138   -3.4799 Br        1 <0>         0.0000
     20 H1         -3.1938   -0.9866   -8.8032 H         1 <0>         0.0000
     21 H2          1.5591    2.5533   -4.1618 H         1 <0>         0.0000
     22 H3          3.2271    2.6343   -5.9787 H         1 <0>         0.0000
     23 H4         -4.5456   -0.0416   -6.9302 H         1 <0>         0.0000
     24 H5         -1.6670   -2.8945   -8.3800 H         1 <0>         0.0000
     25 H6          0.0826    0.5545   -3.8519 H         1 <0>         0.0000
     26 H7          3.4914    0.7101   -7.5692 H         1 <0>         0.0000
     27 H8         -4.3686   -1.0294   -4.6560 H         1 <0>         0.0000
     28 H9         -1.7349   -5.0623   -5.5103 H         1 <0>         0.0000
     29 H10         1.4103   -3.9210   -7.6444 H         1 <0>         0.0000
@<TRIPOS>BOND
     1    1    4 ar
     2    1    5 ar
     3    1   20 1
     4    2    3 ar
     5    2    6 ar
     6    2   21 1
     7    3    7 ar
     8    3   22 1
     9    4    8 ar
    10    4   23 1
    11    5    9 ar
    12    5   24 1
    13    6   10 ar
    14    6   25 1
    15    7   11 ar
    16    7   26 1
    17    8   12 ar
    18    8   27 1
    19    9   12 ar
    20    9   14 1
    21   10   11 ar
    22   10   15 1
    23   11   18 1
    24   12   19 1
    25   13   15 2
    26   13   17 1
    27   13   18 1
    28   14   16 2
    29   14   28 1
    30   16   17 1
    31   17   29 1
