@<TRIPOS>MOLECULE
*****
   44    46     0     0     0
SMALL
NO_CHARGES

@<TRIPOS>ATOM
      1 C1         -5.7457    3.5909   -4.0046 C.1       1 <0>         0.0000
      2 C2         -3.9551    2.8016   -2.5383 C.2       1 <0>         0.0000
      3 C3         -5.2711    2.7579   -2.9433 C.2       1 <0>         0.0000
      4 C4         -3.4510    1.9670   -1.5062 C.2       1 <0>         0.0000
      5 C5         -4.3301    1.1360   -0.8414 C.2       1 <0>         0.0000
      6 C6         -6.2238    1.8636   -2.2874 C.2       1 <0>         0.0000
      7 C7          0.1762   -0.9891    0.5851 C.2       1 <0>         0.0000
      8 C8         -2.0119    2.1278   -1.1038 C.2       1 <0>         0.0000
      9 C9          2.9154   -0.0644    0.2432 C.3       1 <0>         0.0000
     10 C10         2.1389   -0.5306   -0.9846 C.3       1 <0>         0.0000
     11 C11        -0.1962   -0.9840   -1.9151 C.3       1 <0>         0.0000
     12 C12         2.5447   -0.9301    1.4400 C.3       1 <0>         0.0000
     13 C13        -1.5306   -0.2235   -1.9218 C.3       1 <0>         0.0000
     14 C14         0.1726    1.0949   -0.7681 C.3       1 <0>         0.0000
     15 C15         0.6319   -0.3854   -0.7546 C.3       1 <0>         0.0000
     16 C16        -4.0031    0.2803    0.3492 C.3       1 <0>         0.0000
     17 C17         0.6794   -1.6852    2.8665 C.3       1 <0>         0.0000
     18 N1         -6.1003    4.2775   -4.8772 N.1       1 <0>         0.0000
     19 N2         -5.6371    1.1204   -1.2428 N.am      1 <0>         0.0000
     20 N3          1.0970   -1.1123    1.5895 N.am      1 <0>         0.0000
     21 N4         -1.2125    1.0359   -1.2268 N.am      1 <0>         0.0000
     22 O1         -7.4144    1.7255   -2.5488 O.2       1 <0>         0.0000
     23 O2         -1.0139   -1.2888    0.7524 O.2       1 <0>         0.0000
     24 O3         -1.5864    3.2142   -0.6975 O.2       1 <0>         0.0000
     25 H1         -3.2725    3.4963   -3.0202 H         1 <0>         0.0000
     26 H2          3.9952   -0.1353    0.0782 H         1 <0>         0.0000
     27 H3          2.6900    0.9865    0.4552 H         1 <0>         0.0000
     28 H4          2.4276    0.0406   -1.8738 H         1 <0>         0.0000
     29 H5          2.3767   -1.5824   -1.1915 H         1 <0>         0.0000
     30 H6         -0.3445   -2.0602   -1.8079 H         1 <0>         0.0000
     31 H7          0.3466   -0.8053   -2.8493 H         1 <0>         0.0000
     32 H8          3.0188   -1.9191    1.3477 H         1 <0>         0.0000
     33 H9          2.9224   -0.4831    2.3663 H         1 <0>         0.0000
     34 H10        -1.8920   -0.0265   -2.9357 H         1 <0>         0.0000
     35 H11        -2.2889   -0.7858   -1.3777 H         1 <0>         0.0000
     36 H12         0.2196    1.5889    0.2041 H         1 <0>         0.0000
     37 H13         0.7908    1.6788   -1.4637 H         1 <0>         0.0000
     38 H14        -4.5193    0.6733    1.2332 H         1 <0>         0.0000
     39 H15        -2.9355    0.2489    0.5587 H         1 <0>         0.0000
     40 H16        -4.3444   -0.7491    0.1944 H         1 <0>         0.0000
     41 H17         1.1425   -2.6690    3.0157 H         1 <0>         0.0000
     42 H18        -0.4031   -1.7947    2.8709 H         1 <0>         0.0000
     43 H19         0.9870   -1.0275    3.6869 H         1 <0>         0.0000
     44 H20        -6.2985    0.5238   -0.7527 H         1 <0>         0.0000
@<TRIPOS>BOND
     1    1    3 1
     2    1   18 3
     3    2    3 2
     4    2    4 1
     5    2   25 1
     6    3    6 1
     7    4    5 2
     8    4    8 1
     9    5   16 1
    10    5   19 1
    11    6   19 am
    12    6   22 2
    13    7   15 1
    14    7   20 am
    15    7   23 2
    16    8   21 am
    17    8   24 2
    18    9   10 1
    19    9   12 1
    20    9   26 1
    21    9   27 1
    22   10   15 1
    23   10   28 1
    24   10   29 1
    25   11   13 1
    26   11   15 1
    27   11   30 1
    28   11   31 1
    29   12   20 1
    30   12   32 1
    31   12   33 1
    32   13   21 1
    33   13   34 1
    34   13   35 1
    35   14   15 1
    36   14   21 1
    37   14   36 1
    38   14   37 1
    39   16   38 1
    40   16   39 1
    41   16   40 1
    42   17   20 1
    43   17   41 1
    44   17   42 1
    45   17   43 1
    46   19   44 1
