@<TRIPOS>MOLECULE
*****
   28    29     0     0     0
SMALL
NO_CHARGES

@<TRIPOS>ATOM
      1 C1          2.0072   -4.5914   -4.0257 C.1       1 <0>         0.0000
      2 C2          2.5849   -1.9282    1.9601 C.ar      1 <0>         0.0000
      3 C3          1.5137   -1.3259    2.6252 C.ar      1 <0>         0.0000
      4 C4          1.9543   -0.8128   -0.0915 C.ar      1 <0>         0.0000
      5 C5          2.7877   -3.7307   -3.2180 C.2       1 <0>         0.0000
      6 C6          2.8158   -1.6722    0.6037 C.ar      1 <0>         0.0000
      7 C7          0.6691   -0.4747    1.9213 C.ar      1 <0>         0.0000
      8 C8          0.8781   -0.2152    0.5637 C.ar      1 <0>         0.0000
      9 C9          3.6928   -2.6931   -3.6146 C.2       1 <0>         0.0000
     10 C10         2.7976   -3.7087   -1.8170 C.2       1 <0>         0.0000
     11 C11         4.0520   -2.2878   -5.0085 C.3       1 <0>         0.0000
     12 C12         3.9942   -2.3071   -0.1144 C.3       1 <0>         0.0000
     13 N1          1.3492   -5.3102   -4.6708 N.1       1 <0>         0.0000
     14 N2          4.2078   -2.0860   -2.5542 N.2       1 <0>         0.0000
     15 N3          3.6668   -2.7334   -1.4615 N.pl3     1 <0>         0.0000
     16 N4          2.1610   -4.5188   -0.8913 N.pl3     1 <0>         0.0000
     17 F1         -0.3680    0.0958    2.5648 F         1 <0>         0.0000
     18 Br1        -0.3075    0.9412   -0.3758 Br        1 <0>         0.0000
     19 H1          3.2409   -2.6019    2.5058 H         1 <0>         0.0000
     20 H2          1.3168   -1.5112    3.6767 H         1 <0>         0.0000
     21 H3          2.1204   -0.6134   -1.1459 H         1 <0>         0.0000
     22 H4          3.1594   -2.0075   -5.5771 H         1 <0>         0.0000
     23 H5          4.7377   -1.4387   -4.9831 H         1 <0>         0.0000
     24 H6          4.5325   -3.1143   -5.5424 H         1 <0>         0.0000
     25 H7          4.8164   -1.5960   -0.2214 H         1 <0>         0.0000
     26 H8          4.3619   -3.1668    0.4557 H         1 <0>         0.0000
     27 H9          1.7601   -4.0164   -0.1036 H         1 <0>         0.0000
     28 H10         1.4753   -5.1329   -1.3204 H         1 <0>         0.0000
@<TRIPOS>BOND
     1    1    5 1
     2    1   13 3
     3    2    3 ar
     4    2    6 ar
     5    2   19 1
     6    3    7 ar
     7    3   20 1
     8    4    6 ar
     9    4    8 ar
    10    4   21 1
    11    5    9 1
    12    5   10 2
    13    6   12 1
    14    7    8 ar
    15    7   17 1
    16    8   18 1
    17    9   11 1
    18    9   14 2
    19   10   15 1
    20   10   16 1
    21   11   22 1
    22   11   23 1
    23   11   24 1
    24   12   15 1
    25   12   25 1
    26   12   26 1
    27   14   15 1
    28   16   27 1
    29   16   28 1
