@<TRIPOS>MOLECULE
*****
   34    36     0     0     0
SMALL
NO_CHARGES

@<TRIPOS>ATOM
      1 C1         -0.8526    1.3291    0.0712 C.ar      1 <0>         0.0000
      2 C2         -0.3640    0.1865   -0.5765 C.ar      1 <0>         0.0000
      3 C3         -8.2152    1.0628    3.4104 C.ar      1 <0>         0.0000
      4 C4         -7.2202    0.9656    2.4345 C.ar      1 <0>         0.0000
      5 C5         -7.8719    1.1219    4.7632 C.ar      1 <0>         0.0000
      6 C6         -1.9815    1.2337    0.8778 C.ar      1 <0>         0.0000
      7 C7         -1.0142   -1.0322   -0.4123 C.ar      1 <0>         0.0000
      8 C8         -5.5417    0.9620    4.1830 C.ar      1 <0>         0.0000
      9 C9         -5.8780    0.8964    2.8221 C.ar      1 <0>         0.0000
     10 C10        -6.5275    1.0861    5.1684 C.ar      1 <0>         0.0000
     11 C11        -2.6519    0.0119    1.0429 C.ar      1 <0>         0.0000
     12 C12        -2.1659   -1.1349    0.3884 C.ar      1 <0>         0.0000
     13 C13        -4.8225    0.8625    1.7536 C.2       1 <0>         0.0000
     14 C14        -3.9808   -1.3280    2.6105 C.3       1 <0>         0.0000
     15 C15        -4.3017   -2.4417    1.6164 C.3       1 <0>         0.0000
     16 C16        -6.1611    1.1958    6.6308 C.3       1 <0>         0.0000
     17 N1         -3.7807   -0.0515    1.9188 N.am      1 <0>         0.0000
     18 O1         -4.8701    1.6488    0.8127 O.2       1 <0>         0.0000
     19 S1         -2.8950   -2.7555    0.4931 S.3       1 <0>         0.0000
     20 H1         -0.3535    2.2865   -0.0481 H         1 <0>         0.0000
     21 H2          0.5204    0.2447   -1.2052 H         1 <0>         0.0000
     22 H3         -9.2607    1.1007    3.1154 H         1 <0>         0.0000
     23 H4         -7.4711    0.9512    1.3780 H         1 <0>         0.0000
     24 H5         -8.6545    1.2056    5.5147 H         1 <0>         0.0000
     25 H6         -2.3691    2.1116    1.3828 H         1 <0>         0.0000
     26 H7         -0.6372   -1.9206   -0.9135 H         1 <0>         0.0000
     27 H8         -4.4937    0.9339    4.4739 H         1 <0>         0.0000
     28 H9         -4.8071   -1.2298    3.3112 H         1 <0>         0.0000
     29 H10        -3.0772   -1.5717    3.1779 H         1 <0>         0.0000
     30 H11        -4.4880   -3.3830    2.1410 H         1 <0>         0.0000
     31 H12        -5.1923   -2.1802    1.0388 H         1 <0>         0.0000
     32 H13        -6.7386    0.4916    7.2390 H         1 <0>         0.0000
     33 H14        -5.0994    0.9918    6.7945 H         1 <0>         0.0000
     34 H15        -6.3692    2.2020    7.0127 H         1 <0>         0.0000
@<TRIPOS>BOND
     1    1    2 ar
     2    1    6 ar
     3    1   20 1
     4    2    7 ar
     5    2   21 1
     6    3    4 ar
     7    3    5 ar
     8    3   22 1
     9    4    9 ar
    10    4   23 1
    11    5   10 ar
    12    5   24 1
    13    6   11 ar
    14    6   25 1
    15    7   12 ar
    16    7   26 1
    17    8    9 ar
    18    8   10 ar
    19    8   27 1
    20    9   13 1
    21   10   16 1
    22   11   12 ar
    23   11   17 1
    24   12   19 1
    25   13   17 am
    26   13   18 2
    27   14   15 1
    28   14   17 1
    29   14   28 1
    30   14   29 1
    31   15   19 1
    32   15   30 1
    33   15   31 1
    34   16   32 1
    35   16   33 1
    36   16   34 1
