@<TRIPOS>MOLECULE
*****
   34    36     0     0     0
SMALL
NO_CHARGES

@<TRIPOS>ATOM
      1 C1         -2.1123   -3.6329  -13.0123 C.1       1 <0>         0.0000
      2 C2          2.6717    1.0942   -3.1736 C.ar      1 <0>         0.0000
      3 C3          2.8692    2.1829   -4.0403 C.ar      1 <0>         0.0000
      4 C4          2.0937   -0.0916   -3.6282 C.ar      1 <0>         0.0000
      5 C5          2.4897    2.1035   -5.3838 C.ar      1 <0>         0.0000
      6 C6         -1.8471   -3.8557  -10.4971 C.2       1 <0>         0.0000
      7 C7         -1.3925   -3.6498  -11.7921 C.2       1 <0>         0.0000
      8 C8         -0.7238   -3.7446   -9.6321 C.2       1 <0>         0.0000
      9 C9          1.7061   -0.1922   -4.9719 C.ar      1 <0>         0.0000
     10 C10         1.9121    0.9158   -5.8330 C.ar      1 <0>         0.0000
     11 C11         0.3992   -3.4928  -10.4369 C.2       1 <0>         0.0000
     12 C12         0.8792   -1.0942   -6.8062 C.2       1 <0>         0.0000
     13 C13        -0.7373   -3.9262   -8.1709 C.2       1 <0>         0.0000
     14 C14         1.8435   -3.3904  -10.0594 C.3       1 <0>         0.0000
     15 C15         0.8503   -3.2470  -12.8973 C.3       1 <0>         0.0000
     16 N1         -2.6902   -3.6178  -14.0272 N.1       1 <0>         0.0000
     17 N2          1.1256   -1.3125   -5.5563 N.2       1 <0>         0.0000
     18 N3         -0.2299   -3.1499   -7.2726 N.2       1 <0>         0.0000
     19 N4         -0.0192   -3.4254  -11.7406 N.pl3     1 <0>         0.0000
     20 N5          0.3471   -1.9903   -7.7049 N.pl3     1 <0>         0.0000
     21 S1          1.3323    0.5152   -7.4473 S.3       1 <0>         0.0000
     22 H1          2.9736    1.1778   -2.1331 H         1 <0>         0.0000
     23 H2          3.3201    3.0977   -3.6661 H         1 <0>         0.0000
     24 H3          1.9364   -0.9383   -2.9666 H         1 <0>         0.0000
     25 H4          2.6413    2.9458   -6.0528 H         1 <0>         0.0000
     26 H5         -2.8748   -4.0392  -10.2131 H         1 <0>         0.0000
     27 H6         -1.2422   -4.8022   -7.7678 H         1 <0>         0.0000
     28 H7          2.4635   -4.0469  -10.6793 H         1 <0>         0.0000
     29 H8          2.2305   -2.3698  -10.1695 H         1 <0>         0.0000
     30 H9          1.9765   -3.6826   -9.0173 H         1 <0>         0.0000
     31 H10         1.5354   -2.4139  -12.7260 H         1 <0>         0.0000
     32 H11         1.4298   -4.1549  -13.0921 H         1 <0>         0.0000
     33 H12         0.2396   -3.0255  -13.7726 H         1 <0>         0.0000
     34 H13         0.1297   -1.6572   -8.6429 H         1 <0>         0.0000
@<TRIPOS>BOND
     1    1    7 1
     2    1   16 3
     3    2    3 ar
     4    2    4 ar
     5    2   22 1
     6    3    5 ar
     7    3   23 1
     8    4    9 ar
     9    4   24 1
    10    5   10 ar
    11    5   25 1
    12    6    7 2
    13    6    8 1
    14    6   26 1
    15    7   19 1
    16    8   11 2
    17    8   13 1
    18    9   10 ar
    19    9   17 1
    20   10   21 1
    21   11   14 1
    22   11   19 1
    23   12   17 2
    24   12   20 1
    25   12   21 1
    26   13   18 2
    27   13   27 1
    28   14   28 1
    29   14   29 1
    30   14   30 1
    31   15   19 1
    32   15   31 1
    33   15   32 1
    34   15   33 1
    35   18   20 1
    36   20   34 1
