@<TRIPOS>MOLECULE
*****
   20    21     0     0     0
SMALL
NO_CHARGES

@<TRIPOS>ATOM
      1 C1         -2.1211    3.2187    1.4050 C.ar      1 <0>         0.0000
      2 C2         -0.7655    1.2144    1.1466 C.ar      1 <0>         0.0000
      3 C3         -1.8198    2.0416    0.7190 C.ar      1 <0>         0.0000
      4 C4          0.0045    1.7267    2.2080 C.ar      1 <0>         0.0000
      5 C5         -0.3768    2.9244    2.8405 C.ar      1 <0>         0.0000
      6 C6         -0.1034   -1.3529    1.4041 C.3       1 <0>         0.0000
      7 C7         -0.9946   -2.1673    0.4429 C.3       1 <0>         0.0000
      8 C8         -0.4396   -0.1230    0.5031 C.3       1 <0>         0.0000
      9 N1         -1.4224    3.6366    2.4611 N.ar      1 <0>         0.0000
     10 N2         -1.5936   -0.8934   -0.0273 N.3       1 <0>         0.0000
     11 Cl1        -2.7567    1.7266   -0.7278 Cl        1 <0>         0.0000
     12 Cl2         1.4704    0.9174    2.7083 Cl        1 <0>         0.0000
     13 Cl3         0.5337    3.5529    4.1958 Cl        1 <0>         0.0000
     14 H1         -2.9502    3.8432    1.0820 H         1 <0>         0.0000
     15 H2         -0.5346   -1.2629    2.4024 H         1 <0>         0.0000
     16 H3          0.9451   -1.6355    1.4797 H         1 <0>         0.0000
     17 H4         -0.4029   -2.6937   -0.3194 H         1 <0>         0.0000
     18 H5         -1.7154   -2.8625    0.8841 H         1 <0>         0.0000
     19 H6          0.3644    0.0369   -0.2334 H         1 <0>         0.0000
     20 H7         -1.7493   -0.8143   -1.0286 H         1 <0>         0.0000
@<TRIPOS>BOND
     1    1    3 ar
     2    1    9 ar
     3    1   14 1
     4    2    3 ar
     5    2    4 ar
     6    2    8 1
     7    3   11 1
     8    4    5 ar
     9    4   12 1
    10    5    9 ar
    11    5   13 1
    12    6    7 1
    13    6    8 1
    14    6   15 1
    15    6   16 1
    16    7   10 1
    17    7   17 1
    18    7   18 1
    19    8   10 1
    20    8   19 1
    21   10   20 1
