@<TRIPOS>MOLECULE
*****
   29    31     0     0     0
SMALL
NO_CHARGES

@<TRIPOS>ATOM
      1 C1         -4.1285   -3.0281   -8.3268 C.ar      1 <0>         0.0000
      2 C2          3.4163    1.5403   -4.5843 C.ar      1 <0>         0.0000
      3 C3          3.8635    0.4663   -3.7933 C.ar      1 <0>         0.0000
      4 C4         -4.2988   -3.7103   -9.5357 C.ar      1 <0>         0.0000
      5 C5         -3.0324   -3.3174   -7.5148 C.ar      1 <0>         0.0000
      6 C6          2.3772    1.3914   -5.5117 C.ar      1 <0>         0.0000
      7 C7          3.2851   -0.8088   -3.8990 C.ar      1 <0>         0.0000
      8 C8         -3.3766   -4.6851   -9.9248 C.ar      1 <0>         0.0000
      9 C9         -2.0804   -4.2886   -7.8860 C.ar      1 <0>         0.0000
     10 C10         1.7925    0.1271   -5.6251 C.ar      1 <0>         0.0000
     11 C11         2.2596   -0.9262   -4.8212 C.ar      1 <0>         0.0000
     12 C12        -2.2856   -4.9653   -9.1012 C.ar      1 <0>         0.0000
     13 C13         0.6582   -1.6044   -6.1023 C.2       1 <0>         0.0000
     14 C14        -0.9497   -4.6236   -6.9883 C.2       1 <0>         0.0000
     15 N1          0.7584   -0.3508   -6.4423 N.2       1 <0>         0.0000
     16 N2         -0.1444   -3.8166   -6.3876 N.2       1 <0>         0.0000
     17 N3         -0.2684   -2.4782   -6.6064 N.pl3     1 <0>         0.0000
     18 O1          1.5111   -2.0556   -5.1371 O.3       1 <0>         0.0000
     19 Br1        -1.0358   -6.3022   -9.6808 Br        1 <0>         0.0000
     20 H1         -4.8500   -2.2789   -8.0138 H         1 <0>         0.0000
     21 H2          3.8919    2.5109   -4.4718 H         1 <0>         0.0000
     22 H3          4.6726    0.6239   -3.0859 H         1 <0>         0.0000
     23 H4         -5.1480   -3.4904  -10.1766 H         1 <0>         0.0000
     24 H5         -2.9181   -2.8085   -6.5617 H         1 <0>         0.0000
     25 H6          2.0353    2.2216   -6.1224 H         1 <0>         0.0000
     26 H7          3.6197   -1.6475   -3.2967 H         1 <0>         0.0000
     27 H8         -3.5006   -5.2211  -10.8601 H         1 <0>         0.0000
     28 H9         -0.7523   -5.6749   -6.7945 H         1 <0>         0.0000
     29 H10        -0.8136   -2.1141   -7.3868 H         1 <0>         0.0000
@<TRIPOS>BOND
     1    1    4 ar
     2    1    5 ar
     3    1   20 1
     4    2    3 ar
     5    2    6 ar
     6    2   21 1
     7    3    7 ar
     8    3   22 1
     9    4    8 ar
    10    4   23 1
    11    5    9 ar
    12    5   24 1
    13    6   10 ar
    14    6   25 1
    15    7   11 ar
    16    7   26 1
    17    8   12 ar
    18    8   27 1
    19    9   12 ar
    20    9   14 1
    21   10   11 ar
    22   10   15 1
    23   11   18 1
    24   12   19 1
    25   13   15 2
    26   13   17 1
    27   13   18 1
    28   14   16 2
    29   14   28 1
    30   16   17 1
    31   17   29 1
