@<TRIPOS>MOLECULE
*****
   36    39     0     0     0
SMALL
NO_CHARGES

@<TRIPOS>ATOM
      1 C1          1.8336   -8.2232    0.2905 C.2       1 <0>         0.0000
      2 C2          2.3788   -6.3438    1.0387 C.2       1 <0>         0.0000
      3 C3          2.2882   -3.1301    0.7371 C.2       1 <0>         0.0000
      4 C4          1.6979   -3.7008    2.9024 C.2       1 <0>         0.0000
      5 C5         -0.0108   -1.2262   -0.6972 C.3       1 <0>         0.0000
      6 C6          0.5652   -0.0268    0.0734 C.3       1 <0>         0.0000
      7 C7          2.9639  -10.2967   -0.7180 C.3       1 <0>         0.0000
      8 C8          2.4590  -10.6892    0.6373 C.3       1 <0>         0.0000
      9 C9         -0.0714   -2.3216    0.3733 C.3       1 <0>         0.0000
     10 C10         1.6686   -0.6516    0.9514 C.3       1 <0>         0.0000
     11 C11         1.7214   -9.6131   -0.1552 C.3       1 <0>         0.0000
     12 C12         1.2319   -2.1250    1.2064 C.3       1 <0>         0.0000
     13 C13         3.2184   -5.2600    1.6544 C.3       1 <0>         0.0000
     14 N1          2.8604   -7.6171    0.8324 N.2       1 <0>         0.0000
     15 N2          1.1401   -6.1506    0.6566 N.2       1 <0>         0.0000
     16 N3          1.0900   -2.5023    2.6139 N.am      1 <0>         0.0000
     17 N4          2.4925   -4.0162    1.7765 N.am      1 <0>         0.0000
     18 O1          2.8358   -3.1615   -0.3515 O.2       1 <0>         0.0000
     19 O2          1.6210   -4.3714    3.9170 O.2       1 <0>         0.0000
     20 O3          0.7627   -7.4170    0.1490 O.3       1 <0>         0.0000
     21 H1         -0.9881   -1.0243   -1.1460 H         1 <0>         0.0000
     22 H2          0.6752   -1.5262   -1.4961 H         1 <0>         0.0000
     23 H3          0.9494    0.7617   -0.5799 H         1 <0>         0.0000
     24 H4         -0.2163    0.4189    0.7013 H         1 <0>         0.0000
     25 H5          3.8626   -9.6910   -0.7668 H         1 <0>         0.0000
     26 H6          2.8075  -10.9738   -1.5519 H         1 <0>         0.0000
     27 H7          1.9488  -11.6404    0.7516 H         1 <0>         0.0000
     28 H8          3.0167  -10.3483    1.5031 H         1 <0>         0.0000
     29 H9         -0.9263   -2.1474    1.0386 H         1 <0>         0.0000
     30 H10        -0.1599   -3.3376   -0.0191 H         1 <0>         0.0000
     31 H11         2.6186   -0.6534    0.4101 H         1 <0>         0.0000
     32 H12         1.8236   -0.1297    1.8985 H         1 <0>         0.0000
     33 H13         0.7599   -9.8691   -0.5863 H         1 <0>         0.0000
     34 H14         3.5406   -5.5760    2.6492 H         1 <0>         0.0000
     35 H15         4.1031   -5.0963    1.0337 H         1 <0>         0.0000
     36 H16         0.2679   -2.2573    3.1512 H         1 <0>         0.0000
@<TRIPOS>BOND
     1    1   11 1
     2    1   14 2
     3    1   20 1
     4    2   13 1
     5    2   14 1
     6    2   15 2
     7    3   12 1
     8    3   17 am
     9    3   18 2
    10    4   16 am
    11    4   17 am
    12    4   19 2
    13    5    6 1
    14    5    9 1
    15    5   21 1
    16    5   22 1
    17    6   10 1
    18    6   23 1
    19    6   24 1
    20    7    8 1
    21    7   11 1
    22    7   25 1
    23    7   26 1
    24    8   11 1
    25    8   27 1
    26    8   28 1
    27    9   12 1
    28    9   29 1
    29    9   30 1
    30   10   12 1
    31   10   31 1
    32   10   32 1
    33   11   33 1
    34   12   16 1
    35   13   17 1
    36   13   34 1
    37   13   35 1
    38   15   20 1
    39   16   36 1
