@<TRIPOS>MOLECULE
*****
   25    26     0     0     0
SMALL
NO_CHARGES

@<TRIPOS>ATOM
      1 C1         -3.6841    0.8847   -2.8837 C.ar      1 <0>         0.0000
      2 C2         -5.0300    0.5802   -3.1270 C.ar      1 <0>         0.0000
      3 C3         -4.5844   -1.7583   -2.6608 C.ar      1 <0>         0.0000
      4 C4         -2.7747   -0.1175   -2.5271 C.ar      1 <0>         0.0000
      5 C5         -3.2586   -1.4344   -2.4248 C.ar      1 <0>         0.0000
      6 C6         -5.4705   -0.7344   -3.0139 C.ar      1 <0>         0.0000
      7 C7          1.8805    3.0280   -1.2058 C.3       1 <0>         0.0000
      8 C8          1.1555    2.3671   -0.0390 C.3       1 <0>         0.0000
      9 C9          0.5421    1.3227   -1.9881 C.3       1 <0>         0.0000
     10 C10        -0.9370    1.3900   -2.3483 C.3       1 <0>         0.0000
     11 O1          1.1168    2.5814   -2.3346 O.3       1 <0>         0.0000
     12 O2          0.7629    1.1093   -0.6007 O.3       1 <0>         0.0000
     13 O3         -1.4516    0.0638   -2.2691 O.3       1 <0>         0.0000
     14 F1         -2.3935   -2.4145   -2.0850 F         1 <0>         0.0000
     15 Cl1        -7.1551   -1.1257   -3.3159 Cl        1 <0>         0.0000
     16 H1         -3.3565    1.9134   -2.9782 H         1 <0>         0.0000
     17 H2         -5.7239    1.3673   -3.4025 H         1 <0>         0.0000
     18 H3         -4.9088   -2.7893   -2.5685 H         1 <0>         0.0000
     19 H4          1.8564    4.1198   -1.1887 H         1 <0>         0.0000
     20 H5          2.9180    2.6790   -1.2849 H         1 <0>         0.0000
     21 H6          1.7877    2.1682    0.8286 H         1 <0>         0.0000
     22 H7          0.2773    2.9498    0.2713 H         1 <0>         0.0000
     23 H8          1.0283    0.5000   -2.5267 H         1 <0>         0.0000
     24 H9         -1.0388    1.7862   -3.3663 H         1 <0>         0.0000
     25 H10        -1.4556    2.0549   -1.6467 H         1 <0>         0.0000
@<TRIPOS>BOND
     1    1    2 ar
     2    1    4 ar
     3    1   16 1
     4    2    6 ar
     5    2   17 1
     6    3    5 ar
     7    3    6 ar
     8    3   18 1
     9    4    5 ar
    10    4   13 1
    11    5   14 1
    12    6   15 1
    13    7    8 1
    14    7   11 1
    15    7   19 1
    16    7   20 1
    17    8   12 1
    18    8   21 1
    19    8   22 1
    20    9   10 1
    21    9   12 1
    22    9   11 1
    23    9   23 1
    24   10   13 1
    25   10   24 1
    26   10   25 1
