@<TRIPOS>MOLECULE
*****
   31    33     0     0     0
SMALL
NO_CHARGES

@<TRIPOS>ATOM
      1 C1         -7.8390    3.1647    0.4309 C.1       1 <0>         0.0000
      2 C2         -2.3997   -2.6275    1.4145 C.ar      1 <0>         0.0000
      3 C3         -2.5341   -3.8031    2.1473 C.ar      1 <0>         0.0000
      4 C4         -4.2031   -2.7764    3.6269 C.ar      1 <0>         0.0000
      5 C5         -4.1663    0.4941    1.9776 C.2       1 <0>         0.0000
      6 C6         -8.2400    3.3420    1.7772 C.2       1 <0>         0.0000
      7 C7         -4.0716   -1.5805    2.8985 C.ar      1 <0>         0.0000
      8 C8         -4.7057   -0.2794    3.0028 C.2       1 <0>         0.0000
      9 C9         -3.1718   -1.5273    1.8024 C.ar      1 <0>         0.0000
     10 C10        -3.4287   -3.8605    3.2361 C.ar      1 <0>         0.0000
     11 C11        -7.7004    2.6844    2.8638 C.2       1 <0>         0.0000
     12 C12        -9.2479    4.0700    3.5215 C.2       1 <0>         0.0000
     13 C13        -5.6513    0.0825    4.0485 C.2       1 <0>         0.0000
     14 C14       -10.0974    4.7248    4.5493 C.3       1 <0>         0.0000
     15 N1         -7.4336    2.9537   -0.6447 N.1       1 <0>         0.0000
     16 N2         -9.2287    4.2240    2.2397 N.2       1 <0>         0.0000
     17 N3         -6.5505    1.0116    4.0788 N.2       1 <0>         0.0000
     18 N4         -3.2499   -0.2491    1.2717 N.pl3     1 <0>         0.0000
     19 N5         -6.6640    1.7956    2.9506 N.pl3     1 <0>         0.0000
     20 O1         -8.3197    3.1290    3.9788 O.3       1 <0>         0.0000
     21 Br1        -3.5823   -5.5129    4.2014 Br        1 <0>         0.0000
     22 H1         -1.7159   -2.5783    0.5715 H         1 <0>         0.0000
     23 H2         -1.9537   -4.6800    1.8816 H         1 <0>         0.0000
     24 H3         -4.8908   -2.8603    4.4618 H         1 <0>         0.0000
     25 H4         -4.3112    1.5385    1.7383 H         1 <0>         0.0000
     26 H5         -5.6292   -0.5219    4.9532 H         1 <0>         0.0000
     27 H6        -10.6891    3.9836    5.0962 H         1 <0>         0.0000
     28 H7         -9.4841    5.2670    5.2763 H         1 <0>         0.0000
     29 H8        -10.7694    5.4252    4.0526 H         1 <0>         0.0000
     30 H9         -2.7343    0.0862    0.4694 H         1 <0>         0.0000
     31 H10        -6.3950    1.3864    2.0533 H         1 <0>         0.0000
@<TRIPOS>BOND
     1    1    6 1
     2    1   15 3
     3    2    3 ar
     4    2    9 ar
     5    2   22 1
     6    3   10 ar
     7    3   23 1
     8    4    7 ar
     9    4   10 ar
    10    4   24 1
    11    5    8 2
    12    5   18 1
    13    5   25 1
    14    6   11 2
    15    6   16 1
    16    7    8 1
    17    7    9 ar
    18    8   13 1
    19    9   18 1
    20   10   21 1
    21   11   19 1
    22   11   20 1
    23   12   14 1
    24   12   16 2
    25   12   20 1
    26   13   17 2
    27   13   26 1
    28   14   27 1
    29   14   28 1
    30   14   29 1
    31   17   19 1
    32   18   30 1
    33   19   31 1
