@<TRIPOS>MOLECULE
*****
   26    26     0     0     0
SMALL
NO_CHARGES

@<TRIPOS>ATOM
      1 C1          5.7941    1.9396    0.6738 C.ar      1 <0>         0.0000
      2 C2          6.7070    2.8250    1.2475 C.ar      1 <0>         0.0000
      3 C3          4.8826    3.9663    2.3578 C.ar      1 <0>         0.0000
      4 C4          4.4227    2.0479    0.9237 C.ar      1 <0>         0.0000
      5 C5          6.2543    3.8472    2.0938 C.ar      1 <0>         0.0000
      6 C6          3.9827    3.0747    1.7749 C.ar      1 <0>         0.0000
      7 C7          2.5512   -0.8569   -1.5130 C.3       1 <0>         0.0000
      8 C8          0.7605    0.4349   -0.2548 C.3       1 <0>         0.0000
      9 C9          2.9435    1.5564   -0.8614 C.3       1 <0>         0.0000
     10 C10         1.9063    0.5158   -1.2737 C.3       1 <0>         0.0000
     11 O1          3.5500    1.1398    0.3835 O.3       1 <0>         0.0000
     12 S1          7.3418    5.0306    2.8680 S.3       1 <0>         0.0000
     13 Cl1         2.2744    3.2298    2.1313 Cl        1 <0>         0.0000
     14 H1          6.1348    1.1373    0.0252 H         1 <0>         0.0000
     15 H2          7.7664    2.7123    1.0342 H         1 <0>         0.0000
     16 H3          4.5087    4.7420    3.0195 H         1 <0>         0.0000
     17 H4          2.9869   -1.2464   -0.5881 H         1 <0>         0.0000
     18 H5          3.3478   -0.7983   -2.2638 H         1 <0>         0.0000
     19 H6          1.8071   -1.5777   -1.8679 H         1 <0>         0.0000
     20 H7          1.1321    0.1049    0.7195 H         1 <0>         0.0000
     21 H8         -0.0044   -0.2744   -0.5886 H         1 <0>         0.0000
     22 H9          0.2819    1.4104   -0.1163 H         1 <0>         0.0000
     23 H10         3.7307    1.6498   -1.6226 H         1 <0>         0.0000
     24 H11         2.4740    2.5383   -0.7247 H         1 <0>         0.0000
     25 H12         1.4968    0.8760   -2.2281 H         1 <0>         0.0000
     26 H13         8.4974    4.4938    2.4288 H         1 <0>         0.0000
@<TRIPOS>BOND
     1    1    2 ar
     2    1    4 ar
     3    1   14 1
     4    2    5 ar
     5    2   15 1
     6    3    5 ar
     7    3    6 ar
     8    3   16 1
     9    4    6 ar
    10    4   11 1
    11    5   12 1
    12    6   13 1
    13    7   10 1
    14    7   17 1
    15    7   18 1
    16    7   19 1
    17    8   10 1
    18    8   20 1
    19    8   21 1
    20    8   22 1
    21    9   10 1
    22    9   11 1
    23    9   23 1
    24    9   24 1
    25   10   25 1
    26   12   26 1
