@<TRIPOS>MOLECULE
*****
   31    33     0     0     0
SMALL
NO_CHARGES

@<TRIPOS>ATOM
      1 C1         -6.3366    3.3683    0.0883 C.1       1 <0>         0.0000
      2 C2         -2.0783   -1.2819    1.0006 C.ar      1 <0>         0.0000
      3 C3         -1.4454   -0.2909    0.2563 C.ar      1 <0>         0.0000
      4 C4         -2.2663    1.4664    1.7624 C.ar      1 <0>         0.0000
      5 C5         -4.0396   -0.8162    4.0148 C.2       1 <0>         0.0000
      6 C6         -6.0851    4.3130    1.1135 C.2       1 <0>         0.0000
      7 C7         -2.9357    0.4765    2.5099 C.ar      1 <0>         0.0000
      8 C8         -3.7416    0.5037    3.7179 C.2       1 <0>         0.0000
      9 C9         -2.8108   -0.8865    2.1246 C.ar      1 <0>         0.0000
     10 C10        -1.5415    1.0595    0.6509 C.ar      1 <0>         0.0000
     11 C11        -5.4296    4.0654    2.3017 C.2       1 <0>         0.0000
     12 C12        -6.0687    6.1479    2.2204 C.2       1 <0>         0.0000
     13 C13        -4.1613    1.6516    4.5264 C.2       1 <0>         0.0000
     14 C14        -6.2172    7.5178    2.7758 C.3       1 <0>         0.0000
     15 N1         -6.5116    2.5336   -0.7100 N.1       1 <0>         0.0000
     16 N2         -6.4744    5.6616    1.0954 N.2       1 <0>         0.0000
     17 N3         -4.6229    2.7888    4.1228 N.2       1 <0>         0.0000
     18 N4         -3.4941   -1.6451    3.0627 N.pl3     1 <0>         0.0000
     19 N5         -4.7891    2.9538    2.7693 N.pl3     1 <0>         0.0000
     20 O1         -5.4058    5.2129    3.0191 O.3       1 <0>         0.0000
     21 Br1        -0.6207    2.3801   -0.3935 Br        1 <0>         0.0000
     22 H1         -1.9959   -2.3261    0.7111 H         1 <0>         0.0000
     23 H2         -0.8709   -0.5544   -0.6250 H         1 <0>         0.0000
     24 H3         -2.3100    2.5113    2.0469 H         1 <0>         0.0000
     25 H4         -4.6205   -1.2178    4.8349 H         1 <0>         0.0000
     26 H5         -4.1081    1.5629    5.6100 H         1 <0>         0.0000
     27 H6         -6.7869    7.4999    3.7107 H         1 <0>         0.0000
     28 H7         -5.2398    7.9635    2.9869 H         1 <0>         0.0000
     29 H8         -6.7436    8.1348    2.0469 H         1 <0>         0.0000
     30 H9         -3.6014   -2.6496    3.0368 H         1 <0>         0.0000
     31 H10        -4.8428    2.1323    2.1665 H         1 <0>         0.0000
@<TRIPOS>BOND
     1    1    6 1
     2    1   15 3
     3    2    3 ar
     4    2    9 ar
     5    2   22 1
     6    3   10 ar
     7    3   23 1
     8    4    7 ar
     9    4   10 ar
    10    4   24 1
    11    5    8 2
    12    5   18 1
    13    5   25 1
    14    6   11 2
    15    6   16 1
    16    7    8 1
    17    7    9 ar
    18    8   13 1
    19    9   18 1
    20   10   21 1
    21   11   19 1
    22   11   20 1
    23   12   14 1
    24   12   16 2
    25   12   20 1
    26   13   17 2
    27   13   26 1
    28   14   27 1
    29   14   28 1
    30   14   29 1
    31   17   19 1
    32   18   30 1
    33   19   31 1
