@<TRIPOS>MOLECULE
*****
   40    44     0     0     0
SMALL
NO_CHARGES

@<TRIPOS>ATOM
      1 C1          1.1207   -0.4588   -0.2130 C.ar      1 <0>         0.0000
      2 C2         -0.2845   -0.4436   -0.0759 C.ar      1 <0>         0.0000
      3 C3          1.8758   -1.5401    0.2363 C.ar      1 <0>         0.0000
      4 C4         -0.9644   -1.5088    0.5156 C.ar      1 <0>         0.0000
      5 C5          5.2737   -4.5300    5.3054 C.2       1 <0>         0.0000
      6 C6          1.2171   -2.6294    0.8349 C.ar      1 <0>         0.0000
      7 C7          1.6520   -3.8785    1.4049 C.2       1 <0>         0.0000
      8 C8         -0.2034   -2.5920    0.9665 C.ar      1 <0>         0.0000
      9 C9          4.8132   -4.7938    3.9824 C.2       1 <0>         0.0000
     10 C10         0.5331   -4.5433    1.8447 C.2       1 <0>         0.0000
     11 C11         6.3894   -3.7625    5.1238 C.2       1 <0>         0.0000
     12 C12         3.6466   -5.6892    3.6744 C.2       1 <0>         0.0000
     13 C13         3.0428   -4.4287    1.5658 C.3       1 <0>         0.0000
     14 C14         0.5428   -5.8898    2.4953 C.3       1 <0>         0.0000
     15 C15         8.8189   -3.0453    5.6806 C.3       1 <0>         0.0000
     16 C16         7.9772   -1.7999    5.7227 C.3       1 <0>         0.0000
     17 C17         1.9129   -6.5313    2.2093 C.3       1 <0>         0.0000
     18 C18         7.3446   -3.1467    6.0524 C.3       1 <0>         0.0000
     19 N1          5.5910   -4.2411    3.0700 N.2       1 <0>         0.0000
     20 N2         -0.5919   -3.7707    1.5886 N.pl3     1 <0>         0.0000
     21 N3          3.0048   -5.5873    2.4732 N.am      1 <0>         0.0000
     22 O1          3.3366   -6.5272    4.5294 O.2       1 <0>         0.0000
     23 O2          6.5948   -3.5817    3.7914 O.3       1 <0>         0.0000
     24 H1          1.6176    0.3889   -0.6774 H         1 <0>         0.0000
     25 H2         -0.8471    0.4135   -0.4361 H         1 <0>         0.0000
     26 H3          2.9575   -1.5405    0.1252 H         1 <0>         0.0000
     27 H4         -2.0466   -1.4918    0.6212 H         1 <0>         0.0000
     28 H5          4.8354   -4.8843    6.2262 H         1 <0>         0.0000
     29 H6          3.4633   -4.7442    0.6009 H         1 <0>         0.0000
     30 H7          3.7184   -3.6759    1.9651 H         1 <0>         0.0000
     31 H8          0.3915   -5.8110    3.5791 H         1 <0>         0.0000
     32 H9         -0.2514   -6.5355    2.0998 H         1 <0>         0.0000
     33 H10         9.1047   -3.4302    4.7072 H         1 <0>         0.0000
     34 H11         9.5385   -3.2157    6.4755 H         1 <0>         0.0000
     35 H12         8.1128   -1.1060    6.5466 H         1 <0>         0.0000
     36 H13         7.6970   -1.3467    4.7774 H         1 <0>         0.0000
     37 H14         2.0677   -7.4154    2.8249 H         1 <0>         0.0000
     38 H15         1.9707   -6.8140    1.1523 H         1 <0>         0.0000
     39 H16         7.1129   -3.3388    7.0949 H         1 <0>         0.0000
     40 H17        -1.5426   -4.0360    1.8022 H         1 <0>         0.0000
@<TRIPOS>BOND
     1    1    2 ar
     2    1    3 ar
     3    1   24 1
     4    2    4 ar
     5    2   25 1
     6    3    6 ar
     7    3   26 1
     8    4    8 ar
     9    4   27 1
    10    5    9 1
    11    5   11 2
    12    5   28 1
    13    6    7 1
    14    6    8 ar
    15    7   10 2
    16    7   13 1
    17    8   20 1
    18    9   12 1
    19    9   19 2
    20   10   14 1
    21   10   20 1
    22   11   18 1
    23   11   23 1
    24   12   21 am
    25   12   22 2
    26   13   21 1
    27   13   29 1
    28   13   30 1
    29   14   17 1
    30   14   31 1
    31   14   32 1
    32   15   16 1
    33   15   18 1
    34   15   33 1
    35   15   34 1
    36   16   18 1
    37   16   35 1
    38   16   36 1
    39   17   21 1
    40   17   37 1
    41   17   38 1
    42   18   39 1
    43   19   23 1
    44   20   40 1
