@<TRIPOS>MOLECULE
*****
   29    31     0     0     0
SMALL
NO_CHARGES

@<TRIPOS>ATOM
      1 C1          4.4341   -4.2118   -7.8689 C.ar      1 <0>         0.0000
      2 C2          2.8978    1.2377   -4.8174 C.ar      1 <0>         0.0000
      3 C3          2.2114    1.9175   -5.8395 C.ar      1 <0>         0.0000
      4 C4          5.3535   -4.3388   -6.8220 C.ar      1 <0>         0.0000
      5 C5          3.0814   -4.4521   -7.6386 C.ar      1 <0>         0.0000
      6 C6          2.7936   -0.1503   -4.6566 C.ar      1 <0>         0.0000
      7 C7          1.3872    1.2331   -6.7477 C.ar      1 <0>         0.0000
      8 C8          4.9177   -4.7144   -5.5491 C.ar      1 <0>         0.0000
      9 C9          2.6176   -4.8262   -6.3648 C.ar      1 <0>         0.0000
     10 C10         1.9771   -0.8411   -5.5540 C.ar      1 <0>         0.0000
     11 C11         1.3035   -0.1367   -6.5654 C.ar      1 <0>         0.0000
     12 C12         3.5616   -4.9601   -5.3365 C.ar      1 <0>         0.0000
     13 C13         0.8655   -2.2633   -6.6788 C.2       1 <0>         0.0000
     14 C14         1.1914   -5.1580   -6.1587 C.2       1 <0>         0.0000
     15 N1          1.6666   -2.2051   -5.6612 N.2       1 <0>         0.0000
     16 N2          0.1278   -4.5768   -6.5902 N.2       1 <0>         0.0000
     17 N3          0.2594   -3.3533   -7.2665 N.pl3     1 <0>         0.0000
     18 O1          0.5768   -1.0652   -7.3032 O.3       1 <0>         0.0000
     19 Br1         2.9945   -5.4247   -3.5645 Br        1 <0>         0.0000
     20 H1          4.7713   -3.9246   -8.8609 H         1 <0>         0.0000
     21 H2          3.5246    1.8055   -4.1353 H         1 <0>         0.0000
     22 H3          2.3191    2.9945   -5.9305 H         1 <0>         0.0000
     23 H4          6.4094   -4.1463   -6.9911 H         1 <0>         0.0000
     24 H5          2.3637   -4.3503   -8.4462 H         1 <0>         0.0000
     25 H6          3.3223   -0.6760   -3.8673 H         1 <0>         0.0000
     26 H7          0.8521    1.7463   -7.5405 H         1 <0>         0.0000
     27 H8          5.6217   -4.8106   -4.7290 H         1 <0>         0.0000
     28 H9          0.9792   -6.0703   -5.6030 H         1 <0>         0.0000
     29 H10        -0.6248   -3.1075   -7.6994 H         1 <0>         0.0000
@<TRIPOS>BOND
     1    1    4 ar
     2    1    5 ar
     3    1   20 1
     4    2    3 ar
     5    2    6 ar
     6    2   21 1
     7    3    7 ar
     8    3   22 1
     9    4    8 ar
    10    4   23 1
    11    5    9 ar
    12    5   24 1
    13    6   10 ar
    14    6   25 1
    15    7   11 ar
    16    7   26 1
    17    8   12 ar
    18    8   27 1
    19    9   12 ar
    20    9   14 1
    21   10   11 ar
    22   10   15 1
    23   11   18 1
    24   12   19 1
    25   13   15 2
    26   13   17 1
    27   13   18 1
    28   14   16 2
    29   14   28 1
    30   16   17 1
    31   17   29 1
