@<TRIPOS>MOLECULE
*****
   31    33     0     0     0
SMALL
NO_CHARGES

@<TRIPOS>ATOM
      1 C1         -0.0322   -1.2507    1.3381 C.ar      1 <0>         0.0000
      2 C2         -0.1483   -1.0301   -0.0405 C.ar      1 <0>         0.0000
      3 C3         -3.2650   -4.3601    2.5324 C.ar      1 <0>         0.0000
      4 C4         -2.0095   -4.6988    2.0243 C.ar      1 <0>         0.0000
      5 C5          0.3443   -2.5075    1.8054 C.ar      1 <0>         0.0000
      6 C6         -3.5083   -4.3925    3.9092 C.ar      1 <0>         0.0000
      7 C7          0.1177   -2.0629   -0.9379 C.ar      1 <0>         0.0000
      8 C8         -1.2243   -5.1633    4.2748 C.ar      1 <0>         0.0000
      9 C9         -0.9848   -5.0926    2.8967 C.ar      1 <0>         0.0000
     10 C10         0.5628   -3.5650    0.9119 C.ar      1 <0>         0.0000
     11 C11        -2.4756   -4.7953    4.7513 C.ar      1 <0>         0.0000
     12 C12         0.4678   -3.3421   -0.4747 C.ar      1 <0>         0.0000
     13 C13         0.3532   -5.5605    2.3994 C.2       1 <0>         0.0000
     14 C14         2.0328   -5.4863    0.6159 C.3       1 <0>         0.0000
     15 C15         1.4982   -5.9695   -0.7270 C.3       1 <0>         0.0000
     16 N1          0.9545   -4.8490    1.3756 N.am      1 <0>         0.0000
     17 O1          0.8737   -6.5717    2.8713 O.2       1 <0>         0.0000
     18 F1         -2.7040   -4.8387    6.0894 F         1 <0>         0.0000
     19 S1          0.7279   -4.6047   -1.6995 S.3       1 <0>         0.0000
     20 H1         -0.2166   -0.4449    2.0425 H         1 <0>         0.0000
     21 H2         -0.4282   -0.0504   -0.4178 H         1 <0>         0.0000
     22 H3         -4.0600   -4.0632    1.8544 H         1 <0>         0.0000
     23 H4         -1.8329   -4.6607    0.9546 H         1 <0>         0.0000
     24 H5          0.4588   -2.6880    2.8696 H         1 <0>         0.0000
     25 H6         -4.4727   -4.1223    4.3285 H         1 <0>         0.0000
     26 H7          0.0491   -1.8845   -2.0081 H         1 <0>         0.0000
     27 H8         -0.4520   -5.5063    4.9554 H         1 <0>         0.0000
     28 H9          2.4006   -6.3307    1.1993 H         1 <0>         0.0000
     29 H10         2.8437   -4.7652    0.4794 H         1 <0>         0.0000
     30 H11         2.3071   -6.3719   -1.3430 H         1 <0>         0.0000
     31 H12         0.7525   -6.7516   -0.5691 H         1 <0>         0.0000
@<TRIPOS>BOND
     1    1    2 ar
     2    1    5 ar
     3    1   20 1
     4    2    7 ar
     5    2   21 1
     6    3    4 ar
     7    3    6 ar
     8    3   22 1
     9    4    9 ar
    10    4   23 1
    11    5   10 ar
    12    5   24 1
    13    6   11 ar
    14    6   25 1
    15    7   12 ar
    16    7   26 1
    17    8    9 ar
    18    8   11 ar
    19    8   27 1
    20    9   13 1
    21   10   12 ar
    22   10   16 1
    23   11   18 1
    24   12   19 1
    25   13   16 am
    26   13   17 2
    27   14   15 1
    28   14   16 1
    29   14   28 1
    30   14   29 1
    31   15   19 1
    32   15   30 1
    33   15   31 1
