@<TRIPOS>MOLECULE
*****
   25    26     0     0     0
SMALL
NO_CHARGES

@<TRIPOS>ATOM
      1 C1          1.6368   -2.1738    0.4124 C.ar      1 <0>         0.0000
      2 C2          0.5475   -1.6176    1.0743 C.ar      1 <0>         0.0000
      3 C3          2.9279   -1.6560    0.5857 C.ar      1 <0>         0.0000
      4 C4          2.0382    0.0061    2.1093 C.ar      1 <0>         0.0000
      5 C5          0.7497   -0.5171    1.9311 C.ar      1 <0>         0.0000
      6 C6          3.1247   -0.5635    1.4370 C.ar      1 <0>         0.0000
      7 C7         -5.6791   -1.1485    2.6522 C.2       1 <0>         0.0000
      8 C8         -3.8291   -0.0361    3.2021 C.2       1 <0>         0.0000
      9 C9         -0.3628    0.1055    2.6515 C.2       1 <0>         0.0000
     10 C10        -6.3056   -0.1086    3.6191 C.3       1 <0>         0.0000
     11 N1         -4.3017   -1.0143    2.4968 N.2       1 <0>         0.0000
     12 N2         -1.5674   -0.3274    2.5306 N.2       1 <0>         0.0000
     13 N3         -2.5234    0.3306    3.2498 N.pl3     1 <0>         0.0000
     14 O1         -6.3755   -1.9829    2.1067 O.2       1 <0>         0.0000
     15 O2          4.3595   -0.0032    1.6557 O.3       1 <0>         0.0000
     16 S1         -4.9441    0.9438    4.2139 S.3       1 <0>         0.0000
     17 H1          1.4909   -3.0225   -0.2502 H         1 <0>         0.0000
     18 H2         -0.4537   -2.0141    0.9440 H         1 <0>         0.0000
     19 H3          3.7718   -2.1012    0.0613 H         1 <0>         0.0000
     20 H4          2.2165    0.8544    2.7653 H         1 <0>         0.0000
     21 H5         -0.1186    0.9597    3.2998 H         1 <0>         0.0000
     22 H6         -7.0488    0.4861    3.0857 H         1 <0>         0.0000
     23 H7         -6.7861   -0.6254    4.4512 H         1 <0>         0.0000
     24 H8         -2.2617    1.1197    3.8417 H         1 <0>         0.0000
     25 H9          5.0238   -0.4838    1.1369 H         1 <0>         0.0000
@<TRIPOS>BOND
     1    1    2 ar
     2    1    3 ar
     3    1   17 1
     4    2    5 ar
     5    2   18 1
     6    3    6 ar
     7    3   19 1
     8    4    5 ar
     9    4    6 ar
    10    4   20 1
    11    5    9 1
    12    6   15 1
    13    7   10 1
    14    7   11 1
    15    7   14 2
    16    8   11 2
    17    8   13 1
    18    8   16 1
    19    9   12 2
    20    9   21 1
    21   10   16 1
    22   10   22 1
    23   10   23 1
    24   12   13 1
    25   13   24 1
    26   15   25 1
