@<TRIPOS>MOLECULE
*****
   27    28     0     0     0
SMALL
NO_CHARGES

@<TRIPOS>ATOM
      1 C1          1.6467   -9.6495   -0.9828 C.1       1 <0>         0.0000
      2 C2          2.6921   -0.1859    0.6914 C.ar      1 <0>         0.0000
      3 C3          1.9605   -1.9480    2.1766 C.ar      1 <0>         0.0000
      4 C4          1.8452    0.7187    1.3309 C.ar      1 <0>         0.0000
      5 C5          1.1181   -1.0502    2.8333 C.ar      1 <0>         0.0000
      6 C6          1.7848   -8.2696   -0.6483 C.ar      1 <0>         0.0000
      7 C7          2.7528   -1.5339    1.0883 C.ar      1 <0>         0.0000
      8 C8          0.6744   -7.4950   -0.2332 C.ar      1 <0>         0.0000
      9 C9          0.8535   -6.1548    0.0882 C.ar      1 <0>         0.0000
     10 C10         1.0605    0.2758    2.3988 C.ar      1 <0>         0.0000
     11 C11         2.1579   -5.5993   -0.0162 C.ar      1 <0>         0.0000
     12 C12         3.0248   -7.6006   -0.7058 C.ar      1 <0>         0.0000
     13 C13         3.6901   -2.4368    0.3856 C.2       1 <0>         0.0000
     14 N1          1.5297  -10.7766   -1.2552 N.1       1 <0>         0.0000
     15 N2          3.2052   -6.3343   -0.4045 N.ar      1 <0>         0.0000
     16 N3          3.5538   -3.6750    0.0531 N.2       1 <0>         0.0000
     17 N4          2.3613   -4.2846    0.3196 N.pl3     1 <0>         0.0000
     18 Cl1        -0.8844   -8.2343   -0.1359 Cl        1 <0>         0.0000
     19 Cl2        -0.4763   -5.1503    0.6101 Cl        1 <0>         0.0000
     20 Cl3         4.4405   -8.4901   -1.2032 Cl        1 <0>         0.0000
     21 Br1        -0.0945    1.5083    3.2954 Br        1 <0>         0.0000
     22 H1          3.3111    0.1578   -0.1338 H         1 <0>         0.0000
     23 H2          2.0324   -2.9649    2.5507 H         1 <0>         0.0000
     24 H3          1.8002    1.7538    1.0085 H         1 <0>         0.0000
     25 H4          0.5220   -1.3768    3.6792 H         1 <0>         0.0000
     26 H5          4.6408   -2.0072    0.0725 H         1 <0>         0.0000
     27 H6          1.5408   -3.7248    0.5419 H         1 <0>         0.0000
@<TRIPOS>BOND
     1    1    6 1
     2    1   14 3
     3    2    4 ar
     4    2    7 ar
     5    2   22 1
     6    3    5 ar
     7    3    7 ar
     8    3   23 1
     9    4   10 ar
    10    4   24 1
    11    5   10 ar
    12    5   25 1
    13    6    8 ar
    14    6   12 ar
    15    7   13 1
    16    8    9 ar
    17    8   18 1
    18    9   11 ar
    19    9   19 1
    20   10   21 1
    21   11   15 ar
    22   11   17 1
    23   12   15 ar
    24   12   20 1
    25   13   16 2
    26   13   26 1
    27   16   17 1
    28   17   27 1
