@<TRIPOS>MOLECULE
*****
   40    42     0     0     0
SMALL
NO_CHARGES

@<TRIPOS>ATOM
      1 C1         -1.2174    4.0866    3.3533 C.1       1 <0>         0.0000
      2 C2         -4.7818    0.3400    8.1923 C.ar      1 <0>         0.0000
      3 C3         -4.0295    2.5588    8.7282 C.ar      1 <0>         0.0000
      4 C4         -4.2070    0.4462    6.9252 C.ar      1 <0>         0.0000
      5 C5         -3.4479    2.6861    7.4684 C.ar      1 <0>         0.0000
      6 C6         -4.7039    1.3896    9.1184 C.ar      1 <0>         0.0000
      7 C7         -3.5372    1.6217    6.5599 C.ar      1 <0>         0.0000
      8 C8         -1.8444    1.7370    2.6785 C.2       1 <0>         0.0000
      9 C9         -1.6242    0.4412    0.9297 C.2       1 <0>         0.0000
     10 C10        -1.8179    2.8214    3.6587 C.2       1 <0>         0.0000
     11 C11        -1.2663   -0.0481   -0.4342 C.3       1 <0>         0.0000
     12 C12        -1.7908    0.8538   -1.5706 C.3       1 <0>         0.0000
     13 C13        -1.0160    2.1664   -1.7593 C.3       1 <0>         0.0000
     14 C14        -1.0443    3.1459   -0.5765 C.3       1 <0>         0.0000
     15 C15        -0.3961    2.6208    0.7094 C.3       1 <0>         0.0000
     16 C16        -5.2993    1.2616   10.5012 C.3       1 <0>         0.0000
     17 N1         -0.7315    5.1123    3.0801 N.1       1 <0>         0.0000
     18 N2         -2.5066    0.6008    2.9004 N.2       1 <0>         0.0000
     19 N3         -2.3714   -0.2076    1.8009 N.2       1 <0>         0.0000
     20 N4         -2.3545    2.7672    4.8651 N.2       1 <0>         0.0000
     21 N5         -1.2548    1.6695    1.4291 N.pl3     1 <0>         0.0000
     22 N6         -2.9755    1.6873    5.2728 N.pl3     1 <0>         0.0000
     23 H1         -5.3011   -0.5770    8.4610 H         1 <0>         0.0000
     24 H2         -3.9583    3.3907    9.4257 H         1 <0>         0.0000
     25 H3         -4.2802   -0.3778    6.2190 H         1 <0>         0.0000
     26 H4         -2.9320    3.5945    7.1785 H         1 <0>         0.0000
     27 H5         -0.1769   -0.1570   -0.5237 H         1 <0>         0.0000
     28 H6         -1.6951   -1.0495   -0.5181 H         1 <0>         0.0000
     29 H7         -1.7344    0.2850   -2.5054 H         1 <0>         0.0000
     30 H8         -2.8530    1.0642   -1.3968 H         1 <0>         0.0000
     31 H9          0.0313    1.9285   -1.9921 H         1 <0>         0.0000
     32 H10        -1.4136    2.6806   -2.6419 H         1 <0>         0.0000
     33 H11        -0.5025    4.0540   -0.8635 H         1 <0>         0.0000
     34 H12        -2.0721    3.4544   -0.3519 H         1 <0>         0.0000
     35 H13         0.5490    2.1137    0.4850 H         1 <0>         0.0000
     36 H14        -0.1669    3.4447    1.3775 H         1 <0>         0.0000
     37 H15        -4.5338    0.9833   11.2360 H         1 <0>         0.0000
     38 H16        -5.7423    2.2055   10.8343 H         1 <0>         0.0000
     39 H17        -6.0781    0.4941   10.5316 H         1 <0>         0.0000
     40 H18        -3.0613    0.8900    4.6199 H         1 <0>         0.0000
@<TRIPOS>BOND
     1    1   10 1
     2    1   17 3
     3    2    4 ar
     4    2    6 ar
     5    2   23 1
     6    3    5 ar
     7    3    6 ar
     8    3   24 1
     9    4    7 ar
    10    4   25 1
    11    5    7 ar
    12    5   26 1
    13    6   16 1
    14    7   22 1
    15    8   10 1
    16    8   18 2
    17    8   21 1
    18    9   11 1
    19    9   19 2
    20    9   21 1
    21   10   20 2
    22   11   12 1
    23   11   27 1
    24   11   28 1
    25   12   13 1
    26   12   29 1
    27   12   30 1
    28   13   14 1
    29   13   31 1
    30   13   32 1
    31   14   15 1
    32   14   33 1
    33   14   34 1
    34   15   21 1
    35   15   35 1
    36   15   36 1
    37   16   37 1
    38   16   38 1
    39   16   39 1
    40   18   19 1
    41   20   22 1
    42   22   40 1
