@<TRIPOS>MOLECULE
*****
   22    23     0     0     0
SMALL
NO_CHARGES

@<TRIPOS>ATOM
      1 C1         -1.7931   -0.7008    0.8107 C.ar      1 <0>         0.0000
      2 C2         -0.9943    0.3562    0.3814 C.ar      1 <0>         0.0000
      3 C3         -1.8412    1.8086    2.1786 C.ar      1 <0>         0.0000
      4 C4         -4.0680   -0.7210    3.6355 C.2       1 <0>         0.0000
      5 C5         -2.6693    0.7535    2.6144 C.ar      1 <0>         0.0000
      6 C6         -3.6134    0.5876    3.7054 C.2       1 <0>         0.0000
      7 C7         -2.6166   -0.4882    1.9205 C.ar      1 <0>         0.0000
      8 C8         -1.0364    1.5752    1.0773 C.ar      1 <0>         0.0000
      9 C9         -4.0367    1.6126    4.6601 C.2       1 <0>         0.0000
     10 N1         -4.5846    1.4563    5.8242 N.2       1 <0>         0.0000
     11 N2         -3.4848   -1.3571    2.5678 N.pl3     1 <0>         0.0000
     12 N3         -3.7777    2.9481    4.2895 N.pl3     1 <0>         0.0000
     13 O1         -4.6992    0.0858    6.1939 O.3       1 <0>         0.0000
     14 F1         -0.2264    2.5804    0.6373 F         1 <0>         0.0000
     15 H1         -1.7684   -1.6578    0.2962 H         1 <0>         0.0000
     16 H2         -0.3337    0.2560   -0.4737 H         1 <0>         0.0000
     17 H3         -1.8082    2.7616    2.6932 H         1 <0>         0.0000
     18 H4         -4.7715   -1.2285    4.2765 H         1 <0>         0.0000
     19 H5         -3.6439   -2.3218    2.3140 H         1 <0>         0.0000
     20 H6         -4.1800    3.5884    4.9702 H         1 <0>         0.0000
     21 H7         -4.1162    3.1623    3.3549 H         1 <0>         0.0000
     22 H8         -5.0251    0.1588    7.1046 H         1 <0>         0.0000
@<TRIPOS>BOND
     1    1    2 ar
     2    1    7 ar
     3    1   15 1
     4    2    8 ar
     5    2   16 1
     6    3    5 ar
     7    3    8 ar
     8    3   17 1
     9    4    6 2
    10    4   11 1
    11    4   18 1
    12    5    6 1
    13    5    7 ar
    14    6    9 1
    15    7   11 1
    16    8   14 1
    17    9   10 2
    18    9   12 1
    19   10   13 1
    20   11   19 1
    21   12   20 1
    22   12   21 1
    23   13   22 1
