@<TRIPOS>MOLECULE
*****
   26    26     0     0     0
SMALL
NO_CHARGES

@<TRIPOS>ATOM
      1 C1          1.0043    0.2697   -1.1138 C.1       1 <0>         0.0000
      2 C2          0.4279   -5.8329   -1.4823 C.ar      1 <0>         0.0000
      3 C3         -0.4683   -6.4499   -0.6033 C.ar      1 <0>         0.0000
      4 C4         -1.0335   -4.2515    0.3196 C.ar      1 <0>         0.0000
      5 C5         -0.1358   -3.6293   -0.5727 C.ar      1 <0>         0.0000
      6 C6          0.5753   -4.4472   -1.4780 C.ar      1 <0>         0.0000
      7 C7         -1.1670   -5.6395    0.2915 C.ar      1 <0>         0.0000
      8 C8         -0.5419   -1.2670    0.1326 C.2       1 <0>         0.0000
      9 C9          0.3473    0.8310    1.1920 C.3       1 <0>         0.0000
     10 C10        -1.3267    0.9552   -0.7219 C.3       1 <0>         0.0000
     11 C11        -0.1037    0.2002   -0.1464 C.3       1 <0>         0.0000
     12 N1          1.8756    0.2975   -1.8847 N.1       1 <0>         0.0000
     13 N2          0.0913   -2.2398   -0.5959 N.am      1 <0>         0.0000
     14 O1         -1.4190   -1.4709    0.9626 O.2       1 <0>         0.0000
     15 Cl1         1.6779   -3.7140   -2.6354 Cl        1 <0>         0.0000
     16 I1         -3.0673   -6.5007    1.1984 I         1 <0>         0.0000
     17 H1          1.0063   -6.4292   -2.1809 H         1 <0>         0.0000
     18 H2         -0.5959   -7.5267   -0.6173 H         1 <0>         0.0000
     19 H3         -1.5987   -3.6327    1.0022 H         1 <0>         0.0000
     20 H4         -0.4714    0.7513    1.9093 H         1 <0>         0.0000
     21 H5          1.2229    0.3166    1.5966 H         1 <0>         0.0000
     22 H6          0.5984    1.8842    1.0425 H         1 <0>         0.0000
     23 H7         -2.1507    0.8809   -0.0094 H         1 <0>         0.0000
     24 H8         -1.6433    0.5268   -1.6766 H         1 <0>         0.0000
     25 H9         -1.0763    2.0076   -0.8774 H         1 <0>         0.0000
     26 H10         0.7970   -1.9335   -1.2599 H         1 <0>         0.0000
@<TRIPOS>BOND
     1    1   11 1
     2    1   12 3
     3    2    3 ar
     4    2    6 ar
     5    2   17 1
     6    3    7 ar
     7    3   18 1
     8    4    5 ar
     9    4    7 ar
    10    4   19 1
    11    5    6 ar
    12    5   13 1
    13    6   15 1
    14    7   16 1
    15    8   11 1
    16    8   13 am
    17    8   14 2
    18    9   11 1
    19    9   20 1
    20    9   21 1
    21    9   22 1
    22   10   11 1
    23   10   23 1
    24   10   24 1
    25   10   25 1
    26   13   26 1
