@<TRIPOS>MOLECULE
*****
   39    41     0     0     0
SMALL
NO_CHARGES

@<TRIPOS>ATOM
      1 C1         -1.3029   -0.6921    1.7837 C.ar      1 <0>         0.0000
      2 C2         -2.1122    0.2919    1.2203 C.ar      1 <0>         0.0000
      3 C3          3.4223    4.2986    0.5962 C.ar      1 <0>         0.0000
      4 C4         -0.0662   -0.9858    1.2134 C.ar      1 <0>         0.0000
      5 C5          2.4324    3.6857    1.3609 C.ar      1 <0>         0.0000
      6 C6          4.2045    2.1584   -0.1431 C.ar      1 <0>         0.0000
      7 C7         -1.7150    0.9880    0.0693 C.ar      1 <0>         0.0000
      8 C8          4.3359    3.5490   -0.1624 C.ar      1 <0>         0.0000
      9 C9          0.3777   -0.2820    0.0890 C.ar      1 <0>         0.0000
     10 C10        -0.4607    0.6838   -0.5001 C.ar      1 <0>         0.0000
     11 C11         2.3108    2.2893    1.3867 C.ar      1 <0>         0.0000
     12 C12         3.2012    1.5306    0.6065 C.ar      1 <0>         0.0000
     13 C13        -2.6751    2.0348   -0.4410 C.2       1 <0>         0.0000
     14 C14         1.7559   -0.2001   -1.9063 C.3       1 <0>         0.0000
     15 C15         1.2424    1.2113   -2.1444 C.3       1 <0>         0.0000
     16 C16         5.4320    4.2245   -0.9536 C.3       1 <0>         0.0000
     17 N1          1.6560   -0.5576   -0.4842 N.pl3     1 <0>         0.0000
     18 O1         -3.7070    2.2943    0.1466 O.2       1 <0>         0.0000
     19 O2          4.1756   -0.6971   -0.3825 O.2       1 <0>         0.0000
     20 O3          2.8276   -0.8489    1.7754 O.2       1 <0>         0.0000
     21 O4         -0.1101    1.3412   -1.6619 O.3       1 <0>         0.0000
     22 O5          1.3622    1.6524    2.1239 O.3       1 <0>         0.0000
     23 O6         -2.3574    2.6977   -1.5761 O.3       1 <0>         0.0000
     24 S1          3.0650   -0.2601    0.4655 S.o2      1 <0>         0.0000
     25 H1         -1.6340   -1.2353    2.6635 H         1 <0>         0.0000
     26 H2         -3.0784    0.5427    1.6451 H         1 <0>         0.0000
     27 H3          3.4874    5.3843    0.5944 H         1 <0>         0.0000
     28 H4          0.5858   -1.7370    1.6422 H         1 <0>         0.0000
     29 H5          1.7437    4.2909    1.9475 H         1 <0>         0.0000
     30 H6          4.8800    1.5322   -0.7176 H         1 <0>         0.0000
     31 H7          1.1533   -0.9218   -2.4662 H         1 <0>         0.0000
     32 H8          2.7916   -0.2990   -2.2310 H         1 <0>         0.0000
     33 H9          1.8654    1.9532   -1.6385 H         1 <0>         0.0000
     34 H10         1.1944    1.4465   -3.2096 H         1 <0>         0.0000
     35 H11         6.2123    4.6141   -0.2899 H         1 <0>         0.0000
     36 H12         5.9075    3.5284   -1.6494 H         1 <0>         0.0000
     37 H13         5.0433    5.0688   -1.5320 H         1 <0>         0.0000
     38 H14         0.7448    2.3004    2.4996 H         1 <0>         0.0000
     39 H15        -1.4962    2.3768   -1.9149 H         1 <0>         0.0000
@<TRIPOS>BOND
     1    1    2 ar
     2    1    4 ar
     3    1   25 1
     4    2    7 ar
     5    2   26 1
     6    3    5 ar
     7    3    8 ar
     8    3   27 1
     9    4    9 ar
    10    4   28 1
    11    5   11 ar
    12    5   29 1
    13    6    8 ar
    14    6   12 ar
    15    6   30 1
    16    7   10 ar
    17    7   13 1
    18    8   16 1
    19    9   10 ar
    20    9   17 1
    21   10   21 1
    22   11   12 ar
    23   11   22 1
    24   12   24 1
    25   13   18 2
    26   13   23 1
    27   14   15 1
    28   14   17 1
    29   14   31 1
    30   14   32 1
    31   15   21 1
    32   15   33 1
    33   15   34 1
    34   16   35 1
    35   16   36 1
    36   16   37 1
    37   17   24 1
    38   19   24 2
    39   20   24 2
    40   22   38 1
    41   23   39 1
