@<TRIPOS>MOLECULE
*****
   25    26     0     0     0
SMALL
NO_CHARGES

@<TRIPOS>ATOM
      1 C1          3.1420   -0.5353    1.4556 C.ar      1 <0>         0.0000
      2 C2          2.0614    0.0362    2.1285 C.ar      1 <0>         0.0000
      3 C3          2.9487   -1.6257    0.6051 C.ar      1 <0>         0.0000
      4 C4          0.5687   -1.5868    1.0944 C.ar      1 <0>         0.0000
      5 C5          0.7695   -0.4904    1.9482 C.ar      1 <0>         0.0000
      6 C6          1.6568   -2.1490    0.4275 C.ar      1 <0>         0.0000
      7 C7         -5.6657   -1.1331    2.6624 C.2       1 <0>         0.0000
      8 C8         -3.8159   -0.0207    3.2122 C.2       1 <0>         0.0000
      9 C9         -0.3488    0.1259    2.6649 C.2       1 <0>         0.0000
     10 C10        -6.2921   -0.0929    3.6296 C.3       1 <0>         0.0000
     11 N1         -4.2882   -0.9986    2.5070 N.2       1 <0>         0.0000
     12 N2         -1.5523   -0.3093    2.5420 N.2       1 <0>         0.0000
     13 N3         -2.5104    0.3468    3.2604 N.pl3     1 <0>         0.0000
     14 O1         -6.3624   -1.9672    2.1173 O.2       1 <0>         0.0000
     15 O2          1.4070   -3.2178   -0.3946 O.3       1 <0>         0.0000
     16 S1         -4.9310    0.9596    4.2246 S.3       1 <0>         0.0000
     17 H1          4.1421   -0.1329    1.5909 H         1 <0>         0.0000
     18 H2          2.2169    0.8851    2.7897 H         1 <0>         0.0000
     19 H3          3.7947   -2.0685    0.0820 H         1 <0>         0.0000
     20 H4         -0.4256   -1.9971    0.9515 H         1 <0>         0.0000
     21 H5         -0.1075    0.9803    3.3140 H         1 <0>         0.0000
     22 H6         -7.0353    0.5015    3.0960 H         1 <0>         0.0000
     23 H7         -6.7727   -0.6101    4.4615 H         1 <0>         0.0000
     24 H8         -2.2503    1.1360    3.8528 H         1 <0>         0.0000
     25 H9          2.2383   -3.5155   -0.7967 H         1 <0>         0.0000
@<TRIPOS>BOND
     1    1    2 ar
     2    1    3 ar
     3    1   17 1
     4    2    5 ar
     5    2   18 1
     6    3    6 ar
     7    3   19 1
     8    4    5 ar
     9    4    6 ar
    10    4   20 1
    11    5    9 1
    12    6   15 1
    13    7   10 1
    14    7   11 1
    15    7   14 2
    16    8   11 2
    17    8   13 1
    18    8   16 1
    19    9   12 2
    20    9   21 1
    21   10   16 1
    22   10   22 1
    23   10   23 1
    24   12   13 1
    25   13   24 1
    26   15   25 1
