@<TRIPOS>MOLECULE
*****
   25    26     0     0     0
SMALL
NO_CHARGES

@<TRIPOS>ATOM
      1 C1          2.0344   -0.8617   -0.0058 C.ar      1 <0>         0.0000
      2 C2          0.8526   -0.4385    0.6105 C.ar      1 <0>         0.0000
      3 C3          4.9305   -3.7938    4.5382 C.ar      1 <0>         0.0000
      4 C4          3.0403   -1.4542    0.7540 C.ar      1 <0>         0.0000
      5 C5          0.6868   -0.6062    1.9862 C.ar      1 <0>         0.0000
      6 C6          3.8116   -3.2251    3.9261 C.ar      1 <0>         0.0000
      7 C7          6.2075   -3.4493    4.0998 C.ar      1 <0>         0.0000
      8 C8          2.8871   -1.6696    2.1354 C.ar      1 <0>         0.0000
      9 C9          1.6919   -1.2302    2.7241 C.ar      1 <0>         0.0000
     10 C10         4.0037   -2.3106    2.8818 C.ar      1 <0>         0.0000
     11 C11         6.2807   -2.5440    3.0355 C.ar      1 <0>         0.0000
     12 C12         0.5400   -1.9990    4.6638 C.3       1 <0>         0.0000
     13 N1          5.2409   -1.9932    2.4433 N.ar      1 <0>         0.0000
     14 O1          1.5802   -1.3203    4.1300 O.3       1 <0>         0.0000
     15 F1          0.3600   -3.2144    4.0912 F         1 <0>         0.0000
     16 F2         -0.6404   -1.3413    4.5617 F         1 <0>         0.0000
     17 F3          0.7950   -2.1804    5.9668 F         1 <0>         0.0000
     18 Cl1         7.8704   -2.0940    2.4215 Cl        1 <0>         0.0000
     19 H1          2.1749   -0.7208   -1.0737 H         1 <0>         0.0000
     20 H2          0.0674    0.0379    0.0303 H         1 <0>         0.0000
     21 H3          4.8067   -4.5068    5.3488 H         1 <0>         0.0000
     22 H4          3.9718   -1.7640    0.2923 H         1 <0>         0.0000
     23 H5         -0.2052   -0.2453    2.4848 H         1 <0>         0.0000
     24 H6          2.8165   -3.5100    4.2387 H         1 <0>         0.0000
     25 H7          7.1050   -3.8624    4.5463 H         1 <0>         0.0000
@<TRIPOS>BOND
     1    1    2 ar
     2    1    4 ar
     3    1   19 1
     4    2    5 ar
     5    2   20 1
     6    3    6 ar
     7    3    7 ar
     8    3   21 1
     9    4    8 ar
    10    4   22 1
    11    5    9 ar
    12    5   23 1
    13    6   10 ar
    14    6   24 1
    15    7   11 ar
    16    7   25 1
    17    8    9 ar
    18    8   10 1
    19    9   14 1
    20   10   13 ar
    21   11   13 ar
    22   11   18 1
    23   12   14 1
    24   12   15 1
    25   12   16 1
    26   12   17 1
