@<TRIPOS>MOLECULE
*****
   40    44     0     0     0
SMALL
NO_CHARGES

@<TRIPOS>ATOM
      1 C1          1.2589   -0.2972    1.7851 C.ar      1 <0>         0.0000
      2 C2          0.9949   -1.1850    0.7194 C.ar      1 <0>         0.0000
      3 C3          0.6830   -0.4876    3.0395 C.ar      1 <0>         0.0000
      4 C4          0.1504   -2.2830    0.8863 C.ar      1 <0>         0.0000
      5 C5         -1.3676   -4.2337    9.9916 C.2       1 <0>         0.0000
      6 C6         -0.1749   -1.5849    3.2366 C.ar      1 <0>         0.0000
      7 C7         -0.9243   -2.0876    4.3589 C.2       1 <0>         0.0000
      8 C8         -0.4256   -2.4712    2.1466 C.ar      1 <0>         0.0000
      9 C9         -1.5673   -4.0933    8.5888 C.2       1 <0>         0.0000
     10 C10        -1.5877   -3.2158    3.9399 C.2       1 <0>         0.0000
     11 C11        -1.8682   -5.4741   10.2775 C.2       1 <0>         0.0000
     12 C12        -1.0667   -2.9150    7.7984 C.2       1 <0>         0.0000
     13 C13        -1.0075   -1.5722    5.7685 C.3       1 <0>         0.0000
     14 C14        -2.4973   -4.0388    4.7956 C.3       1 <0>         0.0000
     15 C15        -0.8445   -6.2666   12.5161 C.3       1 <0>         0.0000
     16 C16        -2.1417   -5.5825   12.8468 C.3       1 <0>         0.0000
     17 C17        -2.8555   -3.1940    6.0298 C.3       1 <0>         0.0000
     18 C18        -1.9835   -6.2780   11.5025 C.3       1 <0>         0.0000
     19 N1         -2.1347   -5.1639    8.0621 N.2       1 <0>         0.0000
     20 N2         -1.2891   -3.4564    2.6055 N.pl3     1 <0>         0.0000
     21 N3         -1.6567   -2.5861    6.6142 N.am      1 <0>         0.0000
     22 O1         -0.1104   -2.2906    8.2709 O.2       1 <0>         0.0000
     23 O2         -2.3293   -6.0442    9.1330 O.3       1 <0>         0.0000
     24 H1          1.9240    0.5464    1.6206 H         1 <0>         0.0000
     25 H2          1.4588   -1.0115   -0.2479 H         1 <0>         0.0000
     26 H3          0.8959    0.2016    3.8532 H         1 <0>         0.0000
     27 H4         -0.0483   -2.9658    0.0634 H         1 <0>         0.0000
     28 H5         -0.9011   -3.5149   10.6484 H         1 <0>         0.0000
     29 H6         -0.0203   -1.3743    6.1879 H         1 <0>         0.0000
     30 H7         -1.5776   -0.6327    5.8220 H         1 <0>         0.0000
     31 H8         -3.4174   -4.3085    4.2616 H         1 <0>         0.0000
     32 H9         -2.0187   -4.9710    5.1189 H         1 <0>         0.0000
     33 H10         0.0159   -5.6496   12.2768 H         1 <0>         0.0000
     34 H11        -0.6116   -7.2062   13.0077 H         1 <0>         0.0000
     35 H12        -2.8059   -6.0479   13.5685 H         1 <0>         0.0000
     36 H13        -2.1671   -4.4972   12.8387 H         1 <0>         0.0000
     37 H14        -3.5191   -2.3748    5.7260 H         1 <0>         0.0000
     38 H15        -3.3704   -3.7962    6.7719 H         1 <0>         0.0000
     39 H16        -2.5098   -7.2169   11.3639 H         1 <0>         0.0000
     40 H17        -1.6489   -4.2239    2.0566 H         1 <0>         0.0000
@<TRIPOS>BOND
     1    1    2 ar
     2    1    3 ar
     3    1   24 1
     4    2    4 ar
     5    2   25 1
     6    3    6 ar
     7    3   26 1
     8    4    8 ar
     9    4   27 1
    10    5    9 1
    11    5   11 2
    12    5   28 1
    13    6    7 1
    14    6    8 ar
    15    7   10 2
    16    7   13 1
    17    8   20 1
    18    9   12 1
    19    9   19 2
    20   10   14 1
    21   10   20 1
    22   11   18 1
    23   11   23 1
    24   12   21 am
    25   12   22 2
    26   13   21 1
    27   13   29 1
    28   13   30 1
    29   14   17 1
    30   14   31 1
    31   14   32 1
    32   15   16 1
    33   15   18 1
    34   15   33 1
    35   15   34 1
    36   16   18 1
    37   16   35 1
    38   16   36 1
    39   17   21 1
    40   17   37 1
    41   17   38 1
    42   18   39 1
    43   19   23 1
    44   20   40 1
