@<TRIPOS>MOLECULE
*****
   44    46     0     0     0
SMALL
NO_CHARGES

@<TRIPOS>ATOM
      1 C1         -1.4754   -2.3299   -4.8529 C.ar      1 <0>         0.0000
      2 C2         -0.4125   -1.9774   -5.6851 C.ar      1 <0>         0.0000
      3 C3         -1.8897   -1.4190   -3.8775 C.ar      1 <0>         0.0000
      4 C4          0.1788   -0.7213   -5.5040 C.ar      1 <0>         0.0000
      5 C5         -1.2291   -0.1889   -3.7664 C.ar      1 <0>         0.0000
      6 C6          0.3538    2.3210    0.1382 C.3       1 <0>         0.0000
      7 C7          0.6257    1.0551    0.9599 C.3       1 <0>         0.0000
      8 C8          0.8853   -1.4775    0.9108 C.3       1 <0>         0.0000
      9 C9         -0.8211    2.1184   -0.8200 C.3       1 <0>         0.0000
     10 C10         2.3690   -1.5200    1.3098 C.3       1 <0>         0.0000
     11 C11        -0.4737   -0.2642   -0.8624 C.3       1 <0>         0.0000
     12 C12         2.0580   -0.2065   -0.7314 C.3       1 <0>         0.0000
     13 C13         0.7413   -0.1961    0.0656 C.3       1 <0>         0.0000
     14 C14         5.6524   -0.4353    0.9262 C.3       1 <0>         0.0000
     15 C15        -1.6173    0.8231   -2.7081 C.3       1 <0>         0.0000
     16 N1         -0.2125    0.1573   -4.5748 N.ar      1 <0>         0.0000
     17 N2         -0.5961    0.9479   -1.6683 N.3       1 <0>         0.0000
     18 N3          3.0406   -0.6840    0.2787 N.pl3     1 <0>         0.0000
     19 O1          4.7516   -0.5179   -1.5739 O.2       1 <0>         0.0000
     20 O2          4.6936   -2.6384   -0.1584 O.2       1 <0>         0.0000
     21 S1          4.5428   -1.1803   -0.2826 S.o2      1 <0>         0.0000
     22 H1         -1.9687   -3.2932   -4.9564 H         1 <0>         0.0000
     23 H2         -0.0475   -2.6496   -6.4564 H         1 <0>         0.0000
     24 H3         -2.7097   -1.6569   -3.2049 H         1 <0>         0.0000
     25 H4          1.0063   -0.4078   -6.1393 H         1 <0>         0.0000
     26 H5          0.1397    3.1631    0.8063 H         1 <0>         0.0000
     27 H6          1.2398    2.5917   -0.4454 H         1 <0>         0.0000
     28 H7          1.5326    1.1796    1.5616 H         1 <0>         0.0000
     29 H8         -0.2047    0.8983    1.6615 H         1 <0>         0.0000
     30 H9          0.6442   -2.3511    0.2944 H         1 <0>         0.0000
     31 H10         0.2227   -1.4867    1.7810 H         1 <0>         0.0000
     32 H11        -1.7614    2.0168   -0.2387 H         1 <0>         0.0000
     33 H12        -0.9326    2.9962   -1.4648 H         1 <0>         0.0000
     34 H13         2.5369   -1.0770    2.2977 H         1 <0>         0.0000
     35 H14         2.7669   -2.5374    1.3125 H         1 <0>         0.0000
     36 H15        -0.3683   -1.1238   -1.5306 H         1 <0>         0.0000
     37 H16        -1.3864   -0.4367   -0.2530 H         1 <0>         0.0000
     38 H17         1.9808   -0.8905   -1.5842 H         1 <0>         0.0000
     39 H18         2.3550    0.7678   -1.1133 H         1 <0>         0.0000
     40 H19         6.6651   -0.7465    0.6633 H         1 <0>         0.0000
     41 H20         5.5465    0.6478    0.8659 H         1 <0>         0.0000
     42 H21         5.3891   -0.8047    1.9186 H         1 <0>         0.0000
     43 H22        -1.7172    1.7984   -3.1937 H         1 <0>         0.0000
     44 H23        -2.6052    0.5576   -2.2850 H         1 <0>         0.0000
@<TRIPOS>BOND
     1    1    2 ar
     2    1    3 ar
     3    1   22 1
     4    2    4 ar
     5    2   23 1
     6    3    5 ar
     7    3   24 1
     8    4   16 ar
     9    4   25 1
    10    5   15 1
    11    5   16 ar
    12    6    7 1
    13    6    9 1
    14    6   26 1
    15    6   27 1
    16    7   13 1
    17    7   28 1
    18    7   29 1
    19    8   10 1
    20    8   13 1
    21    8   30 1
    22    8   31 1
    23    9   17 1
    24    9   32 1
    25    9   33 1
    26   10   18 1
    27   10   34 1
    28   10   35 1
    29   11   13 1
    30   11   17 1
    31   11   36 1
    32   11   37 1
    33   12   13 1
    34   12   18 1
    35   12   38 1
    36   12   39 1
    37   14   21 1
    38   14   40 1
    39   14   41 1
    40   14   42 1
    41   15   17 1
    42   15   43 1
    43   15   44 1
    44   18   21 1
    45   19   21 2
    46   20   21 2
