@<TRIPOS>MOLECULE
*****
   32    33     0     0     0
SMALL
NO_CHARGES

@<TRIPOS>ATOM
      1 C1         -2.8451   -0.3376    0.5748 C.1       1 <0>         0.0000
      2 C2          4.1711   -2.9539   -5.3092 C.ar      1 <0>         0.0000
      3 C3          3.2712   -3.7768   -5.9875 C.ar      1 <0>         0.0000
      4 C4          3.7416   -2.2010   -4.2134 C.ar      1 <0>         0.0000
      5 C5          1.5012   -3.1105   -4.4903 C.ar      1 <0>         0.0000
      6 C6         -1.4674   -0.2214    0.2068 C.2       1 <0>         0.0000
      7 C7          1.9232   -3.8640   -5.5848 C.ar      1 <0>         0.0000
      8 C8         -0.9374   -0.9238   -0.8661 C.2       1 <0>         0.0000
      9 C9          2.4045   -2.2775   -3.8010 C.ar      1 <0>         0.0000
     10 C10         0.4479   -0.7982   -1.2256 C.2       1 <0>         0.0000
     11 C11        -0.6569    0.6709    1.0173 C.2       1 <0>         0.0000
     12 C12         1.2455    0.0571   -0.4559 C.2       1 <0>         0.0000
     13 C13         0.9630   -4.7575   -6.3368 C.3       1 <0>         0.0000
     14 C14        -1.8036   -1.8415   -1.6873 C.3       1 <0>         0.0000
     15 N1         -3.9704   -0.4448    0.8593 N.1       1 <0>         0.0000
     16 N2          2.0701   -1.4763   -2.6803 N.2       1 <0>         0.0000
     17 N3          0.8571   -1.5595   -2.3256 N.2       1 <0>         0.0000
     18 N4          0.6967    0.7311    0.5890 N.am      1 <0>         0.0000
     19 O1         -1.0001    1.3426    1.9820 O.2       1 <0>         0.0000
     20 O2          2.5488    0.2434   -0.7078 O.3       1 <0>         0.0000
     21 H1          5.2070   -2.8992   -5.6333 H         1 <0>         0.0000
     22 H2          3.6118   -4.3614   -6.8398 H         1 <0>         0.0000
     23 H3          4.4195   -1.5525   -3.6662 H         1 <0>         0.0000
     24 H4          0.4706   -3.1549   -4.1533 H         1 <0>         0.0000
     25 H5          1.3241   -5.7915   -6.3636 H         1 <0>         0.0000
     26 H6         -0.0274   -4.7588   -5.8743 H         1 <0>         0.0000
     27 H7          0.8485   -4.4261   -7.3750 H         1 <0>         0.0000
     28 H8         -1.7965   -1.5274   -2.7345 H         1 <0>         0.0000
     29 H9         -2.8298   -1.8530   -1.3212 H         1 <0>         0.0000
     30 H10        -1.4003   -2.8576   -1.6655 H         1 <0>         0.0000
     31 H11         1.2603    1.3580    1.1590 H         1 <0>         0.0000
     32 H12         2.9401    0.8666   -0.0703 H         1 <0>         0.0000
@<TRIPOS>BOND
     1    1    6 1
     2    1   15 3
     3    2    3 ar
     4    2    4 ar
     5    2   21 1
     6    3    7 ar
     7    3   22 1
     8    4    9 ar
     9    4   23 1
    10    5    7 ar
    11    5    9 ar
    12    5   24 1
    13    6    8 2
    14    6   11 1
    15    7   13 1
    16    8   10 1
    17    8   14 1
    18    9   16 1
    19   10   12 2
    20   10   17 1
    21   11   18 am
    22   11   19 2
    23   12   18 1
    24   12   20 1
    25   13   25 1
    26   13   26 1
    27   13   27 1
    28   14   28 1
    29   14   29 1
    30   14   30 1
    31   16   17 2
    32   18   31 1
    33   20   32 1
