@<TRIPOS>MOLECULE
*****
   29    30     0     0     0
SMALL
NO_CHARGES

@<TRIPOS>ATOM
      1 C1          0.5842    0.3726    1.5584 C.1       1 <0>         0.0000
      2 C2         -3.2764    1.9160    5.2257 C.2       1 <0>         0.0000
      3 C3          0.6789   -0.7742    0.7296 C.2       1 <0>         0.0000
      4 C4         -2.5265    0.2942    3.5695 C.2       1 <0>         0.0000
      5 C5         -1.9212    0.2053    4.8176 C.2       1 <0>         0.0000
      6 C6         -0.1331   -1.8898    0.6992 C.2       1 <0>         0.0000
      7 C7          1.4876   -2.0962   -0.7616 C.2       1 <0>         0.0000
      8 C8         -2.2648   -0.4842    2.3624 C.2       1 <0>         0.0000
      9 C9         -0.8354   -0.7433    5.2246 C.3       1 <0>         0.0000
     10 C10         2.2470   -2.8110   -1.8200 C.3       1 <0>         0.0000
     11 C11        -2.7073    0.0786    1.0338 C.3       1 <0>         0.0000
     12 N1          0.4825    1.3173    2.2368 N.1       1 <0>         0.0000
     13 N2         -2.3691    1.1287    5.7374 N.2       1 <0>         0.0000
     14 N3          1.7011   -0.9448   -0.2245 N.2       1 <0>         0.0000
     15 N4         -1.6362   -1.6083    2.5320 N.2       1 <0>         0.0000
     16 N5         -1.2921   -2.2877    1.3241 N.pl3     1 <0>         0.0000
     17 O1          0.3639   -2.7424   -0.2410 O.3       1 <0>         0.0000
     18 S1         -3.6729    1.6164    3.5672 S.3       1 <0>         0.0000
     19 H1         -3.7655    2.7115    5.7783 H         1 <0>         0.0000
     20 H2         -0.0655   -0.8016    4.4515 H         1 <0>         0.0000
     21 H3         -0.3976   -0.3983    6.1632 H         1 <0>         0.0000
     22 H4         -1.2265   -1.7561    5.3602 H         1 <0>         0.0000
     23 H5          2.6190   -3.7731   -1.4528 H         1 <0>         0.0000
     24 H6          1.6155   -3.0054   -2.6929 H         1 <0>         0.0000
     25 H7          3.0926   -2.1916   -2.1204 H         1 <0>         0.0000
     26 H8         -2.0893    0.9422    0.7714 H         1 <0>         0.0000
     27 H9         -2.6331   -0.6697    0.2455 H         1 <0>         0.0000
     28 H10        -3.7438    0.4231    1.0961 H         1 <0>         0.0000
     29 H11        -1.2977   -3.2902    1.4974 H         1 <0>         0.0000
@<TRIPOS>BOND
     1    1    3 1
     2    1   12 3
     3    2   13 2
     4    2   18 1
     5    2   19 1
     6    3    6 2
     7    3   14 1
     8    4    5 2
     9    4    8 1
    10    4   18 1
    11    5    9 1
    12    5   13 1
    13    6   16 1
    14    6   17 1
    15    7   10 1
    16    7   14 2
    17    7   17 1
    18    8   11 1
    19    8   15 2
    20    9   20 1
    21    9   21 1
    22    9   22 1
    23   10   23 1
    24   10   24 1
    25   10   25 1
    26   11   26 1
    27   11   27 1
    28   11   28 1
    29   15   16 1
    30   16   29 1
