@<TRIPOS>MOLECULE
*****
   52    55     0     0     0
SMALL
NO_CHARGES

@<TRIPOS>ATOM
      1 C1        -10.1377   -8.3617   -0.3838 C.ar      1 <0>         0.0000
      2 C2         -3.2065   -5.2513   -2.7691 C.ar      1 <0>         0.0000
      3 C3        -10.2285   -8.3119    1.0119 C.ar      1 <0>         0.0000
      4 C4         -8.8756   -8.3893   -0.9759 C.ar      1 <0>         0.0000
      5 C5         -1.9345   -5.7776   -3.0334 C.ar      1 <0>         0.0000
      6 C6         -3.5420   -4.8782   -1.4688 C.ar      1 <0>         0.0000
      7 C7         -9.0786   -8.2835    1.7993 C.ar      1 <0>         0.0000
      8 C8         -7.7156   -8.3431   -0.1937 C.ar      1 <0>         0.0000
      9 C9         -0.9945   -5.9046   -2.0095 C.ar      1 <0>         0.0000
     10 C10        -2.6176   -5.0118   -0.4174 C.ar      1 <0>         0.0000
     11 C11        -7.8008   -8.2855    1.2083 C.ar      1 <0>         0.0000
     12 C12        -1.3273   -5.5050   -0.7138 C.ar      1 <0>         0.0000
     13 C13        -1.8739   -4.6049    1.8610 C.2       1 <0>         0.0000
     14 C14        -2.9005   -4.7210    0.9947 C.2       1 <0>         0.0000
     15 C15        -6.6078   -7.3060    3.1305 C.3       1 <0>         0.0000
     16 C16        -5.3331   -8.3940    1.4391 C.3       1 <0>         0.0000
     17 C17        -6.1656   -5.9239    2.6347 C.3       1 <0>         0.0000
     18 C18        -4.8117   -7.0660    0.8755 C.3       1 <0>         0.0000
     19 C19        -0.4437   -4.7324    1.3875 C.3       1 <0>         0.0000
     20 C20         0.4477   -5.3527    2.4609 C.3       1 <0>         0.0000
     21 C21         0.0931   -3.3711    0.9234 C.3       1 <0>         0.0000
     22 C22        -4.3130   -4.6465    1.5042 C.3       1 <0>         0.0000
     23 N1         -6.6458   -8.2841    2.0509 N.pl3     1 <0>         0.0000
     24 N2         -4.8091   -6.0154    1.9692 N.4       1 <0>         0.0000
     25 O1         -0.3997   -5.6746    0.2738 O.3       1 <0>         0.0000
     26 H1        -11.0350   -8.3936   -0.9942 H         1 <0>         0.0000
     27 H2         -3.9255   -5.1281   -3.5732 H         1 <0>         0.0000
     28 H3        -11.2015   -8.3179    1.4952 H         1 <0>         0.0000
     29 H4         -8.7816   -8.4436   -2.0570 H         1 <0>         0.0000
     30 H5         -1.6688   -6.0746   -4.0438 H         1 <0>         0.0000
     31 H6         -4.5286   -4.4616   -1.2831 H         1 <0>         0.0000
     32 H7         -9.1823   -8.3038    2.8800 H         1 <0>         0.0000
     33 H8         -6.7583   -8.3726   -0.7025 H         1 <0>         0.0000
     34 H9          0.0001   -6.2970   -2.1976 H         1 <0>         0.0000
     35 H10        -2.0396   -4.3785    2.9135 H         1 <0>         0.0000
     36 H11        -5.9219   -7.6605    3.9110 H         1 <0>         0.0000
     37 H12        -7.5847   -7.1979    3.5982 H         1 <0>         0.0000
     38 H13        -5.3385   -9.1400    0.6439 H         1 <0>         0.0000
     39 H14        -4.6303   -8.7624    2.1985 H         1 <0>         0.0000
     40 H15        -6.8591   -5.5398    1.8832 H         1 <0>         0.0000
     41 H16        -6.0808   -5.2024    3.4511 H         1 <0>         0.0000
     42 H17        -3.7918   -7.1535    0.5019 H         1 <0>         0.0000
     43 H18        -5.4485   -6.6769    0.0810 H         1 <0>         0.0000
     44 H19         1.4590   -5.4885    2.0703 H         1 <0>         0.0000
     45 H20         0.0633   -6.3290    2.7698 H         1 <0>         0.0000
     46 H21         0.5000   -4.6987    3.3361 H         1 <0>         0.0000
     47 H22         1.1184   -3.4832    0.5593 H         1 <0>         0.0000
     48 H23         0.0937   -2.6591    1.7542 H         1 <0>         0.0000
     49 H24        -0.5229   -2.9590    0.1195 H         1 <0>         0.0000
     50 H25        -5.0316   -4.3023    0.7603 H         1 <0>         0.0000
     51 H26        -4.3837   -3.9968    2.3786 H         1 <0>         0.0000
     52 H27        -4.1329   -6.3301    2.6758 H         1 <0>         0.0000
@<TRIPOS>BOND
     1    1    4 ar
     2    1    3 ar
     3    1   26 1
     4    2    5 ar
     5    2    6 ar
     6    2   27 1
     7    3    7 ar
     8    3   28 1
     9    4    8 ar
    10    4   29 1
    11    5    9 ar
    12    5   30 1
    13    6   10 ar
    14    6   31 1
    15    7   11 ar
    16    7   32 1
    17    8   11 ar
    18    8   33 1
    19    9   12 ar
    20    9   34 1
    21   10   12 ar
    22   10   14 1
    23   11   23 1
    24   12   25 1
    25   13   14 2
    26   13   19 1
    27   13   35 1
    28   14   22 1
    29   15   17 1
    30   15   23 1
    31   15   36 1
    32   15   37 1
    33   16   18 1
    34   16   23 1
    35   16   38 1
    36   16   39 1
    37   17   24 1
    38   17   40 1
    39   17   41 1
    40   18   24 1
    41   18   42 1
    42   18   43 1
    43   19   20 1
    44   19   21 1
    45   19   25 1
    46   20   44 1
    47   20   45 1
    48   20   46 1
    49   21   47 1
    50   21   48 1
    51   21   49 1
    52   22   24 1
    53   22   50 1
    54   22   51 1
    55   24   52 1
