@<TRIPOS>MOLECULE
*****
   32    34     0     0     0
SMALL
NO_CHARGES

@<TRIPOS>ATOM
      1 C1          2.5817   -1.1959    0.8654 C.ar      1 <0>         0.0000
      2 C2          4.3610   -1.2627    2.4872 C.ar      1 <0>         0.0000
      3 C3          1.7388   -0.6055    1.8076 C.ar      1 <0>         0.0000
      4 C4          3.5293   -0.6759    3.4426 C.ar      1 <0>         0.0000
      5 C5          1.9950   -5.3829    0.3819 C.2       1 <0>         0.0000
      6 C6          4.0625   -5.3561   -0.0012 C.2       1 <0>         0.0000
      7 C7          3.9006   -1.5380    1.1907 C.ar      1 <0>         0.0000
      8 C8          2.2186   -0.3512    3.0926 C.ar      1 <0>         0.0000
      9 C9          6.7669   -0.2730    0.0673 C.3       1 <0>         0.0000
     10 C10         6.9829   -1.1819   -1.1442 C.3       1 <0>         0.0000
     11 C11         5.6241   -1.0082   -0.5422 C.3       1 <0>         0.0000
     12 C12         4.1982   -3.0004   -0.9237 C.3       1 <0>         0.0000
     13 C13         4.8686   -2.1324    0.1704 C.3       1 <0>         0.0000
     14 N1          3.1207   -6.1493    0.4926 N.2       1 <0>         0.0000
     15 N2          2.1853   -4.1784   -0.1453 N.2       1 <0>         0.0000
     16 N3          3.5270   -4.1717   -0.3897 N.pl3     1 <0>         0.0000
     17 O1          5.8757   -2.9203    0.8166 O.3       1 <0>         0.0000
     18 F1          4.7312   -0.2399   -1.2849 F         1 <0>         0.0000
     19 Cl1         1.1603    0.3847    4.2844 Cl        1 <0>         0.0000
     20 H1          2.1839   -1.3952   -0.1215 H         1 <0>         0.0000
     21 H2          5.3852   -1.4991    2.7575 H         1 <0>         0.0000
     22 H3          0.7161   -0.3526    1.5470 H         1 <0>         0.0000
     23 H4          3.8953   -0.4699    4.4435 H         1 <0>         0.0000
     24 H5          1.0131   -5.7184    0.6897 H         1 <0>         0.0000
     25 H6          5.1128   -5.5921   -0.1148 H         1 <0>         0.0000
     26 H7          7.1369   -0.6145    1.0276 H         1 <0>         0.0000
     27 H8          6.7911    0.7993   -0.0974 H         1 <0>         0.0000
     28 H9          7.1493   -0.7050   -2.1052 H         1 <0>         0.0000
     29 H10         7.4949   -2.1245   -0.9834 H         1 <0>         0.0000
     30 H11         3.4735   -2.4333   -1.5045 H         1 <0>         0.0000
     31 H12         4.9889   -3.3363   -1.5977 H         1 <0>         0.0000
     32 H13         5.4317   -3.4790    1.4759 H         1 <0>         0.0000
@<TRIPOS>BOND
     1    1    3 ar
     2    1    7 ar
     3    1   20 1
     4    2    4 ar
     5    2    7 ar
     6    2   21 1
     7    3    8 ar
     8    3   22 1
     9    4    8 ar
    10    4   23 1
    11    5   14 1
    12    5   15 2
    13    5   24 1
    14    6   14 2
    15    6   16 1
    16    6   25 1
    17    7   13 1
    18    8   19 1
    19    9   10 1
    20    9   11 1
    21    9   26 1
    22    9   27 1
    23   10   11 1
    24   10   28 1
    25   10   29 1
    26   11   13 1
    27   11   18 1
    28   12   13 1
    29   12   16 1
    30   12   30 1
    31   12   31 1
    32   13   17 1
    33   15   16 1
    34   17   32 1
