@<TRIPOS>MOLECULE
*****
   29    30     0     0     0
SMALL
NO_CHARGES

@<TRIPOS>ATOM
      1 C1          1.7762   -7.1823    2.2880 C.ar      1 <0>         0.0000
      2 C2          2.7155   -6.6437    1.4033 C.ar      1 <0>         0.0000
      3 C3          0.5719   -6.5128    2.5231 C.ar      1 <0>         0.0000
      4 C4          2.4554   -5.4339    0.7497 C.ar      1 <0>         0.0000
      5 C5          0.2827   -5.3045    1.8764 C.ar      1 <0>         0.0000
      6 C6          1.2483   -4.8013    1.0017 C.ar      1 <0>         0.0000
      7 C7         -0.5843   -2.7363    3.6593 C.cat     1 <0>         0.0000
      8 C8         -0.2512   -1.3612    5.4887 C.3       1 <0>         0.0000
      9 C9         -0.3461   -2.8371    5.9144 C.3       1 <0>         0.0000
     10 C10        -1.9688   -4.6669    0.8659 C.3       1 <0>         0.0000
     11 C11        -1.0423   -4.5994    2.0839 C.3       1 <0>         0.0000
     12 N1         -0.1654   -1.5174    4.0257 N.pl3     1 <0>         0.0000
     13 N2         -0.8217   -3.1637    2.4370 N.pl3     1 <0>         0.0000
     14 O1         -0.7710   -3.5409    4.6912 O.3       1 <0>         0.0000
     15 F1          0.9868   -3.6102    0.3693 F         1 <0>         0.0000
     16 H1          1.9802   -8.1210    2.7938 H         1 <0>         0.0000
     17 H2          3.6521   -7.1609    1.2181 H         1 <0>         0.0000
     18 H3         -0.1571   -6.9350    3.2108 H         1 <0>         0.0000
     19 H4          3.1637   -4.9908    0.0567 H         1 <0>         0.0000
     20 H5         -1.1374   -0.7832    5.7655 H         1 <0>         0.0000
     21 H6          0.6425   -0.8740    5.8807 H         1 <0>         0.0000
     22 H7          0.6159   -3.2626    6.2026 H         1 <0>         0.0000
     23 H8         -1.0980   -3.0368    6.6750 H         1 <0>         0.0000
     24 H9         -1.5109   -4.1994   -0.0099 H         1 <0>         0.0000
     25 H10        -2.1600   -5.7145    0.6236 H         1 <0>         0.0000
     26 H11        -2.9237   -4.1774    1.0771 H         1 <0>         0.0000
     27 H12        -1.5465   -5.0459    2.9412 H         1 <0>         0.0000
     28 H13        -0.1013   -0.7361    3.3835 H         1 <0>         0.0000
     29 H14        -0.5799   -2.5486    1.6656 H         1 <0>         0.0000
@<TRIPOS>BOND
     1    1    2 ar
     2    1    3 ar
     3    1   16 1
     4    2    4 ar
     5    2   17 1
     6    3    5 ar
     7    3   18 1
     8    4    6 ar
     9    4   19 1
    10    5    6 ar
    11    5   11 1
    12    6   15 1
    13    7   12 2
    14    7   13 1
    15    7   14 1
    16    8    9 1
    17    8   12 1
    18    8   20 1
    19    8   21 1
    20    9   14 1
    21    9   22 1
    22    9   23 1
    23   10   11 1
    24   10   24 1
    25   10   25 1
    26   10   26 1
    27   11   13 1
    28   11   27 1
    29   12   28 1
    30   13   29 1
