@<TRIPOS>MOLECULE
*****
   29    30     0     0     0
SMALL
NO_CHARGES

@<TRIPOS>ATOM
      1 C1         -0.9248    5.0023    2.8364 C.ar      1 <0>         0.0000
      2 C2         -0.2126    5.5542    3.9087 C.ar      1 <0>         0.0000
      3 C3         -0.3937    3.9220    2.1318 C.ar      1 <0>         0.0000
      4 C4          1.0247    5.0232    4.2783 C.ar      1 <0>         0.0000
      5 C5          0.8480    3.3692    2.4823 C.ar      1 <0>         0.0000
      6 C6          1.5253    3.9425    3.5601 C.ar      1 <0>         0.0000
      7 C7          0.4094    0.3473    3.0128 C.cat     1 <0>         0.0000
      8 C8         -0.1769   -1.2129    4.6140 C.3       1 <0>         0.0000
      9 C9          0.6694   -0.0807    5.2237 C.3       1 <0>         0.0000
     10 C10         1.6512    2.4626    0.2378 C.3       1 <0>         0.0000
     11 C11         1.4494    2.1990    1.7301 C.3       1 <0>         0.0000
     12 N1         -0.4508   -0.6449    3.2804 N.pl3     1 <0>         0.0000
     13 N2          0.5822    0.9811    1.8699 N.pl3     1 <0>         0.0000
     14 O1          1.1383    0.6868    4.0576 O.3       1 <0>         0.0000
     15 F1          2.7264    3.4240    3.9271 F         1 <0>         0.0000
     16 H1         -1.8843    5.4199    2.5472 H         1 <0>         0.0000
     17 H2         -0.6174    6.4010    4.4550 H         1 <0>         0.0000
     18 H3         -0.9504    3.5077    1.2942 H         1 <0>         0.0000
     19 H4          1.6025    5.4325    5.1012 H         1 <0>         0.0000
     20 H5          0.3738   -2.1538    4.5279 H         1 <0>         0.0000
     21 H6         -1.1046   -1.3783    5.1631 H         1 <0>         0.0000
     22 H7          0.0873    0.6076    5.8376 H         1 <0>         0.0000
     23 H8          1.5541   -0.4189    5.7589 H         1 <0>         0.0000
     24 H9          0.7057    2.6930   -0.2638 H         1 <0>         0.0000
     25 H10         2.1177    1.6036   -0.2538 H         1 <0>         0.0000
     26 H11         2.3068    3.3267    0.1153 H         1 <0>         0.0000
     27 H12         2.4076    1.9411    2.1810 H         1 <0>         0.0000
     28 H13        -0.9849   -1.1284    2.5679 H         1 <0>         0.0000
     29 H14         0.0084    0.7099    1.0787 H         1 <0>         0.0000
@<TRIPOS>BOND
     1    1    2 ar
     2    1    3 ar
     3    1   16 1
     4    2    4 ar
     5    2   17 1
     6    3    5 ar
     7    3   18 1
     8    4    6 ar
     9    4   19 1
    10    5    6 ar
    11    5   11 1
    12    6   15 1
    13    7   12 1
    14    7   13 2
    15    7   14 1
    16    8    9 1
    17    8   12 1
    18    8   20 1
    19    8   21 1
    20    9   14 1
    21    9   22 1
    22    9   23 1
    23   10   11 1
    24   10   24 1
    25   10   25 1
    26   10   26 1
    27   11   13 1
    28   11   27 1
    29   12   28 1
    30   13   29 1
