@<TRIPOS>MOLECULE
*****
   29    30     0     0     0
SMALL
NO_CHARGES

@<TRIPOS>ATOM
      1 C1          1.2328    5.4944    3.6498 C.ar      1 <0>         0.0000
      2 C2         -0.0228    6.0026    3.3028 C.ar      1 <0>         0.0000
      3 C3          1.6972    4.3144    3.0617 C.ar      1 <0>         0.0000
      4 C4         -0.8197    5.3337    2.3668 C.ar      1 <0>         0.0000
      5 C5          0.9235    3.6292    2.1163 C.ar      1 <0>         0.0000
      6 C6         -0.3244    4.1704    1.7992 C.ar      1 <0>         0.0000
      7 C7          0.3251    0.4722    2.5662 C.cat     1 <0>         0.0000
      8 C8         -0.3114   -1.2708    3.9464 C.3       1 <0>         0.0000
      9 C9          0.8464   -0.4679    4.5654 C.3       1 <0>         0.0000
     10 C10         1.7976    2.5897   -0.0405 C.3       1 <0>         0.0000
     11 C11         1.4411    2.3791    1.4342 C.3       1 <0>         0.0000
     12 N1         -0.6714   -0.3855    2.8244 N.pl3     1 <0>         0.0000
     13 N2          0.4364    1.2764    1.5299 N.pl3     1 <0>         0.0000
     14 O1          1.2710    0.4450    3.4891 O.3       1 <0>         0.0000
     15 F1         -1.1021    3.5038    0.8840 F         1 <0>         0.0000
     16 H1          1.8493    6.0151    4.3760 H         1 <0>         0.0000
     17 H2         -0.3869    6.9190    3.7574 H         1 <0>         0.0000
     18 H3          2.6747    3.9226    3.3327 H         1 <0>         0.0000
     19 H4         -1.7981    5.7032    2.0759 H         1 <0>         0.0000
     20 H5          0.0027   -2.2524    3.5802 H         1 <0>         0.0000
     21 H6         -1.1495   -1.3863    4.6347 H         1 <0>         0.0000
     22 H7          0.5344    0.1580    5.4022 H         1 <0>         0.0000
     23 H8          1.7132   -1.0672    4.8360 H         1 <0>         0.0000
     24 H9          0.9278    2.9122   -0.6190 H         1 <0>         0.0000
     25 H10         2.2000    1.6713   -0.4775 H         1 <0>         0.0000
     26 H11         2.5561    3.3720   -0.1137 H         1 <0>         0.0000
     27 H12         2.3244    2.0284    1.9686 H         1 <0>         0.0000
     28 H13        -1.4088   -0.5955    2.1617 H         1 <0>         0.0000
     29 H14        -0.3512    1.3364    0.8910 H         1 <0>         0.0000
@<TRIPOS>BOND
     1    1    2 ar
     2    1    3 ar
     3    1   16 1
     4    2    4 ar
     5    2   17 1
     6    3    5 ar
     7    3   18 1
     8    4    6 ar
     9    4   19 1
    10    5    6 ar
    11    5   11 1
    12    6   15 1
    13    7   12 1
    14    7   13 2
    15    7   14 1
    16    8    9 1
    17    8   12 1
    18    8   20 1
    19    8   21 1
    20    9   14 1
    21    9   22 1
    22    9   23 1
    23   10   11 1
    24   10   24 1
    25   10   25 1
    26   10   26 1
    27   11   13 1
    28   11   27 1
    29   12   28 1
    30   13   29 1
