@<TRIPOS>MOLECULE
*****
   29    30     0     0     0
SMALL
NO_CHARGES

@<TRIPOS>ATOM
      1 C1          2.0684   -5.2104    0.8458 C.ar      1 <0>         0.0000
      2 C2          2.5077   -5.6243    2.1089 C.ar      1 <0>         0.0000
      3 C3          0.7197   -4.9249    0.6299 C.ar      1 <0>         0.0000
      4 C4          1.5984   -5.7425    3.1629 C.ar      1 <0>         0.0000
      5 C5         -0.2198   -5.0395    1.6671 C.ar      1 <0>         0.0000
      6 C6          0.2680   -5.4422    2.9101 C.ar      1 <0>         0.0000
      7 C7         -1.9300   -2.4928    2.5167 C.cat     1 <0>         0.0000
      8 C8         -1.6467   -1.6600    4.6466 C.3       1 <0>         0.0000
      9 C9         -2.1703   -0.5689    3.6938 C.3       1 <0>         0.0000
     10 C10        -2.2868   -5.3435    0.1897 C.3       1 <0>         0.0000
     11 C11        -1.6983   -4.7461    1.4691 C.3       1 <0>         0.0000
     12 N1         -1.7682   -2.8519    3.7889 N.pl3     1 <0>         0.0000
     13 N2         -1.9595   -3.2778    1.4561 N.pl3     1 <0>         0.0000
     14 O1         -2.0931   -1.1878    2.3586 O.3       1 <0>         0.0000
     15 F1         -0.6234   -5.5296    3.9611 F         1 <0>         0.0000
     16 H1          2.7763   -5.1197    0.0278 H         1 <0>         0.0000
     17 H2          3.5551   -5.8567    2.2756 H         1 <0>         0.0000
     18 H3          0.3947   -4.6177   -0.3600 H         1 <0>         0.0000
     19 H4          1.9031   -6.0625    4.1544 H         1 <0>         0.0000
     20 H5         -0.6040   -1.5045    4.9368 H         1 <0>         0.0000
     21 H6         -2.2635   -1.7608    5.5406 H         1 <0>         0.0000
     22 H7         -3.2174   -0.3165    3.8652 H         1 <0>         0.0000
     23 H8         -1.5597    0.3312    3.6642 H         1 <0>         0.0000
     24 H9         -1.8235   -4.9220   -0.7072 H         1 <0>         0.0000
     25 H10        -2.1133   -6.4211    0.1801 H         1 <0>         0.0000
     26 H11        -3.3642   -5.1633    0.1433 H         1 <0>         0.0000
     27 H12        -2.2573   -5.1495    2.3162 H         1 <0>         0.0000
     28 H13        -1.4752   -3.7836    4.0757 H         1 <0>         0.0000
     29 H14        -2.0923   -2.8113    0.5636 H         1 <0>         0.0000
@<TRIPOS>BOND
     1    1    2 ar
     2    1    3 ar
     3    1   16 1
     4    2    4 ar
     5    2   17 1
     6    3    5 ar
     7    3   18 1
     8    4    6 ar
     9    4   19 1
    10    5    6 ar
    11    5   11 1
    12    6   15 1
    13    7   12 2
    14    7   13 1
    15    7   14 1
    16    8    9 1
    17    8   12 1
    18    8   20 1
    19    8   21 1
    20    9   14 1
    21    9   22 1
    22    9   23 1
    23   10   11 1
    24   10   24 1
    25   10   25 1
    26   10   26 1
    27   11   13 1
    28   11   27 1
    29   12   28 1
    30   13   29 1
