@<TRIPOS>MOLECULE
*****
   34    35     0     0     0
SMALL
NO_CHARGES

@<TRIPOS>ATOM
      1 C1          0.9214    2.4796    0.9157 C.2       1 <0>         0.0000
      2 C2         -0.0295    2.7861   -0.1573 C.2       1 <0>         0.0000
      3 C3          1.2123    1.2019    1.2255 C.2       1 <0>         0.0000
      4 C4         -0.4542    1.8361   -1.0108 C.2       1 <0>         0.0000
      5 C5         -2.6810   -1.6556    0.3261 C.2       1 <0>         0.0000
      6 C6          1.2420    0.4602   -3.1934 C.2       1 <0>         0.0000
      7 C7         -0.8004   -0.3396    1.1870 C.3       1 <0>         0.0000
      8 C8         -0.9945   -0.6473   -1.2318 C.3       1 <0>         0.0000
      9 C9          0.5215    0.0753    0.5060 C.3       1 <0>         0.0000
     10 C10         0.0867    0.4170   -0.9415 C.3       1 <0>         0.0000
     11 C11        -4.4149   -2.9082   -0.6680 C.3       1 <0>         0.0000
     12 C12        -0.0948    0.4685   -5.1372 C.3       1 <0>         0.0000
     13 N1         -1.5659   -0.9214    0.0875 N.am      1 <0>         0.0000
     14 N2          1.2555    0.2724   -1.8310 N.am      1 <0>         0.0000
     15 O1         -3.1470   -1.8822    1.4368 O.2       1 <0>         0.0000
     16 O2          2.2392    0.6597   -3.8688 O.2       1 <0>         0.0000
     17 O3         -3.2234   -2.1201   -0.8397 O.3       1 <0>         0.0000
     18 O4         -0.0148    0.3526   -3.7035 O.3       1 <0>         0.0000
     19 H1          1.3767    3.3005    1.4639 H         1 <0>         0.0000
     20 H2         -0.3739    3.8115   -0.2694 H         1 <0>         0.0000
     21 H3          1.8989    0.9613    2.0333 H         1 <0>         0.0000
     22 H4         -1.1301    2.0742   -1.8275 H         1 <0>         0.0000
     23 H5         -0.6504   -1.0661    1.9887 H         1 <0>         0.0000
     24 H6         -1.3161    0.5303    1.6075 H         1 <0>         0.0000
     25 H7         -1.7547   -0.2932   -1.9268 H         1 <0>         0.0000
     26 H8         -0.5322   -1.5423   -1.6622 H         1 <0>         0.0000
     27 H9          1.1732   -0.8039    0.4499 H         1 <0>         0.0000
     28 H10        -4.7197   -3.1937   -1.6754 H         1 <0>         0.0000
     29 H11        -5.1987   -2.3221   -0.1821 H         1 <0>         0.0000
     30 H12        -4.2067   -3.7955   -0.0653 H         1 <0>         0.0000
     31 H13        -1.1527    0.3574   -5.3763 H         1 <0>         0.0000
     32 H14         0.4922   -0.3173   -5.6176 H         1 <0>         0.0000
     33 H15         0.2735    1.4438   -5.4630 H         1 <0>         0.0000
     34 H16         2.1308    0.5943   -1.4319 H         1 <0>         0.0000
@<TRIPOS>BOND
     1    1    2 1
     2    1    3 2
     3    1   19 1
     4    2    4 2
     5    2   20 1
     6    3    9 1
     7    3   21 1
     8    4   10 1
     9    4   22 1
    10    5   13 am
    11    5   15 2
    12    5   17 1
    13    6   14 am
    14    6   16 2
    15    6   18 1
    16    7    9 1
    17    7   13 1
    18    7   23 1
    19    7   24 1
    20    8   10 1
    21    8   13 1
    22    8   25 1
    23    8   26 1
    24    9   10 1
    25    9   27 1
    26   10   14 1
    27   11   17 1
    28   11   28 1
    29   11   29 1
    30   11   30 1
    31   12   18 1
    32   12   31 1
    33   12   32 1
    34   12   33 1
    35   14   34 1
