@<TRIPOS>MOLECULE
*****
   41    42     0     0     0
SMALL
NO_CHARGES

@<TRIPOS>ATOM
      1 C1          0.6841   -3.1335   -8.5710 C.ar      1 <0>         0.0000
      2 C2         -0.4946   -2.4060   -8.4772 C.ar      1 <0>         0.0000
      3 C3          1.4554   -3.4061   -7.4292 C.ar      1 <0>         0.0000
      4 C4         -0.1549   -2.1443   -6.0754 C.ar      1 <0>         0.0000
      5 C5         -0.9230   -1.9326   -7.2338 C.ar      1 <0>         0.0000
      6 C6          1.0357   -2.9009   -6.1856 C.ar      1 <0>         0.0000
      7 C7          2.6782   -4.2563   -7.5816 C.2       1 <0>         0.0000
      8 C8         -0.9391   -0.6884   -0.5852 C.3       1 <0>         0.0000
      9 C9         -2.3497   -1.3412   -0.4673 C.3       1 <0>         0.0000
     10 C10        -0.3629   -1.1724   -1.9337 C.3       1 <0>         0.0000
     11 C11        -2.5656   -2.1265   -1.7841 C.3       1 <0>         0.0000
     12 C12        -1.6070   -1.4627   -2.7883 C.3       1 <0>         0.0000
     13 C13        -5.1324   -1.8563   -7.1818 C.3       1 <0>         0.0000
     14 C14        -1.3463   -2.3172   -4.0093 C.3       1 <0>         0.0000
     15 C15        -3.7113   -2.4155   -7.1999 C.3       1 <0>         0.0000
     16 O1          3.1752   -4.9585   -6.7264 O.2       1 <0>         0.0000
     17 O2         -2.6803   -0.2523   -6.0134 O.2       1 <0>         0.0000
     18 O3         -2.6261   -0.4031   -8.5603 O.2       1 <0>         0.0000
     19 O4          3.1820   -4.1874   -8.8461 O.3       1 <0>         0.0000
     20 O5         -0.4683   -1.5739   -4.8872 O.3       1 <0>         0.0000
     21 S1         -2.5114   -1.0414   -7.2385 S.o2      1 <0>         0.0000
     22 Cl1         1.9715   -3.1027   -4.7326 Cl        1 <0>         0.0000
     23 H1          1.0238   -3.4987   -9.5328 H         1 <0>         0.0000
     24 H2         -1.0766   -2.1777   -9.3642 H         1 <0>         0.0000
     25 H3         -1.0272    0.4027   -0.5842 H         1 <0>         0.0000
     26 H4         -0.2878   -0.9531    0.2530 H         1 <0>         0.0000
     27 H5         -2.4311   -1.9959    0.4054 H         1 <0>         0.0000
     28 H6         -3.1185   -0.5703   -0.3556 H         1 <0>         0.0000
     29 H7          0.3108   -0.4500   -2.4006 H         1 <0>         0.0000
     30 H8          0.2023   -2.1036   -1.7967 H         1 <0>         0.0000
     31 H9         -2.2788   -3.1778   -1.6479 H         1 <0>         0.0000
     32 H10        -3.6080   -2.1143   -2.1188 H         1 <0>         0.0000
     33 H11        -2.0397   -0.5165   -3.1354 H         1 <0>         0.0000
     34 H12        -5.2977   -1.2387   -6.2958 H         1 <0>         0.0000
     35 H13        -5.3261   -1.2520   -8.0712 H         1 <0>         0.0000
     36 H14        -5.8457   -2.6856   -7.1651 H         1 <0>         0.0000
     37 H15        -2.2831   -2.5313   -4.5356 H         1 <0>         0.0000
     38 H16        -0.8642   -3.2656   -3.7382 H         1 <0>         0.0000
     39 H17        -3.5120   -3.0190   -8.0891 H         1 <0>         0.0000
     40 H18        -3.4881   -3.0073   -6.3089 H         1 <0>         0.0000
     41 H19         3.9455   -4.7961   -8.8611 H         1 <0>         0.0000
@<TRIPOS>BOND
     1    1    2 ar
     2    1    3 ar
     3    1   23 1
     4    2    5 ar
     5    2   24 1
     6    3    6 ar
     7    3    7 1
     8    4    5 ar
     9    4    6 ar
    10    4   20 1
    11    5   21 1
    12    6   22 1
    13    7   16 2
    14    7   19 1
    15    8    9 1
    16    8   10 1
    17    8   25 1
    18    8   26 1
    19    9   11 1
    20    9   27 1
    21    9   28 1
    22   10   12 1
    23   10   29 1
    24   10   30 1
    25   11   12 1
    26   11   31 1
    27   11   32 1
    28   12   14 1
    29   12   33 1
    30   13   15 1
    31   13   34 1
    32   13   35 1
    33   13   36 1
    34   14   20 1
    35   14   37 1
    36   14   38 1
    37   15   21 1
    38   15   39 1
    39   15   40 1
    40   17   21 2
    41   18   21 2
    42   19   41 1
