@<TRIPOS>MOLECULE
*****
   41    42     0     0     0
SMALL
NO_CHARGES

@<TRIPOS>ATOM
      1 C1          0.7979   -3.8817   -8.7161 C.ar      1 <0>         0.0000
      2 C2         -0.3141   -3.0475   -8.6872 C.ar      1 <0>         0.0000
      3 C3          1.6260   -4.0286   -7.5901 C.ar      1 <0>         0.0000
      4 C4          0.1581   -2.5172   -6.3521 C.ar      1 <0>         0.0000
      5 C5         -0.6252   -2.3772   -7.5067 C.ar      1 <0>         0.0000
      6 C6          1.3049   -3.3357   -6.4046 C.ar      1 <0>         0.0000
      7 C7          2.8475   -4.8854   -7.7145 C.2       1 <0>         0.0000
      8 C8         -1.2182    0.0065   -1.3530 C.3       1 <0>         0.0000
      9 C9         -2.4141   -0.9524   -1.0701 C.3       1 <0>         0.0000
     10 C10        -0.4360   -0.6314   -2.5224 C.3       1 <0>         0.0000
     11 C11        -2.3123   -2.0815   -2.1240 C.3       1 <0>         0.0000
     12 C12        -1.4904   -1.4640   -3.2696 C.3       1 <0>         0.0000
     13 C13        -2.6247    1.3161   -7.0288 C.3       1 <0>         0.0000
     14 C14        -0.9296   -2.5045   -4.2134 C.3       1 <0>         0.0000
     15 C15        -1.4646    0.3282   -7.1380 C.3       1 <0>         0.0000
     16 O1          3.8430   -4.8281   -7.0230 O.2       1 <0>         0.0000
     17 O2         -2.6380   -1.3426   -8.8634 O.2       1 <0>         0.0000
     18 O3         -2.9732   -1.7521   -6.3717 O.2       1 <0>         0.0000
     19 O4          2.7388   -5.7675   -8.7488 O.3       1 <0>         0.0000
     20 O5         -0.1556   -1.8014   -5.2376 O.3       1 <0>         0.0000
     21 S1         -2.1089   -1.3341   -7.4887 S.o2      1 <0>         0.0000
     22 Cl1         2.2614   -3.4490   -4.9551 Cl        1 <0>         0.0000
     23 H1          1.0483   -4.4215   -9.6213 H         1 <0>         0.0000
     24 H2         -0.9470   -2.9116   -9.5581 H         1 <0>         0.0000
     25 H3         -1.5876    0.9961   -1.6416 H         1 <0>         0.0000
     26 H4         -0.5845    0.1520   -0.4732 H         1 <0>         0.0000
     27 H5         -2.3906   -1.3528   -0.0524 H         1 <0>         0.0000
     28 H6         -3.3639   -0.4192   -1.1765 H         1 <0>         0.0000
     29 H7          0.0584    0.1054   -3.1616 H         1 <0>         0.0000
     30 H8          0.3444   -1.3026   -2.1410 H         1 <0>         0.0000
     31 H9         -1.7668   -2.9386   -1.7079 H         1 <0>         0.0000
     32 H10        -3.2894   -2.4461   -2.4544 H         1 <0>         0.0000
     33 H11        -2.1396   -0.7986   -3.8527 H         1 <0>         0.0000
     34 H12        -3.1942    1.3640   -7.9601 H         1 <0>         0.0000
     35 H13        -3.3011    1.0349   -6.2179 H         1 <0>         0.0000
     36 H14        -2.2257    2.3122   -6.8160 H         1 <0>         0.0000
     37 H15        -1.7310   -3.0579   -4.7088 H         1 <0>         0.0000
     38 H16        -0.2616   -3.1975   -3.6905 H         1 <0>         0.0000
     39 H17        -0.8967    0.2424   -6.2104 H         1 <0>         0.0000
     40 H18        -0.7919    0.5648   -7.9665 H         1 <0>         0.0000
     41 H19         3.5857   -6.2530   -8.7710 H         1 <0>         0.0000
@<TRIPOS>BOND
     1    1    2 ar
     2    1    3 ar
     3    1   23 1
     4    2    5 ar
     5    2   24 1
     6    3    6 ar
     7    3    7 1
     8    4    5 ar
     9    4    6 ar
    10    4   20 1
    11    5   21 1
    12    6   22 1
    13    7   16 2
    14    7   19 1
    15    8    9 1
    16    8   10 1
    17    8   25 1
    18    8   26 1
    19    9   11 1
    20    9   27 1
    21    9   28 1
    22   10   12 1
    23   10   29 1
    24   10   30 1
    25   11   12 1
    26   11   31 1
    27   11   32 1
    28   12   14 1
    29   12   33 1
    30   13   15 1
    31   13   34 1
    32   13   35 1
    33   13   36 1
    34   14   20 1
    35   14   37 1
    36   14   38 1
    37   15   21 1
    38   15   39 1
    39   15   40 1
    40   17   21 2
    41   18   21 2
    42   19   41 1
