@<TRIPOS>MOLECULE
*****
   53    57     0     0     0
SMALL
NO_CHARGES

@<TRIPOS>ATOM
      1 C1          0.1247   -1.3401    0.1205 C.ar      1 <0>         0.0000
      2 C2         -0.7976   -2.3014    0.5535 C.ar      1 <0>         0.0000
      3 C3        -10.3281   -4.8854   -6.2427 C.ar      1 <0>         0.0000
      4 C4         -8.2749   -3.9654   -7.1332 C.ar      1 <0>         0.0000
      5 C5          0.2189   -1.0343   -1.2365 C.ar      1 <0>         0.0000
      6 C6         -1.6121   -2.9364   -0.3824 C.ar      1 <0>         0.0000
      7 C7        -10.8414   -5.0021   -7.5348 C.ar      1 <0>         0.0000
      8 C8         -8.7782   -4.0769   -8.4275 C.ar      1 <0>         0.0000
      9 C9         -9.0403   -4.3706   -6.0260 C.ar      1 <0>         0.0000
     10 C10        -0.5955   -1.6692   -2.1889 C.ar      1 <0>         0.0000
     11 C11        -1.5212   -2.6322   -1.7502 C.ar      1 <0>         0.0000
     12 C12       -10.0602   -4.5993   -8.6191 C.ar      1 <0>         0.0000
     13 C13        -8.4768   -4.2080   -4.6808 C.2       1 <0>         0.0000
     14 C14        -8.0059   -4.5150   -2.4923 C.2       1 <0>         0.0000
     15 C15        -4.9434   -3.4660   -2.8296 C.2       1 <0>         0.0000
     16 C16        -0.4334   -1.3317   -3.6595 C.3       1 <0>         0.0000
     17 C17        -1.6306   -1.7639   -4.5117 C.3       1 <0>         0.0000
     18 C18        -2.0186   -3.2052   -4.1793 C.3       1 <0>         0.0000
     19 C19        -8.6610   -7.4801   -3.0397 C.3       1 <0>         0.0000
     20 C20        -9.0304   -7.3679   -4.4981 C.3       1 <0>         0.0000
     21 C21        -2.4659   -3.3273   -2.7165 C.3       1 <0>         0.0000
     22 C22        -9.4299   -6.2770   -3.5280 C.3       1 <0>         0.0000
     23 C23        -6.2542   -2.7572   -2.4347 C.3       1 <0>         0.0000
     24 N1         -7.6483   -3.2429   -4.3768 N.2       1 <0>         0.0000
     25 N2         -8.7439   -5.0155   -3.5790 N.am      1 <0>         0.0000
     26 N3         -7.3900   -3.3985   -3.0307 N.am      1 <0>         0.0000
     27 N4         -3.8165   -2.7670   -2.5242 N.am      1 <0>         0.0000
     28 O1         -7.9364   -4.9479   -1.3492 O.2       1 <0>         0.0000
     29 O2         -4.9346   -4.5762   -3.3535 O.2       1 <0>         0.0000
     30 Cl1       -10.6968   -4.7523  -10.2474 Cl        1 <0>         0.0000
     31 H1          0.7653   -0.8338    0.8381 H         1 <0>         0.0000
     32 H2         -0.8771   -2.5519    1.6081 H         1 <0>         0.0000
     33 H3        -10.9468   -5.1840   -5.4039 H         1 <0>         0.0000
     34 H4         -7.2790   -3.5675   -6.9674 H         1 <0>         0.0000
     35 H5          0.9362   -0.2870   -1.5707 H         1 <0>         0.0000
     36 H6         -2.3329   -3.6838   -0.0565 H         1 <0>         0.0000
     37 H7        -11.8394   -5.3959   -7.6988 H         1 <0>         0.0000
     38 H8         -8.1823   -3.7696   -9.2810 H         1 <0>         0.0000
     39 H9         -0.2455   -0.2579   -3.7702 H         1 <0>         0.0000
     40 H10         0.4683   -1.8381   -4.0314 H         1 <0>         0.0000
     41 H11        -2.4863   -1.1035   -4.3221 H         1 <0>         0.0000
     42 H12        -1.3868   -1.6658   -5.5747 H         1 <0>         0.0000
     43 H13        -2.8242   -3.5687   -4.8219 H         1 <0>         0.0000
     44 H14        -1.1556   -3.8655   -4.3350 H         1 <0>         0.0000
     45 H15        -9.1981   -8.1822   -2.4105 H         1 <0>         0.0000
     46 H16        -7.6264   -7.3152   -2.7614 H         1 <0>         0.0000
     47 H17        -8.2390   -7.1347   -5.2028 H         1 <0>         0.0000
     48 H18        -9.8247   -7.9918   -4.8965 H         1 <0>         0.0000
     49 H19        -2.5390   -4.3883   -2.4597 H         1 <0>         0.0000
     50 H20       -10.4761   -6.2077   -3.2414 H         1 <0>         0.0000
     51 H21        -6.3755   -2.8141   -1.3492 H         1 <0>         0.0000
     52 H22        -6.2379   -1.7055   -2.7340 H         1 <0>         0.0000
     53 H23        -3.8972   -1.8752   -2.0524 H         1 <0>         0.0000
@<TRIPOS>BOND
     1    1    2 ar
     2    1    5 ar
     3    1   31 1
     4    2    6 ar
     5    2   32 1
     6    3    7 ar
     7    3    9 ar
     8    3   33 1
     9    4    8 ar
    10    4    9 ar
    11    4   34 1
    12    5   10 ar
    13    5   35 1
    14    6   11 ar
    15    6   36 1
    16    7   12 ar
    17    7   37 1
    18    8   12 ar
    19    8   38 1
    20    9   13 1
    21   10   11 ar
    22   10   16 1
    23   11   21 1
    24   12   30 1
    25   13   24 2
    26   13   25 1
    27   14   25 am
    28   14   26 am
    29   14   28 2
    30   15   23 1
    31   15   27 am
    32   15   29 2
    33   16   17 1
    34   16   39 1
    35   16   40 1
    36   17   18 1
    37   17   41 1
    38   17   42 1
    39   18   21 1
    40   18   43 1
    41   18   44 1
    42   19   20 1
    43   19   22 1
    44   19   45 1
    45   19   46 1
    46   20   22 1
    47   20   47 1
    48   20   48 1
    49   21   27 1
    50   21   49 1
    51   22   25 1
    52   22   50 1
    53   23   26 1
    54   23   51 1
    55   23   52 1
    56   24   26 1
    57   27   53 1
