@<TRIPOS>MOLECULE
*****
   21    21     0     0     0
SMALL
NO_CHARGES

@<TRIPOS>ATOM
      1 C1          4.4210    0.4800    2.1410 C.2       1 <0>         0.0000
      2 C2          5.2050    1.5740    1.9960 C.2       1 <0>         0.0000
      3 C3          4.8540    0.6050    0.0810 C.2       1 <0>         0.0000
      4 C4          4.3680   -0.4910   -2.0990 C.2       1 <0>         0.0000
      5 C5          2.0540   -0.0080   -1.2270 C.3       1 <0>         0.0000
      6 C6          2.5230   -2.0190   -2.6440 C.3       1 <0>         0.0000
      7 N1          4.2010   -0.1280    0.9380 N.2       1 <0>         0.0000
      8 N2          5.4810    1.6480    0.6760 N.pl3     1 <0>         0.0000
      9 N3          4.9870    0.4310   -1.3060 N.am      1 <0>         0.0000
     10 N4          3.0450   -0.8510   -1.9210 N.am      1 <0>         0.0000
     11 O1          5.0320   -0.9470   -3.0230 O.2       1 <0>         0.0000
     12 H1          4.0230    0.1290    3.0610 H         1 <0>         0.0000
     13 H2          5.5670    2.2680    2.7090 H         1 <0>         0.0000
     14 H3          1.1600    0.0240   -1.8350 H         1 <0>         0.0000
     15 H4          2.4570    0.9870   -1.1040 H         1 <0>         0.0000
     16 H5          1.8550   -0.4690   -0.2680 H         1 <0>         0.0000
     17 H6          1.6770   -2.4070   -2.0920 H         1 <0>         0.0000
     18 H7          3.3100   -2.7610   -2.6970 H         1 <0>         0.0000
     19 H8          2.2360   -1.6880   -3.6330 H         1 <0>         0.0000
     20 H9          6.0510    2.3580    0.1930 H         1 <0>         0.0000
     21 H10         5.8250    0.7990   -1.7600 H         1 <0>         0.0000
@<TRIPOS>BOND
     1    1    2 2
     2    1    7 1
     3    1   12 1
     4    2    8 1
     5    2   13 1
     6    3    7 2
     7    3    8 1
     8    3    9 1
     9    4    9 am
    10    4   10 am
    11    4   11 2
    12    5   10 1
    13    5   14 1
    14    5   15 1
    15    5   16 1
    16    6   10 1
    17    6   17 1
    18    6   18 1
    19    6   19 1
    20    8   20 1
    21    9   21 1
