@<TRIPOS>MOLECULE
*****
   63    67     0     0     0
SMALL
NO_CHARGES

@<TRIPOS>ATOM
      1 C1         -0.9871    4.3332   -0.5049 C.ar      1 <0>         0.0000
      2 C2         -0.7947    5.9506    1.2711 C.ar      1 <0>         0.0000
      3 C3         -2.2590    4.8135   -0.8218 C.ar      1 <0>         0.0000
      4 C4         -2.0636    6.4378    0.9651 C.ar      1 <0>         0.0000
      5 C5          2.6021    5.4318    4.2015 C.ar      1 <0>         0.0000
      6 C6          1.2619    3.2689    3.0564 C.ar      1 <0>         0.0000
      7 C7          1.6584    3.1967    4.4165 C.ar      1 <0>         0.0000
      8 C8         -0.2363    4.8970    0.5345 C.ar      1 <0>         0.0000
      9 C9         -2.7964    5.8707   -0.0850 C.ar      1 <0>         0.0000
     10 C10         2.2276    5.5105    2.8600 C.ar      1 <0>         0.0000
     11 C11         1.5764    4.3947    2.2709 C.ar      1 <0>         0.0000
     12 C12         2.3320    4.3057    4.9739 C.ar      1 <0>         0.0000
     13 C13        -0.8385    2.1286    2.2812 C.2       1 <0>         0.0000
     14 C14         0.4916    2.1599    2.4320 C.2       1 <0>         0.0000
     15 C15         1.4456    1.9999    5.2648 C.2       1 <0>         0.0000
     16 C16        -1.3065    0.8529    1.6220 C.3       1 <0>         0.0000
     17 C17         1.1459    0.9139    1.8573 C.3       1 <0>         0.0000
     18 C18         2.0848    2.0744    6.6446 C.3       1 <0>         0.0000
     19 C19         0.0033    0.2636    1.0382 C.3       1 <0>         0.0000
     20 C20         1.0664    3.6786    9.1062 C.3       1 <0>         0.0000
     21 C21         2.5502    3.6519    8.6385 C.3       1 <0>         0.0000
     22 C22         0.6431    3.9730    7.6388 C.3       1 <0>         0.0000
     23 C23         2.0532    3.4900    7.1897 C.3       1 <0>         0.0000
     24 C24         4.0321    6.8616    1.7419 C.3       1 <0>         0.0000
     25 C25         2.1305    8.0593    2.9199 C.3       1 <0>         0.0000
     26 C26         1.1561    4.3394    0.8077 C.3       1 <0>         0.0000
     27 C27         2.5396    6.8091    2.1195 C.3       1 <0>         0.0000
     28 C28        -4.1709    6.4054   -0.3817 C.3       1 <0>         0.0000
     29 O1          0.8466    0.9887    4.9134 O.2       1 <0>         0.0000
     30 O2          2.7421    4.3616    6.2762 O.3       1 <0>         0.0000
     31 O3          2.1483    4.9815   -0.0194 O.3       1 <0>         0.0000
     32 F1         -4.7481    5.7959   -1.4441 F         1 <0>         0.0000
     33 F2         -5.0135    6.2456    0.6744 F         1 <0>         0.0000
     34 F3         -4.1467    7.7381   -0.6508 F         1 <0>         0.0000
     35 H1         -0.5843    3.4870   -1.0579 H         1 <0>         0.0000
     36 H2         -0.2485    6.3771    2.1048 H         1 <0>         0.0000
     37 H3         -2.8319    4.3627   -1.6254 H         1 <0>         0.0000
     38 H4         -2.4885    7.2521    1.5455 H         1 <0>         0.0000
     39 H5          3.0997    6.2626    4.6900 H         1 <0>         0.0000
     40 H6         -1.5174    2.8967    2.6421 H         1 <0>         0.0000
     41 H7         -1.7522    0.1832    2.3709 H         1 <0>         0.0000
     42 H8         -2.0712    1.0246    0.8551 H         1 <0>         0.0000
     43 H9          2.0263    1.1483    1.2463 H         1 <0>         0.0000
     44 H10         1.4821    0.2696    2.6764 H         1 <0>         0.0000
     45 H11         1.5697    1.3728    7.3048 H         1 <0>         0.0000
     46 H12         3.1295    1.7471    6.5532 H         1 <0>         0.0000
     47 H13         0.0295   -0.8290    1.0750 H         1 <0>         0.0000
     48 H14         0.0944    0.5571   -0.0139 H         1 <0>         0.0000
     49 H15         0.8001    4.4273    9.8554 H         1 <0>         0.0000
     50 H16         0.7202    2.7004    9.4501 H         1 <0>         0.0000
     51 H17         3.0364    4.6231    8.7627 H         1 <0>         0.0000
     52 H18         3.2042    2.8663    9.0275 H         1 <0>         0.0000
     53 H19        -0.2225    3.4403    7.2360 H         1 <0>         0.0000
     54 H20         0.5298    5.0438    7.4512 H         1 <0>         0.0000
     55 H21         4.6645    6.8523    2.6369 H         1 <0>         0.0000
     56 H22         4.2506    7.7783    1.1825 H         1 <0>         0.0000
     57 H23         4.2994    6.0054    1.1184 H         1 <0>         0.0000
     58 H24         2.7494    8.2085    3.8101 H         1 <0>         0.0000
     59 H25         1.0859    8.0086    3.2462 H         1 <0>         0.0000
     60 H26         2.2444    8.9497    2.2923 H         1 <0>         0.0000
     61 H27         1.1220    3.2856    0.5221 H         1 <0>         0.0000
     62 H28         1.9769    6.8193    1.1889 H         1 <0>         0.0000
     63 H29         1.8040    4.9902   -0.9271 H         1 <0>         0.0000
@<TRIPOS>BOND
     1    1    3 ar
     2    1    8 ar
     3    1   35 1
     4    2    4 ar
     5    2    8 ar
     6    2   36 1
     7    3    9 ar
     8    3   37 1
     9    4    9 ar
    10    4   38 1
    11    5   10 ar
    12    5   12 ar
    13    5   39 1
    14    6    7 ar
    15    6   11 ar
    16    6   14 1
    17    7   12 ar
    18    7   15 1
    19    8   26 1
    20    9   28 1
    21   10   11 ar
    22   10   27 1
    23   11   26 1
    24   12   30 1
    25   13   14 2
    26   13   16 1
    27   13   40 1
    28   14   17 1
    29   15   18 1
    30   15   29 2
    31   16   19 1
    32   16   41 1
    33   16   42 1
    34   17   19 1
    35   17   43 1
    36   17   44 1
    37   18   23 1
    38   18   45 1
    39   18   46 1
    40   19   47 1
    41   19   48 1
    42   20   22 1
    43   20   21 1
    44   20   49 1
    45   20   50 1
    46   21   23 1
    47   21   51 1
    48   21   52 1
    49   22   23 1
    50   22   53 1
    51   22   54 1
    52   23   30 1
    53   24   27 1
    54   24   55 1
    55   24   56 1
    56   24   57 1
    57   25   27 1
    58   25   58 1
    59   25   59 1
    60   25   60 1
    61   26   31 1
    62   26   61 1
    63   27   62 1
    64   28   32 1
    65   28   33 1
    66   28   34 1
    67   31   63 1
