@<TRIPOS>MOLECULE
*****
   51    55     0     0     0
SMALL
NO_CHARGES

@<TRIPOS>ATOM
      1 C1          3.5802   -8.9970    2.6256 C.ar      1 <0>         0.0000
      2 C2          2.4761   -9.8419    2.6599 C.ar      1 <0>         0.0000
      3 C3          4.2020   -6.4775    2.1827 C.2       1 <0>         0.0000
      4 C4          0.9423   -8.0422    2.0589 C.ar      1 <0>         0.0000
      5 C5          3.3689   -7.6436    2.3072 C.ar      1 <0>         0.0000
      6 C6          1.1646   -9.3869    2.3799 C.ar      1 <0>         0.0000
      7 C7          2.0533   -7.2120    2.0369 C.ar      1 <0>         0.0000
      8 C8          3.3708   -5.4445    1.8589 C.2       1 <0>         0.0000
      9 C9          3.6493   -4.0241    1.6396 C.2       1 <0>         0.0000
     10 C10        -1.1027   -9.9821    3.4360 C.2       1 <0>         0.0000
     11 C11        -3.5189  -10.6558    4.0419 C.3       1 <0>         0.0000
     12 C12        -2.6431  -11.1305    5.1515 C.3       1 <0>         0.0000
     13 C13         3.6732    0.1660    0.1123 C.3       1 <0>         0.0000
     14 C14         2.3443   -1.5256   -1.1928 C.3       1 <0>         0.0000
     15 C15         2.4015    0.9322    0.5379 C.3       1 <0>         0.0000
     16 C16         1.1372   -0.5854   -0.9874 C.3       1 <0>         0.0000
     17 C17         1.3157   -1.1235    1.4386 C.3       1 <0>         0.0000
     18 C18        -2.0790  -11.0641    3.7285 C.3       1 <0>         0.0000
     19 C19         3.3354   -1.3263   -0.0373 C.3       1 <0>         0.0000
     20 C20         2.6914   -1.8099    1.2830 C.3       1 <0>         0.0000
     21 C21         0.0107  -10.3535    2.4458 C.3       1 <0>         0.0000
     22 N1          2.5379   -3.2499    1.3410 N.am      1 <0>         0.0000
     23 N2          1.2132   -0.0093    0.4184 N.4       1 <0>         0.0000
     24 O1          4.7768   -3.5332    1.7034 O.2       1 <0>         0.0000
     25 O2         -1.1965   -8.8655    3.9284 O.2       1 <0>         0.0000
     26 O3          2.0466   -5.8606    1.7606 O.3       1 <0>         0.0000
     27 H1          4.5756   -9.3729    2.8429 H         1 <0>         0.0000
     28 H2          2.6209  -10.8892    2.9115 H         1 <0>         0.0000
     29 H3          5.2722   -6.3954    2.3188 H         1 <0>         0.0000
     30 H4         -0.0546   -7.6635    1.8641 H         1 <0>         0.0000
     31 H5         -4.2994  -11.3129    3.6717 H         1 <0>         0.0000
     32 H6         -3.7254   -9.5919    3.9866 H         1 <0>         0.0000
     33 H7         -2.2579  -10.3871    5.8417 H         1 <0>         0.0000
     34 H8         -2.8039  -12.1222    5.5618 H         1 <0>         0.0000
     35 H9          4.0545    0.5608   -0.8325 H         1 <0>         0.0000
     36 H10         4.4546    0.3056    0.8626 H         1 <0>         0.0000
     37 H11         2.0185   -2.5677   -1.2225 H         1 <0>         0.0000
     38 H12         2.8199   -1.3051   -2.1509 H         1 <0>         0.0000
     39 H13         2.4301    1.2630    1.5779 H         1 <0>         0.0000
     40 H14         2.1857    1.7948   -0.0947 H         1 <0>         0.0000
     41 H15         1.1381    0.2680   -1.6680 H         1 <0>         0.0000
     42 H16         0.1750   -1.0942   -1.0711 H         1 <0>         0.0000
     43 H17         0.4829   -1.8015    1.2377 H         1 <0>         0.0000
     44 H18         1.1739   -0.6809    2.4259 H         1 <0>         0.0000
     45 H19        -1.9298  -12.0081    3.2130 H         1 <0>         0.0000
     46 H20         4.2451   -1.9028   -0.2028 H         1 <0>         0.0000
     47 H21         3.3509   -1.5029    2.1016 H         1 <0>         0.0000
     48 H22        -0.4807  -10.4412    1.4657 H         1 <0>         0.0000
     49 H23         0.3648  -11.3612    2.6845 H         1 <0>         0.0000
     50 H24         1.6273   -3.6806    1.4490 H         1 <0>         0.0000
     51 H25         0.3576    0.5211    0.6019 H         1 <0>         0.0000
@<TRIPOS>BOND
     1    1    2 ar
     2    1    5 ar
     3    1   27 1
     4    2    6 ar
     5    2   28 1
     6    3    5 1
     7    3    8 2
     8    3   29 1
     9    4    6 ar
    10    4    7 ar
    11    4   30 1
    12    5    7 ar
    13    6   21 1
    14    7   26 1
    15    8    9 1
    16    8   26 1
    17    9   22 am
    18    9   24 2
    19   10   18 1
    20   10   21 1
    21   10   25 2
    22   11   12 1
    23   11   18 1
    24   11   31 1
    25   11   32 1
    26   12   18 1
    27   12   33 1
    28   12   34 1
    29   13   15 1
    30   13   19 1
    31   13   35 1
    32   13   36 1
    33   14   16 1
    34   14   19 1
    35   14   37 1
    36   14   38 1
    37   15   23 1
    38   15   39 1
    39   15   40 1
    40   16   23 1
    41   16   41 1
    42   16   42 1
    43   17   20 1
    44   17   23 1
    45   17   43 1
    46   17   44 1
    47   18   45 1
    48   19   20 1
    49   19   46 1
    50   20   22 1
    51   20   47 1
    52   21   48 1
    53   21   49 1
    54   22   50 1
    55   23   51 1
