@<TRIPOS>MOLECULE
*****
   36    38     0     0     0
SMALL
NO_CHARGES

@<TRIPOS>ATOM
      1 C1         -0.1824   -2.9343    1.1153 C.ar      1 <0>         0.0000
      2 C2          0.0411   -3.9779    0.2201 C.ar      1 <0>         0.0000
      3 C3          2.4230   -3.5327    0.3683 C.ar      1 <0>         0.0000
      4 C4          2.4900   -3.7491    5.0372 C.2       1 <0>         0.0000
      5 C5          0.5097   -4.1286    4.4408 C.2       1 <0>         0.0000
      6 C6          0.8536   -2.1579    1.6626 C.ar      1 <0>         0.0000
      7 C7          1.3556   -4.2560   -0.1420 C.ar      1 <0>         0.0000
      8 C8          2.1504   -2.5018    1.2687 C.ar      1 <0>         0.0000
      9 C9         -1.2440    0.9218    2.8698 C.3       1 <0>         0.0000
     10 C10        -1.9659   -0.1263    2.0581 C.3       1 <0>         0.0000
     11 C11        -0.4536   -0.0257    1.9920 C.3       1 <0>         0.0000
     12 C12        -0.3172   -0.2785   -0.8543 C.3       1 <0>         0.0000
     13 C13        -0.1377   -1.7298    3.9142 C.3       1 <0>         0.0000
     14 C14         0.4929   -1.0444    2.6612 C.3       1 <0>         0.0000
     15 N1          1.6015   -4.7651    4.8458 N.2       1 <0>         0.0000
     16 N2          2.0106   -2.5350    4.7837 N.2       1 <0>         0.0000
     17 N3          0.7235   -2.7935    4.4082 N.pl3     1 <0>         0.0000
     18 O1          1.5935   -0.2682    3.0941 O.3       1 <0>         0.0000
     19 F1          1.6042   -5.2605   -1.0152 F         1 <0>         0.0000
     20 F2          3.2298   -1.8514    1.7560 F         1 <0>         0.0000
     21 S1          0.2467    0.7807    0.5248 S.3       1 <0>         0.0000
     22 H1         -1.2080   -2.6954    1.3762 H         1 <0>         0.0000
     23 H2         -0.7752   -4.5581   -0.1976 H         1 <0>         0.0000
     24 H3          3.4463   -3.7603    0.0899 H         1 <0>         0.0000
     25 H4          3.5085   -3.8987    5.3708 H         1 <0>         0.0000
     26 H5         -0.4345   -4.5814    4.1673 H         1 <0>         0.0000
     27 H6         -1.3092    1.9548    2.5476 H         1 <0>         0.0000
     28 H7         -1.1834    0.7912    3.9449 H         1 <0>         0.0000
     29 H8         -2.4232   -0.9560    2.5893 H         1 <0>         0.0000
     30 H9         -2.5222    0.1966    1.1840 H         1 <0>         0.0000
     31 H10        -0.2023    0.3228   -1.7604 H         1 <0>         0.0000
     32 H11        -1.3725   -0.5419   -0.7444 H         1 <0>         0.0000
     33 H12         0.2796   -1.1861   -0.9498 H         1 <0>         0.0000
     34 H13        -0.2603   -0.9865    4.7034 H         1 <0>         0.0000
     35 H14        -1.1025   -2.1890    3.6984 H         1 <0>         0.0000
     36 H15         2.1944   -0.8421    3.6091 H         1 <0>         0.0000
@<TRIPOS>BOND
     1    1    2 ar
     2    1    6 ar
     3    1   22 1
     4    2    7 ar
     5    2   23 1
     6    3    7 ar
     7    3    8 ar
     8    3   24 1
     9    4   15 1
    10    4   16 2
    11    4   25 1
    12    5   15 2
    13    5   17 1
    14    5   26 1
    15    6    8 ar
    16    6   14 1
    17    7   19 1
    18    8   20 1
    19    9   10 1
    20    9   11 1
    21    9   27 1
    22    9   28 1
    23   10   11 1
    24   10   29 1
    25   10   30 1
    26   11   14 1
    27   11   21 1
    28   12   21 1
    29   12   31 1
    30   12   32 1
    31   12   33 1
    32   13   14 1
    33   13   17 1
    34   13   34 1
    35   13   35 1
    36   14   18 1
    37   16   17 1
    38   18   36 1
