@<TRIPOS>MOLECULE
*****
   47    49     0     0     0
SMALL
NO_CHARGES

@<TRIPOS>ATOM
      1 C1          2.5024    2.6258   -3.5867 C.ar      1 <0>         0.0000
      2 C2          2.0311    1.9820   -2.4436 C.ar      1 <0>         0.0000
      3 C3         -0.0532    1.3793   -3.5828 C.ar      1 <0>         0.0000
      4 C4          1.6753    2.6456   -4.7096 C.ar      1 <0>         0.0000
      5 C5          0.4245    2.0367   -4.7108 C.ar      1 <0>         0.0000
      6 C6          0.7652    1.3726   -2.4480 C.ar      1 <0>         0.0000
      7 C7          1.9056    3.2594   -6.0385 C.2       1 <0>         0.0000
      8 C8          1.0488   -0.2808   -0.6217 C.2       1 <0>         0.0000
      9 C9         -0.8869    1.0004   -0.5741 C.2       1 <0>         0.0000
     10 C10        -0.1930    2.2512   -6.0666 C.3       1 <0>         0.0000
     11 C11         0.2238   -0.7264    0.5865 C.3       1 <0>         0.0000
     12 C12         1.0343   -0.5203    1.8738 C.3       1 <0>         0.0000
     13 C13        -0.1754   -2.2000    0.4023 C.3       1 <0>         0.0000
     14 C14        -3.1211    1.3658    3.4293 C.3       1 <0>         0.0000
     15 C15        -1.8934    1.3048    2.5152 C.3       1 <0>         0.0000
     16 C16        -3.0019    2.4536    4.5023 C.3       1 <0>         0.0000
     17 C17        -2.0234    0.1914    1.4691 C.3       1 <0>         0.0000
     18 C18        -4.2378    2.5408    5.3864 C.3       1 <0>         0.0000
     19 N1          0.3184    0.7149   -1.2626 N.am      1 <0>         0.0000
     20 N2         -0.9348    0.1728    0.4960 N.pl3     1 <0>         0.0000
     21 O1          2.8563    3.8797   -6.4532 O.2       1 <0>         0.0000
     22 O2          2.1305   -0.7225   -0.9589 O.2       1 <0>         0.0000
     23 O3          0.7884    3.0061   -6.8092 O.3       1 <0>         0.0000
     24 O4         -4.0132    3.5634    6.3637 O.3       1 <0>         0.0000
     25 S1         -2.0061    2.1469   -1.0115 S.2       1 <0>         0.0000
     26 H1          3.4769    3.1043   -3.6077 H         1 <0>         0.0000
     27 H2          2.6357    1.9403   -1.5443 H         1 <0>         0.0000
     28 H3         -1.0253    0.8996   -3.5595 H         1 <0>         0.0000
     29 H4         -0.3860    1.3171   -6.6041 H         1 <0>         0.0000
     30 H5         -1.1175    2.8360   -6.0244 H         1 <0>         0.0000
     31 H6          0.4637   -0.8555    2.7445 H         1 <0>         0.0000
     32 H7          1.2948    0.5327    2.0099 H         1 <0>         0.0000
     33 H8          1.9559   -1.1047    1.8143 H         1 <0>         0.0000
     34 H9         -0.7469   -2.5566    1.2640 H         1 <0>         0.0000
     35 H10         0.7269   -2.8092    0.3084 H         1 <0>         0.0000
     36 H11        -0.7824   -2.3295   -0.4981 H         1 <0>         0.0000
     37 H12        -4.0134    1.5492    2.8160 H         1 <0>         0.0000
     38 H13        -3.2720    0.3895    3.9116 H         1 <0>         0.0000
     39 H14        -0.9896    1.1465    3.1143 H         1 <0>         0.0000
     40 H15        -1.7733    2.2592    1.9937 H         1 <0>         0.0000
     41 H16        -2.1304    2.2610    5.1397 H         1 <0>         0.0000
     42 H17        -2.8399    3.4298    4.0303 H         1 <0>         0.0000
     43 H18        -2.0496   -0.7890    1.9535 H         1 <0>         0.0000
     44 H19        -2.9587    0.3126    0.9155 H         1 <0>         0.0000
     45 H20        -4.4189    1.5706    5.8750 H         1 <0>         0.0000
     46 H21        -5.1204    2.7766    4.7721 H         1 <0>         0.0000
     47 H22        -4.8090    3.6418    6.9117 H         1 <0>         0.0000
@<TRIPOS>BOND
     1    1    2 ar
     2    1    4 ar
     3    1   26 1
     4    2    6 ar
     5    2   27 1
     6    3    5 ar
     7    3    6 ar
     8    3   28 1
     9    4    5 ar
    10    4    7 1
    11    5   10 1
    12    6   19 1
    13    7   21 2
    14    7   23 1
    15    8   11 1
    16    8   19 am
    17    8   22 2
    18    9   19 1
    19    9   20 1
    20    9   25 2
    21   10   23 1
    22   10   29 1
    23   10   30 1
    24   11   12 1
    25   11   13 1
    26   11   20 1
    27   12   31 1
    28   12   32 1
    29   12   33 1
    30   13   34 1
    31   13   35 1
    32   13   36 1
    33   14   15 1
    34   14   16 1
    35   14   37 1
    36   14   38 1
    37   15   17 1
    38   15   39 1
    39   15   40 1
    40   16   18 1
    41   16   41 1
    42   16   42 1
    43   17   20 1
    44   17   43 1
    45   17   44 1
    46   18   24 1
    47   18   45 1
    48   18   46 1
    49   24   47 1
