@<TRIPOS>MOLECULE
*****
   26    28     0     0     0
SMALL
NO_CHARGES

@<TRIPOS>ATOM
      1 C1         -4.0902    4.2376   -1.4936 C.ar      1 <0>         0.0000
      2 C2         -2.7151    4.3237   -1.3301 C.ar      1 <0>         0.0000
      3 C3         -1.9323    0.8440   -0.4461 C.ar      1 <0>         0.0000
      4 C4         -0.5469    0.8976   -0.2738 C.ar      1 <0>         0.0000
      5 C5         -0.5812    3.2417   -0.8037 C.ar      1 <0>         0.0000
      6 C6         -4.6804    3.0058   -1.2959 C.ar      1 <0>         0.0000
      7 C7         -1.1389    2.3736    2.8519 C.2       1 <0>         0.0000
      8 C8         -1.0856    3.7030    2.5050 C.2       1 <0>         0.0000
      9 C9         -1.9747    3.1875   -0.9770 C.ar      1 <0>         0.0000
     10 C10        -2.6683    1.9725   -0.7968 C.ar      1 <0>         0.0000
     11 C11         0.1298    2.0977   -0.4527 C.ar      1 <0>         0.0000
     12 C12         0.6082    2.5793    1.6536 C.2       1 <0>         0.0000
     13 N1         -4.0027    1.8858   -0.9548 N.ar      1 <0>         0.0000
     14 N2         -0.0815    1.6796    2.3190 N.2       1 <0>         0.0000
     15 N3          1.5163    2.1555   -0.2823 N.2       1 <0>         0.0000
     16 N4          1.7911    2.4282    0.9100 N.2       1 <0>         0.0000
     17 N5          0.0392    3.8196    1.7379 N.pl3     1 <0>         0.0000
     18 H1         -4.6779    5.1062   -1.7663 H         1 <0>         0.0000
     19 H2         -2.2239    5.2828   -1.4802 H         1 <0>         0.0000
     20 H3         -2.4393   -0.1080   -0.2998 H         1 <0>         0.0000
     21 H4         -0.0082   -0.0056    0.0009 H         1 <0>         0.0000
     22 H5         -0.0497    4.1812   -0.9442 H         1 <0>         0.0000
     23 H6         -5.7520    2.8782   -1.4093 H         1 <0>         0.0000
     24 H7         -1.8848    1.8809    3.4583 H         1 <0>         0.0000
     25 H8         -1.7217    4.5479    2.7255 H         1 <0>         0.0000
     26 H9          0.3875    4.6670    1.3099 H         1 <0>         0.0000
@<TRIPOS>BOND
     1    1    2 ar
     2    1    6 ar
     3    1   18 1
     4    2    9 ar
     5    2   19 1
     6    3    4 ar
     7    3   10 ar
     8    3   20 1
     9    4   11 ar
    10    4   21 1
    11    5    9 ar
    12    5   11 ar
    13    5   22 1
    14    6   13 ar
    15    6   23 1
    16    7    8 2
    17    7   14 1
    18    7   24 1
    19    8   17 1
    20    8   25 1
    21    9   10 ar
    22   10   13 ar
    23   11   15 1
    24   12   14 2
    25   12   16 1
    26   12   17 1
    27   15   16 2
    28   17   26 1
