@<TRIPOS>MOLECULE
*****
   31    32     0     0     0
SMALL
NO_CHARGES

@<TRIPOS>ATOM
      1 C1          3.3862   -5.7466    4.9248 C.ar      1 <0>         0.0000
      2 C2          2.4964   -5.0898    4.0901 C.ar      1 <0>         0.0000
      3 C3          3.1712   -5.6679    6.2963 C.ar      1 <0>         0.0000
      4 C4          2.0884   -4.9449    6.7842 C.ar      1 <0>         0.0000
      5 C5          1.2569   -4.3238    5.8663 C.ar      1 <0>         0.0000
      6 C6         -2.2275   -3.1458    8.6758 C.3       1 <0>         0.0000
      7 C7         -3.1634   -4.1995    8.1635 C.3       1 <0>         0.0000
      8 C8         -2.1434   -3.5899    7.2412 C.3       1 <0>         0.0000
      9 C9          5.1092   -7.0201    6.5632 C.3       1 <0>         0.0000
     10 C10         2.4703   -3.7674    8.8148 C.3       1 <0>         0.0000
     11 C11         0.0796   -3.5346    6.3378 C.3       1 <0>         0.0000
     12 N1          1.4335   -4.3778    4.5271 N.ar      1 <0>         0.0000
     13 N2         -1.0034   -4.3778    6.7734 N.3       1 <0>         0.0000
     14 O1          4.0248   -6.3009    7.1477 O.3       1 <0>         0.0000
     15 O2          1.8589   -4.8550    8.1203 O.3       1 <0>         0.0000
     16 H1          4.2223   -6.3030    4.5156 H         1 <0>         0.0000
     17 H2          2.6201   -5.1201    3.0126 H         1 <0>         0.0000
     18 H3         -2.6356   -2.1623    8.8759 H         1 <0>         0.0000
     19 H4         -1.4499   -3.4556    9.3634 H         1 <0>         0.0000
     20 H5         -3.0137   -5.2159    8.5071 H         1 <0>         0.0000
     21 H6         -4.2012   -3.9250    8.0184 H         1 <0>         0.0000
     22 H7         -2.5211   -2.8947    6.4981 H         1 <0>         0.0000
     23 H8          5.7119   -7.4767    7.3521 H         1 <0>         0.0000
     24 H9          5.7229   -6.3373    5.9701 H         1 <0>         0.0000
     25 H10         4.7083   -7.8029    5.9150 H         1 <0>         0.0000
     26 H11         2.2049   -3.8151    9.8738 H         1 <0>         0.0000
     27 H12         2.1298   -2.8220    8.3851 H         1 <0>         0.0000
     28 H13         3.5551   -3.8434    8.7097 H         1 <0>         0.0000
     29 H14         0.3529   -2.8844    7.1796 H         1 <0>         0.0000
     30 H15        -0.3094   -2.8827    5.5447 H         1 <0>         0.0000
     31 H16        -1.3170   -4.9752    6.0015 H         1 <0>         0.0000
@<TRIPOS>BOND
     1    1    2 ar
     2    1    3 ar
     3    1   16 1
     4    2   12 ar
     5    2   17 1
     6    3    4 ar
     7    3   14 1
     8    4    5 ar
     9    4   15 1
    10    5   11 1
    11    5   12 ar
    12    6    7 1
    13    6    8 1
    14    6   18 1
    15    6   19 1
    16    7    8 1
    17    7   20 1
    18    7   21 1
    19    8   13 1
    20    8   22 1
    21    9   14 1
    22    9   23 1
    23    9   24 1
    24    9   25 1
    25   10   15 1
    26   10   26 1
    27   10   27 1
    28   10   28 1
    29   11   13 1
    30   11   29 1
    31   11   30 1
    32   13   31 1
