@<TRIPOS>MOLECULE
*****
   23    23     0     0     0
SMALL
NO_CHARGES

@<TRIPOS>ATOM
      1 C1          1.0434   -2.7308   -1.1174 C.2       1 <0>         0.0000
      2 C2          1.8602   -0.7777   -0.7005 C.2       1 <0>         0.0000
      3 C3          0.5130   -0.7161   -0.3502 C.2       1 <0>         0.0000
      4 C4          2.9073    0.2715   -0.6251 C.2       1 <0>         0.0000
      5 C5         -0.4721    0.2610    0.2001 C.2       1 <0>         0.0000
      6 C6          5.2975    0.7144   -1.0710 C.3       1 <0>         0.0000
      7 C7         -0.9023    2.5141    1.0191 C.3       1 <0>         0.0000
      8 N1          2.1675   -2.0401   -1.1751 N.2       1 <0>         0.0000
      9 N2          0.0251   -1.9715   -0.6272 N.pl3     1 <0>         0.0000
     10 N3          4.1221   -0.1392   -1.0597 N.am      1 <0>         0.0000
     11 N4         -0.0161    1.4959    0.4772 N.am      1 <0>         0.0000
     12 O1          2.6853    1.4221   -0.2019 O.2       1 <0>         0.0000
     13 O2         -1.6449   -0.1142    0.3696 O.2       1 <0>         0.0000
     14 H1          0.9198   -3.7642   -1.4136 H         1 <0>         0.0000
     15 H2          5.7033    0.8009   -2.0847 H         1 <0>         0.0000
     16 H3          6.0756    0.3162   -0.4102 H         1 <0>         0.0000
     17 H4          5.0039    1.7032   -0.7186 H         1 <0>         0.0000
     18 H5         -1.7470    2.6934    0.3465 H         1 <0>         0.0000
     19 H6         -0.3345    3.4384    1.1394 H         1 <0>         0.0000
     20 H7         -1.3041    2.2081    1.9906 H         1 <0>         0.0000
     21 H8         -0.9496   -2.2091   -0.4632 H         1 <0>         0.0000
     22 H9          4.1785   -1.1019   -1.3753 H         1 <0>         0.0000
     23 H10         0.9763    1.6894    0.2993 H         1 <0>         0.0000
@<TRIPOS>BOND
     1    1    8 2
     2    1    9 1
     3    1   14 1
     4    2    3 2
     5    2    4 1
     6    2    8 1
     7    3    5 1
     8    3    9 1
     9    4   10 am
    10    4   12 2
    11    5   11 am
    12    5   13 2
    13    6   10 1
    14    6   15 1
    15    6   16 1
    16    6   17 1
    17    7   11 1
    18    7   18 1
    19    7   19 1
    20    7   20 1
    21    9   21 1
    22   10   22 1
    23   11   23 1
