@<TRIPOS>MOLECULE
*****
   22    23     0     0     0
SMALL
NO_CHARGES

@<TRIPOS>ATOM
      1 C1          1.3950   -1.7366   -0.0106 C.ar      1 <0>         0.0000
      2 C2          0.8009   -0.5580    0.4555 C.ar      1 <0>         0.0000
      3 C3          2.4564   -2.3104    0.6896 C.ar      1 <0>         0.0000
      4 C4          1.2576    0.0366    1.6345 C.ar      1 <0>         0.0000
      5 C5          5.9398   -2.7903    3.5095 C.2       1 <0>         0.0000
      6 C6          5.1100   -3.9356    3.4216 C.2       1 <0>         0.0000
      7 C7          2.9347   -1.7196    1.8661 C.ar      1 <0>         0.0000
      8 C8          2.3052   -0.5598    2.3276 C.ar      1 <0>         0.0000
      9 C9          5.2040   -1.7598    2.9475 C.2       1 <0>         0.0000
     10 C10         5.5688   -0.3297    2.7034 C.3       1 <0>         0.0000
     11 N1          3.9422   -3.6598    2.8478 N.2       1 <0>         0.0000
     12 N2          4.0038   -2.3196    2.5749 N.pl3     1 <0>         0.0000
     13 F1          2.7096   -0.0029    3.4960 F         1 <0>         0.0000
     14 H1          1.0352   -2.2058   -0.9215 H         1 <0>         0.0000
     15 H2         -0.0211   -0.1044   -0.0907 H         1 <0>         0.0000
     16 H3          2.9285   -3.2260    0.3491 H         1 <0>         0.0000
     17 H4          0.8052    0.9381    2.0361 H         1 <0>         0.0000
     18 H5          6.9408   -2.7188    3.9137 H         1 <0>         0.0000
     19 H6          5.3126   -4.9470    3.7529 H         1 <0>         0.0000
     20 H7          5.2509   -0.0006    1.7086 H         1 <0>         0.0000
     21 H8          5.1078    0.3380    3.4365 H         1 <0>         0.0000
     22 H9          6.6531   -0.2152    2.7684 H         1 <0>         0.0000
@<TRIPOS>BOND
     1    1    2 ar
     2    1    3 ar
     3    1   14 1
     4    2    4 ar
     5    2   15 1
     6    3    7 ar
     7    3   16 1
     8    4    8 ar
     9    4   17 1
    10    5    6 1
    11    5    9 2
    12    5   18 1
    13    6   11 2
    14    6   19 1
    15    7    8 ar
    16    7   12 1
    17    8   13 1
    18    9   10 1
    19    9   12 1
    20   10   20 1
    21   10   21 1
    22   10   22 1
    23   11   12 1
