@<TRIPOS>MOLECULE
*****
   27    28     0     0     0
SMALL
NO_CHARGES

@<TRIPOS>ATOM
      1 C1          2.1204   -0.8705   -0.1463 C.ar      1 <0>         0.0000
      2 C2          1.9930    0.3115    0.5902 C.ar      1 <0>         0.0000
      3 C3          2.1266   -2.1045    0.5147 C.ar      1 <0>         0.0000
      4 C4          1.0177   -0.4680    8.4963 C.ar      1 <0>         0.0000
      5 C5          0.3596    0.7109    8.8488 C.ar      1 <0>         0.0000
      6 C6          1.8577    0.2604    1.9801 C.ar      1 <0>         0.0000
      7 C7          2.0013   -2.1557    1.9031 C.ar      1 <0>         0.0000
      8 C8          1.2881   -0.7634    7.1554 C.ar      1 <0>         0.0000
      9 C9         -0.0336    1.6098    7.8495 C.ar      1 <0>         0.0000
     10 C10         1.8517   -0.9756    2.6469 C.ar      1 <0>         0.0000
     11 C11         0.8992    0.1306    6.1483 C.ar      1 <0>         0.0000
     12 C12         0.2350    1.3206    6.5150 C.ar      1 <0>         0.0000
     13 C13         1.7268   -1.1155    4.1388 C.2       1 <0>         0.0000
     14 N1          1.1232   -0.0537    4.7717 N.am      1 <0>         0.0000
     15 O1          2.1309   -2.1197    4.7258 O.2       1 <0>         0.0000
     16 O2         -0.1202    2.1622    5.4746 O.3       1 <0>         0.0000
     17 H1          2.2232   -0.8296   -1.2276 H         1 <0>         0.0000
     18 H2          2.0081    1.2733    0.0845 H         1 <0>         0.0000
     19 H3          2.2330   -3.0251   -0.0531 H         1 <0>         0.0000
     20 H4          1.3254   -1.1710    9.2651 H         1 <0>         0.0000
     21 H5          0.1492    0.9378    9.8900 H         1 <0>         0.0000
     22 H6          1.7965    1.1941    2.5337 H         1 <0>         0.0000
     23 H7          2.0193   -3.1017    2.4351 H         1 <0>         0.0000
     24 H8          1.7929   -1.6774    6.8749 H         1 <0>         0.0000
     25 H9         -0.5468    2.5344    8.1094 H         1 <0>         0.0000
     26 H10         0.7307    0.6743    4.1891 H         1 <0>         0.0000
     27 H11        -0.5844    2.9350    5.8319 H         1 <0>         0.0000
@<TRIPOS>BOND
     1    1    3 ar
     2    1    2 ar
     3    1   17 1
     4    2    6 ar
     5    2   18 1
     6    3    7 ar
     7    3   19 1
     8    4    5 ar
     9    4    8 ar
    10    4   20 1
    11    5    9 ar
    12    5   21 1
    13    6   10 ar
    14    6   22 1
    15    7   10 ar
    16    7   23 1
    17    8   11 ar
    18    8   24 1
    19    9   12 ar
    20    9   25 1
    21   10   13 1
    22   11   12 ar
    23   11   14 1
    24   12   16 1
    25   13   14 am
    26   13   15 2
    27   14   26 1
    28   16   27 1
