@<TRIPOS>MOLECULE
*****
   34    35     0     0     0
SMALL
NO_CHARGES

@<TRIPOS>ATOM
      1 C1         -2.7356    3.9196   -0.6875 C.2       1 <0>         0.0000
      2 C2         -1.7215    3.2702   -1.4529 C.2       1 <0>         0.0000
      3 C3         -3.7020    3.1894   -0.0539 C.2       1 <0>         0.0000
      4 C4         -1.7412    1.9064   -1.5251 C.2       1 <0>         0.0000
      5 C5         -3.7438    1.7413   -0.1287 C.2       1 <0>         0.0000
      6 C6         -2.8022   -1.1272    0.3069 C.2       1 <0>         0.0000
      7 C7         -2.4759   -1.3770    2.7066 C.3       1 <0>         0.0000
      8 C8         -1.1947    0.3702    1.5626 C.3       1 <0>         0.0000
      9 C9         -1.2248   -1.7608    3.4876 C.3       1 <0>         0.0000
     10 C10         0.0288   -0.0498    2.3803 C.3       1 <0>         0.0000
     11 C11         0.8065   -0.9170    4.4913 C.3       1 <0>         0.0000
     12 C12        -2.6891   -0.3037   -0.9911 C.3       1 <0>         0.0000
     13 N1         -2.6925    1.1597   -0.8827 N.am      1 <0>         0.0000
     14 N2         -2.1226   -0.7482    1.4311 N.am      1 <0>         0.0000
     15 N3         -0.3591   -0.5952    3.6769 N.3       1 <0>         0.0000
     16 O1         -4.5872    1.0158    0.4050 O.2       1 <0>         0.0000
     17 O2         -3.4749   -2.1553    0.2511 O.2       1 <0>         0.0000
     18 H1         -2.7377    5.0045   -0.6112 H         1 <0>         0.0000
     19 H2         -0.9512    3.8280   -1.9725 H         1 <0>         0.0000
     20 H3         -4.4889    3.6543    0.5307 H         1 <0>         0.0000
     21 H4         -1.0013    1.3471   -2.0892 H         1 <0>         0.0000
     22 H5         -3.0863   -2.2527    2.4921 H         1 <0>         0.0000
     23 H6         -3.0704   -0.6640    3.2929 H         1 <0>         0.0000
     24 H7         -1.6920    1.2182    2.0531 H         1 <0>         0.0000
     25 H8         -0.8498    0.6969    0.5847 H         1 <0>         0.0000
     26 H9         -1.5213   -2.1426    4.4704 H         1 <0>         0.0000
     27 H10        -0.6955   -2.5750    2.9553 H         1 <0>         0.0000
     28 H11         0.6170   -0.7833    1.7923 H         1 <0>         0.0000
     29 H12         0.6608    0.8309    2.5399 H         1 <0>         0.0000
     30 H13         0.4811   -1.2859    5.4691 H         1 <0>         0.0000
     31 H14         1.4064   -0.0153    4.6514 H         1 <0>         0.0000
     32 H15         1.4557   -1.6865    4.0316 H         1 <0>         0.0000
     33 H16        -3.5527   -0.6233   -1.5756 H         1 <0>         0.0000
     34 H17        -1.7828   -0.6007   -1.5255 H         1 <0>         0.0000
@<TRIPOS>BOND
     1    1    3 2
     2    1    2 1
     3    1   18 1
     4    2    4 2
     5    2   19 1
     6    3    5 1
     7    3   20 1
     8    4   13 1
     9    4   21 1
    10    5   13 am
    11    5   16 2
    12    6   12 1
    13    6   14 am
    14    6   17 2
    15    7    9 1
    16    7   14 1
    17    7   22 1
    18    7   23 1
    19    8   10 1
    20    8   14 1
    21    8   24 1
    22    8   25 1
    23    9   15 1
    24    9   26 1
    25    9   27 1
    26   10   15 1
    27   10   28 1
    28   10   29 1
    29   11   15 1
    30   11   30 1
    31   11   31 1
    32   11   32 1
    33   12   13 1
    34   12   33 1
    35   12   34 1
