@<TRIPOS>MOLECULE
*****
   30    31     0     0     0
SMALL
NO_CHARGES

@<TRIPOS>ATOM
      1 C1          0.8432    2.2074    6.8116 C.ar      1 <0>         0.0000
      2 C2          1.7629   -1.3166    0.0904 C.ar      1 <0>         0.0000
      3 C3          1.0756    2.5131    5.4659 C.ar      1 <0>         0.0000
      4 C4          1.1281    0.9191    7.2761 C.ar      1 <0>         0.0000
      5 C5          0.8491   -0.5998    0.8785 C.ar      1 <0>         0.0000
      6 C6          2.8842   -1.8572    0.7013 C.ar      1 <0>         0.0000
      7 C7          1.5846    1.5514    4.5913 C.ar      1 <0>         0.0000
      8 C8          1.6185   -0.0546    6.4044 C.ar      1 <0>         0.0000
      9 C9          1.0711   -0.4186    2.2361 C.ar      1 <0>         0.0000
     10 C10         3.1388   -1.6939    2.0788 C.ar      1 <0>         0.0000
     11 C11         1.8511    0.2496    5.0516 C.ar      1 <0>         0.0000
     12 C12         2.2220   -0.9411    2.8729 C.ar      1 <0>         0.0000
     13 C13         4.3836   -2.3468    2.5571 C.2       1 <0>         0.0000
     14 C14         5.7521   -2.9603    4.4012 C.3       1 <0>         0.0000
     15 N1          2.4087   -0.7505    4.2312 N.pl3     1 <0>         0.0000
     16 O1          5.2122   -2.8718    1.8326 O.2       1 <0>         0.0000
     17 O2          4.5423   -2.3370    3.9186 O.3       1 <0>         0.0000
     18 H1          0.4512    2.9622    7.4875 H         1 <0>         0.0000
     19 H2          1.5909   -1.4572   -0.9724 H         1 <0>         0.0000
     20 H3          0.8770    3.5153    5.0944 H         1 <0>         0.0000
     21 H4          0.9553    0.6646    8.3188 H         1 <0>         0.0000
     22 H5         -0.0538   -0.1900    0.4322 H         1 <0>         0.0000
     23 H6          3.6074   -2.4279    0.1282 H         1 <0>         0.0000
     24 H7          1.7976    1.8149    3.5606 H         1 <0>         0.0000
     25 H8          1.8156   -1.0625    6.7624 H         1 <0>         0.0000
     26 H9          0.3358    0.1088    2.8325 H         1 <0>         0.0000
     27 H10         5.7220   -2.8502    5.4854 H         1 <0>         0.0000
     28 H11         6.6282   -2.4585    3.9858 H         1 <0>         0.0000
     29 H12         5.7722   -4.0151    4.1197 H         1 <0>         0.0000
     30 H13         3.1229   -1.3281    4.6555 H         1 <0>         0.0000
@<TRIPOS>BOND
     1    1    4 ar
     2    1    3 ar
     3    1   18 1
     4    2    5 ar
     5    2    6 ar
     6    2   19 1
     7    3    7 ar
     8    3   20 1
     9    4    8 ar
    10    4   21 1
    11    5    9 ar
    12    5   22 1
    13    6   10 ar
    14    6   23 1
    15    7   11 ar
    16    7   24 1
    17    8   11 ar
    18    8   25 1
    19    9   12 ar
    20    9   26 1
    21   10   12 ar
    22   10   13 1
    23   11   15 1
    24   12   15 1
    25   13   16 2
    26   13   17 1
    27   14   17 1
    28   14   27 1
    29   14   28 1
    30   14   29 1
    31   15   30 1
