@<TRIPOS>MOLECULE
*****
   30    31     0     0     0
SMALL
NO_CHARGES

@<TRIPOS>ATOM
      1 C1         -1.7111   -1.0398    6.6421 C.ar      1 <0>         0.0000
      2 C2          2.1200   -0.9688    0.0284 C.ar      1 <0>         0.0000
      3 C3         -1.8302   -1.5133    5.3307 C.ar      1 <0>         0.0000
      4 C4         -0.4480   -0.6813    7.1245 C.ar      1 <0>         0.0000
      5 C5          1.0459   -0.3896    0.7219 C.ar      1 <0>         0.0000
      6 C6          3.0722   -1.6734    0.7493 C.ar      1 <0>         0.0000
      7 C7         -0.7089   -1.6295    4.5073 C.ar      1 <0>         0.0000
      8 C8          0.6759   -0.7752    6.3020 C.ar      1 <0>         0.0000
      9 C9          0.9277   -0.5339    2.0968 C.ar      1 <0>         0.0000
     10 C10         2.9833   -1.8372    2.1473 C.ar      1 <0>         0.0000
     11 C11         0.5584   -1.2490    4.9835 C.ar      1 <0>         0.0000
     12 C12         1.8756   -1.2702    2.8468 C.ar      1 <0>         0.0000
     13 C13         4.0951   -2.6165    2.7484 C.2       1 <0>         0.0000
     14 C14         5.1716   -3.3914    4.7209 C.3       1 <0>         0.0000
     15 N1          1.7336   -1.3861    4.2189 N.pl3     1 <0>         0.0000
     16 O1          4.9574   -3.1970    2.1106 O.2       1 <0>         0.0000
     17 O2          4.1020   -2.6307    4.1190 O.3       1 <0>         0.0000
     18 H1         -2.5875   -0.9564    7.2786 H         1 <0>         0.0000
     19 H2          2.2124   -0.8578   -1.0477 H         1 <0>         0.0000
     20 H3         -2.8024   -1.8137    4.9478 H         1 <0>         0.0000
     21 H4         -0.3367   -0.3131    8.1412 H         1 <0>         0.0000
     22 H5          0.3003    0.1932    0.1865 H         1 <0>         0.0000
     23 H6          3.9231   -2.1254    0.2507 H         1 <0>         0.0000
     24 H7         -0.8111   -2.0361    3.5067 H         1 <0>         0.0000
     25 H8          1.6529   -0.4722    6.6712 H         1 <0>         0.0000
     26 H9          0.1092   -0.0501    2.6169 H         1 <0>         0.0000
     27 H10         5.0171   -3.3073    5.7968 H         1 <0>         0.0000
     28 H11         6.1393   -2.9744    4.4350 H         1 <0>         0.0000
     29 H12         5.1193   -4.4346    4.4031 H         1 <0>         0.0000
     30 H13         2.5474   -1.7316    4.7108 H         1 <0>         0.0000
@<TRIPOS>BOND
     1    1    4 ar
     2    1    3 ar
     3    1   18 1
     4    2    5 ar
     5    2    6 ar
     6    2   19 1
     7    3    7 ar
     8    3   20 1
     9    4    8 ar
    10    4   21 1
    11    5    9 ar
    12    5   22 1
    13    6   10 ar
    14    6   23 1
    15    7   11 ar
    16    7   24 1
    17    8   11 ar
    18    8   25 1
    19    9   12 ar
    20    9   26 1
    21   10   12 ar
    22   10   13 1
    23   11   15 1
    24   12   15 1
    25   13   16 2
    26   13   17 1
    27   14   17 1
    28   14   27 1
    29   14   28 1
    30   14   29 1
    31   15   30 1
