@<TRIPOS>MOLECULE
*****
   34    35     0     0     0
SMALL
NO_CHARGES

@<TRIPOS>ATOM
      1 C1         -3.6327   -2.8560   -1.7101 C.2       1 <0>         0.0000
      2 C2         -4.4576   -1.8959   -1.0563 C.2       1 <0>         0.0000
      3 C3         -2.4213   -2.4919   -2.2316 C.2       1 <0>         0.0000
      4 C4         -4.0069   -0.6095   -0.9672 C.2       1 <0>         0.0000
      5 C5         -1.9225   -1.1359   -2.1428 C.2       1 <0>         0.0000
      6 C6         -2.3599    1.5795    0.1460 C.2       1 <0>         0.0000
      7 C7         -1.3868    1.3332    2.3701 C.3       1 <0>         0.0000
      8 C8         -0.2536    0.2452    0.5081 C.3       1 <0>         0.0000
      9 C9         -1.5716   -0.0330    3.0329 C.3       1 <0>         0.0000
     10 C10        -0.4508   -1.1096    1.1892 C.3       1 <0>         0.0000
     11 C11        -0.6309   -2.2388    3.3147 C.3       1 <0>         0.0000
     12 C12        -2.3743    1.1713   -1.3332 C.3       1 <0>         0.0000
     13 N1         -2.7922   -0.2337   -1.4796 N.am      1 <0>         0.0000
     14 N2         -1.3148    1.1680    0.9166 N.am      1 <0>         0.0000
     15 N3         -0.4988   -0.9509    2.6440 N.3       1 <0>         0.0000
     16 O1         -0.8275   -0.7509   -2.5778 O.2       1 <0>         0.0000
     17 O2         -3.3098    2.2361    0.5887 O.2       1 <0>         0.0000
     18 H1         -3.9701   -3.8865   -1.7947 H         1 <0>         0.0000
     19 H2         -5.4230   -2.1593   -0.6400 H         1 <0>         0.0000
     20 H3         -1.7716   -3.2002   -2.7346 H         1 <0>         0.0000
     21 H4         -4.5707    0.1803   -0.4810 H         1 <0>         0.0000
     22 H5         -2.2184    1.9970    2.6023 H         1 <0>         0.0000
     23 H6         -0.4518    1.7886    2.7155 H         1 <0>         0.0000
     24 H7          0.7044    0.6703    0.8295 H         1 <0>         0.0000
     25 H8         -0.2223    0.1228   -0.5725 H         1 <0>         0.0000
     26 H9         -1.5525    0.0884    4.1215 H         1 <0>         0.0000
     27 H10        -2.5681   -0.4309    2.7578 H         1 <0>         0.0000
     28 H11        -1.3739   -1.5809    0.7990 H         1 <0>         0.0000
     29 H12         0.3881   -1.7645    0.9313 H         1 <0>         0.0000
     30 H13        -0.6115   -2.0938    4.3996 H         1 <0>         0.0000
     31 H14         0.2109   -2.8838    3.0431 H         1 <0>         0.0000
     32 H15        -1.5676   -2.7668    3.0538 H         1 <0>         0.0000
     33 H16        -1.4136    1.2745   -1.8345 H         1 <0>         0.0000
     34 H17        -3.1057    1.8166   -1.8220 H         1 <0>         0.0000
@<TRIPOS>BOND
     1    1    3 2
     2    1    2 1
     3    1   18 1
     4    2    4 2
     5    2   19 1
     6    3    5 1
     7    3   20 1
     8    4   13 1
     9    4   21 1
    10    5   13 am
    11    5   16 2
    12    6   12 1
    13    6   14 am
    14    6   17 2
    15    7    9 1
    16    7   14 1
    17    7   22 1
    18    7   23 1
    19    8   10 1
    20    8   14 1
    21    8   24 1
    22    8   25 1
    23    9   15 1
    24    9   26 1
    25    9   27 1
    26   10   15 1
    27   10   28 1
    28   10   29 1
    29   11   15 1
    30   11   30 1
    31   11   31 1
    32   11   32 1
    33   12   13 1
    34   12   33 1
    35   12   34 1
