@<TRIPOS>MOLECULE
*****
   30    31     0     0     0
SMALL
NO_CHARGES

@<TRIPOS>ATOM
      1 C1         -0.9624   -3.1001    7.0408 C.ar      1 <0>         0.0000
      2 C2          1.9049   -1.4410    0.1143 C.ar      1 <0>         0.0000
      3 C3         -1.1273   -3.5112    5.7136 C.ar      1 <0>         0.0000
      4 C4          0.2190   -2.4488    7.4112 C.ar      1 <0>         0.0000
      5 C5          0.7704   -1.3250    0.9346 C.ar      1 <0>         0.0000
      6 C6          3.1013   -1.8475    0.6866 C.ar      1 <0>         0.0000
      7 C7         -0.1313   -3.2755    4.7639 C.ar      1 <0>         0.0000
      8 C8          1.2117   -2.1920    6.4642 C.ar      1 <0>         0.0000
      9 C9          0.8295   -1.6312    2.2864 C.ar      1 <0>         0.0000
     10 C10         3.1973   -2.1632    2.0575 C.ar      1 <0>         0.0000
     11 C11         1.0458   -2.5985    5.1288 C.ar      1 <0>         0.0000
     12 C12         2.0339   -2.0743    2.8846 C.ar      1 <0>         0.0000
     13 C13         4.4996   -2.5603    2.6237 C.2       1 <0>         0.0000
     14 C14         6.7687   -3.0639    2.1964 C.3       1 <0>         0.0000
     15 N1          2.1044   -2.3703    4.2281 N.pl3     1 <0>         0.0000
     16 O1          4.7324   -2.7547    3.8183 O.2       1 <0>         0.0000
     17 O2          5.4713   -2.6961    1.6893 O.3       1 <0>         0.0000
     18 H1         -1.7393   -3.2909    7.7760 H         1 <0>         0.0000
     19 H2          1.8513   -1.2026   -0.9436 H         1 <0>         0.0000
     20 H3         -2.0306   -4.0377    5.4159 H         1 <0>         0.0000
     21 H4          0.3654   -2.1275    8.4393 H         1 <0>         0.0000
     22 H5         -0.1705   -0.9777    0.5144 H         1 <0>         0.0000
     23 H6          3.9961   -1.9260    0.0800 H         1 <0>         0.0000
     24 H7         -0.2532   -3.6404    3.7494 H         1 <0>         0.0000
     25 H8          2.1213   -1.6686    6.7487 H         1 <0>         0.0000
     26 H9         -0.0507   -1.4997    2.9041 H         1 <0>         0.0000
     27 H10         7.4145   -3.1215    1.3201 H         1 <0>         0.0000
     28 H11         6.7214   -4.0301    2.7041 H         1 <0>         0.0000
     29 H12         7.1348   -2.3088    2.8959 H         1 <0>         0.0000
     30 H13         3.0504   -2.5070    4.5790 H         1 <0>         0.0000
@<TRIPOS>BOND
     1    1    4 ar
     2    1    3 ar
     3    1   18 1
     4    2    5 ar
     5    2    6 ar
     6    2   19 1
     7    3    7 ar
     8    3   20 1
     9    4    8 ar
    10    4   21 1
    11    5    9 ar
    12    5   22 1
    13    6   10 ar
    14    6   23 1
    15    7   11 ar
    16    7   24 1
    17    8   11 ar
    18    8   25 1
    19    9   12 ar
    20    9   26 1
    21   10   12 ar
    22   10   13 1
    23   11   15 1
    24   12   15 1
    25   13   16 2
    26   13   17 1
    27   14   17 1
    28   14   27 1
    29   14   28 1
    30   14   29 1
    31   15   30 1
