@<TRIPOS>MOLECULE
*****
   34    35     0     0     0
SMALL
NO_CHARGES

@<TRIPOS>ATOM
      1 C1         -2.7976    4.1779   -1.2658 C.2       1 <0>         0.0000
      2 C2         -3.8913    3.3322   -0.9216 C.2       1 <0>         0.0000
      3 C3         -1.5368    3.6641   -1.4042 C.2       1 <0>         0.0000
      4 C4         -3.6462    2.0012   -0.7368 C.2       1 <0>         0.0000
      5 C5         -1.2551    2.2579   -1.2081 C.2       1 <0>         0.0000
      6 C6         -2.6723   -0.4240    0.7119 C.2       1 <0>         0.0000
      7 C7         -2.2995   -0.5264    3.1246 C.3       1 <0>         0.0000
      8 C8         -0.5850    0.5498    1.7455 C.3       1 <0>         0.0000
      9 C9         -1.2043   -1.3377    3.8135 C.3       1 <0>         0.0000
     10 C10         0.4781   -0.2791    2.4652 C.3       1 <0>         0.0000
     11 C11         1.0954   -1.3221    4.5534 C.3       1 <0>         0.0000
     12 C12        -2.2102    0.0262   -0.6806 C.3       1 <0>         0.0000
     13 N1         -2.3871    1.4753   -0.8677 N.am      1 <0>         0.0000
     14 N2         -1.8712   -0.1478    1.7768 N.am      1 <0>         0.0000
     15 N3          0.0578   -0.5974    3.8293 N.3       1 <0>         0.0000
     16 O1         -0.1353    1.7349   -1.3074 O.2       1 <0>         0.0000
     17 O2         -3.7649   -0.9940    0.8169 O.2       1 <0>         0.0000
     18 H1         -2.9681    5.2408   -1.4208 H         1 <0>         0.0000
     19 H2         -4.8985    3.7162   -0.8091 H         1 <0>         0.0000
     20 H3         -0.6858    4.2833   -1.6670 H         1 <0>         0.0000
     21 H4         -4.4220    1.2900   -0.4709 H         1 <0>         0.0000
     22 H5         -3.2209   -1.1012    3.0411 H         1 <0>         0.0000
     23 H6         -2.4981    0.3856    3.7023 H         1 <0>         0.0000
     24 H7         -0.6974    1.5144    2.2577 H         1 <0>         0.0000
     25 H8         -0.2659    0.7493    0.7246 H         1 <0>         0.0000
     26 H9         -1.5070   -1.5410    4.8464 H         1 <0>         0.0000
     27 H10        -1.0989   -2.3118    3.2970 H         1 <0>         0.0000
     28 H11         0.6797   -1.1960    1.8767 H         1 <0>         0.0000
     29 H12         1.4071    0.2992    2.5060 H         1 <0>         0.0000
     30 H13         0.7696   -1.5015    5.5830 H         1 <0>         0.0000
     31 H14         2.0099   -0.7214    4.5867 H         1 <0>         0.0000
     32 H15         1.3410   -2.2985    4.0945 H         1 <0>         0.0000
     33 H16        -2.8418   -0.5063   -1.3932 H         1 <0>         0.0000
     34 H17        -1.1661   -0.1982   -0.8918 H         1 <0>         0.0000
@<TRIPOS>BOND
     1    1    3 2
     2    1    2 1
     3    1   18 1
     4    2    4 2
     5    2   19 1
     6    3    5 1
     7    3   20 1
     8    4   13 1
     9    4   21 1
    10    5   13 am
    11    5   16 2
    12    6   12 1
    13    6   14 am
    14    6   17 2
    15    7    9 1
    16    7   14 1
    17    7   22 1
    18    7   23 1
    19    8   10 1
    20    8   14 1
    21    8   24 1
    22    8   25 1
    23    9   15 1
    24    9   26 1
    25    9   27 1
    26   10   15 1
    27   10   28 1
    28   10   29 1
    29   11   15 1
    30   11   30 1
    31   11   31 1
    32   11   32 1
    33   12   13 1
    34   12   33 1
    35   12   34 1
