@<TRIPOS>MOLECULE
*****
   18    18     0     0     0
SMALL
NO_CHARGES

@<TRIPOS>ATOM
      1 C1         -0.5056    0.8238   -1.7803 C.2       1 <0>         0.0000
      2 C2         -0.9960    0.4067   -2.9796 C.2       1 <0>         0.0000
      3 C3         -0.8364   -0.0402   -0.6768 C.2       1 <0>         0.0000
      4 C4         -1.6099   -1.1333   -1.0933 C.2       1 <0>         0.0000
      5 C5         -0.4716    0.1242    0.7299 C.2       1 <0>         0.0000
      6 C6         -3.0120   -3.1440   -0.7925 C.3       1 <0>         0.0000
      7 N1          0.3383    1.1977    1.0570 N.am      1 <0>         0.0000
      8 N2         -2.0801   -2.1395   -0.3198 N.pl3     1 <0>         0.0000
      9 O1         -0.8887   -0.6335    1.6271 O.2       1 <0>         0.0000
     10 S1         -1.9088   -1.0846   -2.8201 S.3       1 <0>         0.0000
     11 H1          0.0590    1.7459   -1.6824 H         1 <0>         0.0000
     12 H2         -0.9048    0.8729   -3.9512 H         1 <0>         0.0000
     13 H3         -3.9595   -2.7025   -1.1325 H         1 <0>         0.0000
     14 H4         -3.2237   -3.8372    0.0232 H         1 <0>         0.0000
     15 H5         -2.5810   -3.7170   -1.6229 H         1 <0>         0.0000
     16 H6          0.7179    1.1557    1.9956 H         1 <0>         0.0000
     17 H7          0.9572    1.5762    0.3524 H         1 <0>         0.0000
     18 H8         -1.9252   -1.9806    0.6764 H         1 <0>         0.0000
@<TRIPOS>BOND
     1    1    2 2
     2    1    3 1
     3    1   11 1
     4    2   10 1
     5    2   12 1
     6    3    4 2
     7    3    5 1
     8    4    8 1
     9    4   10 1
    10    5    7 am
    11    5    9 2
    12    6    8 1
    13    6   13 1
    14    6   14 1
    15    6   15 1
    16    7   16 1
    17    7   17 1
    18    8   18 1
