@<TRIPOS>MOLECULE
*****
   28    27     0     0     0
SMALL
NO_CHARGES

@<TRIPOS>ATOM
      1 C1         -0.2511   -1.4243    1.3095 C.2       1 <0>         0.0000
      2 C2         -3.5473   -2.9614    0.7607 C.2       1 <0>         0.0000
      3 C3          1.4124    0.1322    0.2815 C.3       1 <0>         0.0000
      4 C4          2.0641   -2.2553    0.8531 C.3       1 <0>         0.0000
      5 C5         -3.3368   -0.6663    1.8094 C.3       1 <0>         0.0000
      6 C6         -5.5408   -4.4240    0.9266 C.3       1 <0>         0.0000
      7 C7          0.9419   -1.3293    0.3588 C.3       1 <0>         0.0000
      8 C8         -2.6304   -2.0080    1.5378 C.3       1 <0>         0.0000
      9 N1         -4.5431   -3.5270    1.4958 N.am      1 <0>         0.0000
     10 N2         -1.4243   -1.8326    0.7508 N.am      1 <0>         0.0000
     11 O1         -0.1591   -1.1407    2.5079 O.2       1 <0>         0.0000
     12 O2         -3.3986   -3.1584   -0.4478 O.2       1 <0>         0.0000
     13 H1          1.6999    0.4874    1.2751 H         1 <0>         0.0000
     14 H2          2.2775    0.2196   -0.3844 H         1 <0>         0.0000
     15 H3          0.6215    0.7872   -0.0995 H         1 <0>         0.0000
     16 H4          2.3657   -1.9726    1.8655 H         1 <0>         0.0000
     17 H5          2.9363   -2.1819    0.1948 H         1 <0>         0.0000
     18 H6          1.7396   -3.3012    0.8736 H         1 <0>         0.0000
     19 H7         -3.6521   -0.2063    0.8680 H         1 <0>         0.0000
     20 H8         -4.2192   -0.8018    2.4435 H         1 <0>         0.0000
     21 H9         -2.6414    0.0030    2.3203 H         1 <0>         0.0000
     22 H10        -6.5458   -4.1197    1.2349 H         1 <0>         0.0000
     23 H11        -5.3682   -5.4606    1.2375 H         1 <0>         0.0000
     24 H12        -5.4643   -4.3658   -0.1591 H         1 <0>         0.0000
     25 H13         0.6303   -1.6529   -0.6423 H         1 <0>         0.0000
     26 H14        -2.3480   -2.4563    2.4970 H         1 <0>         0.0000
     27 H15        -4.5566   -3.3564    2.4925 H         1 <0>         0.0000
     28 H16        -1.4842   -2.1225   -0.2198 H         1 <0>         0.0000
@<TRIPOS>BOND
     1    1    7 1
     2    1   10 am
     3    1   11 2
     4    2    8 1
     5    2    9 am
     6    2   12 2
     7    3    7 1
     8    3   13 1
     9    3   14 1
    10    3   15 1
    11    4    7 1
    12    4   16 1
    13    4   17 1
    14    4   18 1
    15    5    8 1
    16    5   19 1
    17    5   20 1
    18    5   21 1
    19    6    9 1
    20    6   22 1
    21    6   23 1
    22    6   24 1
    23    7   25 1
    24    8   10 1
    25    8   26 1
    26    9   27 1
    27   10   28 1
