@<TRIPOS>MOLECULE
*****
   30    30     0     0     0
SMALL
NO_CHARGES

@<TRIPOS>ATOM
      1 C1          5.8143   -2.5349   -1.2673 C.ar      1 <0>         0.0000
      2 C2          5.3495   -3.1196   -0.0866 C.ar      1 <0>         0.0000
      3 C3          5.3353   -1.2764   -1.6551 C.ar      1 <0>         0.0000
      4 C4          4.4110   -2.4453    0.7046 C.ar      1 <0>         0.0000
      5 C5          4.4022   -0.6049   -0.8639 C.ar      1 <0>         0.0000
      6 C6          3.9343   -1.1830    0.3273 C.ar      1 <0>         0.0000
      7 C7          5.6492    1.1063    3.3192 C.2       1 <0>         0.0000
      8 C8          7.0013    0.4953    3.6458 C.3       1 <0>         0.0000
      9 C9          2.5673    1.3697    2.9401 C.3       1 <0>         0.0000
     10 C10         2.9475   -0.4328    1.2025 C.3       1 <0>         0.0000
     11 C11         3.5713    0.7864    1.9203 C.3       1 <0>         0.0000
     12 N1          4.8408    0.3513    2.5254 N.am      1 <0>         0.0000
     13 O1          5.3375    2.2142    3.7728 O.2       1 <0>         0.0000
     14 O2          2.7241    2.7533    3.1771 O.3       1 <0>         0.0000
     15 O3          1.8618    0.0940    0.4348 O.3       1 <0>         0.0000
     16 H1          6.5407   -3.0562   -1.8852 H         1 <0>         0.0000
     17 H2          5.7094   -4.0994    0.2163 H         1 <0>         0.0000
     18 H3          5.6916   -0.8207   -2.5754 H         1 <0>         0.0000
     19 H4          4.0434   -2.9079    1.6188 H         1 <0>         0.0000
     20 H5          4.0262    0.3692   -1.1642 H         1 <0>         0.0000
     21 H6          7.7823    1.1423    3.2366 H         1 <0>         0.0000
     22 H7          7.1242    0.4794    4.7315 H         1 <0>         0.0000
     23 H8          7.1346   -0.5164    3.2533 H         1 <0>         0.0000
     24 H9          2.6352    0.7805    3.8687 H         1 <0>         0.0000
     25 H10         1.5654    1.2442    2.5255 H         1 <0>         0.0000
     26 H11         2.5690   -1.1225    1.9731 H         1 <0>         0.0000
     27 H12         3.7638    1.5579    1.1644 H         1 <0>         0.0000
     28 H13         5.2716   -0.4642    2.1071 H         1 <0>         0.0000
     29 H14         3.6414    2.8670    3.5035 H         1 <0>         0.0000
     30 H15         1.4609   -0.6418   -0.0545 H         1 <0>         0.0000
@<TRIPOS>BOND
     1    1    3 ar
     2    1    2 ar
     3    1   16 1
     4    2    4 ar
     5    2   17 1
     6    3    5 ar
     7    3   18 1
     8    4    6 ar
     9    4   19 1
    10    5    6 ar
    11    5   20 1
    12    6   10 1
    13    7    8 1
    14    7   12 am
    15    7   13 2
    16    8   21 1
    17    8   22 1
    18    8   23 1
    19    9   11 1
    20    9   14 1
    21    9   24 1
    22    9   25 1
    23   10   11 1
    24   10   15 1
    25   10   26 1
    26   11   12 1
    27   11   27 1
    28   12   28 1
    29   14   29 1
    30   15   30 1
