@<TRIPOS>MOLECULE
*****
   25    24     0     0     0
SMALL
NO_CHARGES

@<TRIPOS>ATOM
      1 C1          1.8984   -0.5994    2.7842 C.2       1 <0>         0.0000
      2 C2         -0.5013   -2.2873    2.1122 C.2       1 <0>         0.0000
      3 C3          2.8962    0.3746    3.3916 C.3       1 <0>         0.0000
      4 C4         -0.1457   -0.6246    0.2419 C.3       1 <0>         0.0000
      5 C5         -0.6568   -4.0255    3.8048 C.3       1 <0>         0.0000
      6 C6         -0.7652   -1.6817    4.5371 C.3       1 <0>         0.0000
      7 C7         -0.3735   -0.7864    1.7468 C.3       1 <0>         0.0000
      8 N1          0.6555   -0.0816    2.5223 N.am      1 <0>         0.0000
      9 N2         -0.7235   -2.6177    3.4254 N.am      1 <0>         0.0000
     10 O1          2.1868   -1.7723    2.5618 O.2       1 <0>         0.0000
     11 O2         -0.4930   -3.1269    1.2147 O.2       1 <0>         0.0000
     12 H1          3.3989   -0.1147    4.2286 H         1 <0>         0.0000
     13 H2          3.6576    0.6085    2.6411 H         1 <0>         0.0000
     14 H3          2.4448    1.3093    3.7372 H         1 <0>         0.0000
     15 H4          0.7889   -1.1086   -0.0480 H         1 <0>         0.0000
     16 H5         -0.9558   -1.0900   -0.3228 H         1 <0>         0.0000
     17 H6         -0.0975    0.4400   -0.0120 H         1 <0>         0.0000
     18 H7          0.2276   -4.2083    4.4286 H         1 <0>         0.0000
     19 H8         -0.5902   -4.6307    2.9030 H         1 <0>         0.0000
     20 H9         -1.5529   -4.3087    4.3696 H         1 <0>         0.0000
     21 H10        -1.4539   -2.0710    5.2945 H         1 <0>         0.0000
     22 H11        -1.1315   -0.7044    4.2255 H         1 <0>         0.0000
     23 H12         0.2211   -1.5524    5.0032 H         1 <0>         0.0000
     24 H13        -1.3272   -0.3139    2.0150 H         1 <0>         0.0000
     25 H14         0.5375    0.9182    2.6216 H         1 <0>         0.0000
@<TRIPOS>BOND
     1    1    3 1
     2    1    8 am
     3    1   10 2
     4    2    7 1
     5    2    9 am
     6    2   11 2
     7    3   12 1
     8    3   13 1
     9    3   14 1
    10    4    7 1
    11    4   15 1
    12    4   16 1
    13    4   17 1
    14    5    9 1
    15    5   18 1
    16    5   19 1
    17    5   20 1
    18    6    9 1
    19    6   21 1
    20    6   22 1
    21    6   23 1
    22    7    8 1
    23    7   24 1
    24    8   25 1
