@<TRIPOS>MOLECULE
*****
   34    35     0     0     0
SMALL
NO_CHARGES

@<TRIPOS>ATOM
      1 C1         -6.9304    0.4571    0.5150 C.2       1 <0>         0.0000
      2 C2         -6.0957    0.4023   -0.6383 C.2       1 <0>         0.0000
      3 C3         -6.6572   -0.3169    1.6099 C.2       1 <0>         0.0000
      4 C4         -5.0221   -0.4419   -0.6195 C.2       1 <0>         0.0000
      5 C5         -5.5222   -1.2142    1.6520 C.2       1 <0>         0.0000
      6 C6         -2.2772   -1.3555    0.1180 C.2       1 <0>         0.0000
      7 C7         -2.2359   -0.4961    2.4901 C.3       1 <0>         0.0000
      8 C8         -0.5060    0.1464    0.8777 C.3       1 <0>         0.0000
      9 C9         -1.1371   -0.7932    3.5093 C.3       1 <0>         0.0000
     10 C10         0.5570   -0.1679    1.9279 C.3       1 <0>         0.0000
     11 C11         1.0600   -0.1683    4.2905 C.3       1 <0>         0.0000
     12 C12        -3.5754   -2.1222    0.4046 C.3       1 <0>         0.0000
     13 N1         -4.7346   -1.2184    0.4730 N.am      1 <0>         0.0000
     14 N2         -1.7130   -0.6428    1.1309 N.am      1 <0>         0.0000
     15 N3          0.0345    0.0504    3.2771 N.3       1 <0>         0.0000
     16 O1         -5.2153   -1.9305    2.6164 O.2       1 <0>         0.0000
     17 O2         -1.8073   -1.3940   -1.0254 O.2       1 <0>         0.0000
     18 H1         -7.7928    1.1198    0.5233 H         1 <0>         0.0000
     19 H2         -6.2944    1.0034   -1.5179 H         1 <0>         0.0000
     20 H3         -7.2756   -0.2970    2.5008 H         1 <0>         0.0000
     21 H4         -4.3360   -0.5421   -1.4548 H         1 <0>         0.0000
     22 H5         -3.0823   -1.1577    2.6628 H         1 <0>         0.0000
     23 H6         -2.5825    0.5372    2.6239 H         1 <0>         0.0000
     24 H7         -0.7627    1.2128    0.9243 H         1 <0>         0.0000
     25 H8         -0.1495   -0.0879   -0.1245 H         1 <0>         0.0000
     26 H9         -1.5256   -0.5930    4.5133 H         1 <0>         0.0000
     27 H10        -0.8799   -1.8698    3.4581 H         1 <0>         0.0000
     28 H11         0.9039   -1.2106    1.7894 H         1 <0>         0.0000
     29 H12         1.4176    0.4915    1.7717 H         1 <0>         0.0000
     30 H13         0.6502    0.0482    5.2823 H         1 <0>         0.0000
     31 H14         1.9016    0.5097    4.1156 H         1 <0>         0.0000
     32 H15         1.4475   -1.2046    4.2964 H         1 <0>         0.0000
     33 H16        -3.5554   -2.6878    1.3346 H         1 <0>         0.0000
     34 H17        -3.7077   -2.8121   -0.4302 H         1 <0>         0.0000
@<TRIPOS>BOND
     1    1    3 2
     2    1    2 1
     3    1   18 1
     4    2    4 2
     5    2   19 1
     6    3    5 1
     7    3   20 1
     8    4   13 1
     9    4   21 1
    10    5   13 am
    11    5   16 2
    12    6   12 1
    13    6   14 am
    14    6   17 2
    15    7    9 1
    16    7   14 1
    17    7   22 1
    18    7   23 1
    19    8   10 1
    20    8   14 1
    21    8   24 1
    22    8   25 1
    23    9   15 1
    24    9   26 1
    25    9   27 1
    26   10   15 1
    27   10   28 1
    28   10   29 1
    29   11   15 1
    30   11   30 1
    31   11   31 1
    32   11   32 1
    33   12   13 1
    34   12   33 1
    35   12   34 1
