@<TRIPOS>MOLECULE
*****
   30    31     0     0     0
SMALL
NO_CHARGES

@<TRIPOS>ATOM
      1 C1          2.2830   -3.3605    7.5354 C.ar      1 <0>         0.0000
      2 C2          3.3950   -0.0599    0.7230 C.ar      1 <0>         0.0000
      3 C3          2.5549   -3.6158    6.1871 C.ar      1 <0>         0.0000
      4 C4          1.8910   -2.0722    7.9169 C.ar      1 <0>         0.0000
      5 C5          2.1266    0.4243    1.0662 C.ar      1 <0>         0.0000
      6 C6          4.2063   -0.5879    1.7239 C.ar      1 <0>         0.0000
      7 C7          2.4376   -2.6075    5.2285 C.ar      1 <0>         0.0000
      8 C8          1.7960   -1.0513    6.9703 C.ar      1 <0>         0.0000
      9 C9          1.6748    0.3393    2.3801 C.ar      1 <0>         0.0000
     10 C10         3.7920   -0.6256    3.0647 C.ar      1 <0>         0.0000
     11 C11         2.0718   -1.3078    5.6166 C.ar      1 <0>         0.0000
     12 C12         2.4853   -0.1926    3.4028 C.ar      1 <0>         0.0000
     13 C13         4.8084   -1.1115    4.0449 C.2       1 <0>         0.0000
     14 C14         5.5881   -0.9948    6.2688 C.3       1 <0>         0.0000
     15 N1          1.9571   -0.2479    4.6960 N.pl3     1 <0>         0.0000
     16 O1          5.6364   -1.9718    3.7942 O.2       1 <0>         0.0000
     17 O2          4.7436   -0.4658    5.2277 O.3       1 <0>         0.0000
     18 H1          2.3718   -4.1514    8.2748 H         1 <0>         0.0000
     19 H2          3.7438   -0.0217   -0.3047 H         1 <0>         0.0000
     20 H3          2.8506   -4.6128    5.8707 H         1 <0>         0.0000
     21 H4          1.6748   -1.8543    8.9599 H         1 <0>         0.0000
     22 H5          1.4749    0.8428    0.3035 H         1 <0>         0.0000
     23 H6          5.1985   -0.9631    1.4922 H         1 <0>         0.0000
     24 H7          2.6309   -2.8316    4.1847 H         1 <0>         0.0000
     25 H8          1.5297   -0.0425    7.2776 H         1 <0>         0.0000
     26 H9          0.6664    0.6649    2.6272 H         1 <0>         0.0000
     27 H10         5.4016   -0.3655    7.1386 H         1 <0>         0.0000
     28 H11         6.6386   -0.9500    5.9729 H         1 <0>         0.0000
     29 H12         5.3087   -2.0296    6.4811 H         1 <0>         0.0000
     30 H13         1.1659    0.3625    4.8530 H         1 <0>         0.0000
@<TRIPOS>BOND
     1    1    4 ar
     2    1    3 ar
     3    1   18 1
     4    2    5 ar
     5    2    6 ar
     6    2   19 1
     7    3    7 ar
     8    3   20 1
     9    4    8 ar
    10    4   21 1
    11    5    9 ar
    12    5   22 1
    13    6   10 ar
    14    6   23 1
    15    7   11 ar
    16    7   24 1
    17    8   11 ar
    18    8   25 1
    19    9   12 ar
    20    9   26 1
    21   10   12 ar
    22   10   13 1
    23   11   15 1
    24   12   15 1
    25   13   16 2
    26   13   17 1
    27   14   17 1
    28   14   27 1
    29   14   28 1
    30   14   29 1
    31   15   30 1
