@<TRIPOS>MOLECULE
*****
   28    27     0     0     0
SMALL
NO_CHARGES

@<TRIPOS>ATOM
      1 C1         -1.7665   -0.9754    0.2195 C.2       1 <0>         0.0000
      2 C2         -4.5772   -2.5852    0.7157 C.2       1 <0>         0.0000
      3 C3         -0.3046   -1.0866   -1.8061 C.3       1 <0>         0.0000
      4 C4          0.4161    0.2395    0.2393 C.3       1 <0>         0.0000
      5 C5         -3.8517   -0.9511    2.5447 C.3       1 <0>         0.0000
      6 C6         -5.8744   -2.0240   -1.2828 C.3       1 <0>         0.0000
      7 C7         -0.3199   -1.0102   -0.2711 C.3       1 <0>         0.0000
      8 C8         -3.4555   -2.1632    1.6906 C.3       1 <0>         0.0000
      9 N1         -4.8522   -1.7212   -0.2910 N.am      1 <0>         0.0000
     10 N2         -2.1426   -1.9942    1.0395 N.am      1 <0>         0.0000
     11 O1         -2.5349   -0.0645   -0.1223 O.2       1 <0>         0.0000
     12 O2         -5.1932   -3.6390    0.8973 O.2       1 <0>         0.0000
     13 H1         -0.8151   -0.2178   -2.2307 H         1 <0>         0.0000
     14 H2          0.7263   -1.1000   -2.1746 H         1 <0>         0.0000
     15 H3         -0.8080   -1.9894   -2.1680 H         1 <0>         0.0000
     16 H4         -0.0777    1.1429   -0.1288 H         1 <0>         0.0000
     17 H5          1.4523    0.2392   -0.1141 H         1 <0>         0.0000
     18 H6          0.4287    0.2787    1.3337 H         1 <0>         0.0000
     19 H7         -3.9676   -0.0521    1.9389 H         1 <0>         0.0000
     20 H8         -4.7987   -1.1620    3.0503 H         1 <0>         0.0000
     21 H9         -3.0864   -0.7636    3.3046 H         1 <0>         0.0000
     22 H10        -5.5966   -2.8911   -1.8927 H         1 <0>         0.0000
     23 H11        -5.9996   -1.1548   -1.9316 H         1 <0>         0.0000
     24 H12        -6.8254   -2.2487   -0.7924 H         1 <0>         0.0000
     25 H13         0.1796   -1.9007    0.1318 H         1 <0>         0.0000
     26 H14        -3.3442   -3.0286    2.3455 H         1 <0>         0.0000
     27 H15        -4.2456   -0.9103   -0.4043 H         1 <0>         0.0000
     28 H16        -1.4677   -2.7307    1.1941 H         1 <0>         0.0000
@<TRIPOS>BOND
     1    1    7 1
     2    1   10 am
     3    1   11 2
     4    2    8 1
     5    2    9 am
     6    2   12 2
     7    3    7 1
     8    3   13 1
     9    3   14 1
    10    3   15 1
    11    4    7 1
    12    4   16 1
    13    4   17 1
    14    4   18 1
    15    5    8 1
    16    5   19 1
    17    5   20 1
    18    5   21 1
    19    6    9 1
    20    6   22 1
    21    6   23 1
    22    6   24 1
    23    7   25 1
    24    8   10 1
    25    8   26 1
    26    9   27 1
    27   10   28 1
