@<TRIPOS>MOLECULE
*****
   36    37     0     0     0
SMALL
NO_CHARGES

@<TRIPOS>ATOM
      1 C1          0.9492   -0.0363    0.3247 C.2       1 <0>         0.0000
      2 C2          0.8189   -0.4661    3.4899 C.3       1 <0>         0.0000
      3 C3         -0.0088    0.7518    3.9142 C.3       1 <0>         0.0000
      4 C4          2.0230   -0.0150    2.6551 C.3       1 <0>         0.0000
      5 C5         -0.4384    1.5470    2.6822 C.3       1 <0>         0.0000
      6 C6          1.1656   -1.7916   -1.3736 C.3       1 <0>         0.0000
      7 C7          3.2017   -1.0069   -0.2995 C.3       1 <0>         0.0000
      8 C8          1.7389   -1.3901   -2.7316 C.3       1 <0>         0.0000
      9 C9          3.7547   -0.6160   -1.6729 C.3       1 <0>         0.0000
     10 C10         1.5927    0.8312    1.4370 C.3       1 <0>         0.0000
     11 C11         3.7695   -1.1604   -4.0236 C.3       1 <0>         0.0000
     12 N1          0.7398    1.9339    1.8802 N.3       1 <0>         0.0000
     13 N2          1.7404   -0.9667   -0.3086 N.am      1 <0>         0.0000
     14 N3          3.2017   -1.4747   -2.7179 N.3       1 <0>         0.0000
     15 O1         -0.2428    0.0972    0.0320 O.2       1 <0>         0.0000
     16 H1          1.1664   -1.0267    4.3654 H         1 <0>         0.0000
     17 H2          0.1936   -1.1492    2.9004 H         1 <0>         0.0000
     18 H3         -0.8962    0.4422    4.4778 H         1 <0>         0.0000
     19 H4          0.5940    1.3914    4.5715 H         1 <0>         0.0000
     20 H5          2.6769    0.6091    3.2756 H         1 <0>         0.0000
     21 H6          2.6061   -0.8822    2.3338 H         1 <0>         0.0000
     22 H7         -1.1562    0.9555    2.0992 H         1 <0>         0.0000
     23 H8         -0.9358    2.4737    2.9898 H         1 <0>         0.0000
     24 H9          0.0843   -1.6641   -1.3567 H         1 <0>         0.0000
     25 H10         1.4115   -2.8412   -1.1705 H         1 <0>         0.0000
     26 H11         3.5251   -2.0276   -0.0589 H         1 <0>         0.0000
     27 H12         3.6071   -0.3416    0.4590 H         1 <0>         0.0000
     28 H13         1.3561   -2.0683   -3.5022 H         1 <0>         0.0000
     29 H14         1.3925   -0.3686   -2.9808 H         1 <0>         0.0000
     30 H15         3.5267    0.4530   -1.8589 H         1 <0>         0.0000
     31 H16         4.8450   -0.7263   -1.6656 H         1 <0>         0.0000
     32 H17         2.4910    1.2946    1.0104 H         1 <0>         0.0000
     33 H18         3.3722   -1.8518   -4.7734 H         1 <0>         0.0000
     34 H19         4.8572   -1.2817   -3.9927 H         1 <0>         0.0000
     35 H20         3.5468   -0.1284   -4.3547 H         1 <0>         0.0000
     36 H21         0.4100    2.4337    1.0576 H         1 <0>         0.0000
@<TRIPOS>BOND
     1    1   10 1
     2    1   13 am
     3    1   15 2
     4    2    3 1
     5    2    4 1
     6    2   16 1
     7    2   17 1
     8    3    5 1
     9    3   18 1
    10    3   19 1
    11    4   10 1
    12    4   20 1
    13    4   21 1
    14    5   12 1
    15    5   22 1
    16    5   23 1
    17    6    8 1
    18    6   13 1
    19    6   24 1
    20    6   25 1
    21    7    9 1
    22    7   13 1
    23    7   26 1
    24    7   27 1
    25    8   14 1
    26    8   28 1
    27    8   29 1
    28    9   14 1
    29    9   30 1
    30    9   31 1
    31   10   12 1
    32   10   32 1
    33   11   14 1
    34   11   33 1
    35   11   34 1
    36   11   35 1
    37   12   36 1
