@<TRIPOS>MOLECULE
*****
   22    22     0     0     0
SMALL
NO_CHARGES

@<TRIPOS>ATOM
      1 C1         -0.3177   -1.5663    0.1311 C.ar      1 <0>         0.0000
      2 C2          1.0328   -1.6725   -0.2160 C.ar      1 <0>         0.0000
      3 C3         -0.4916   -3.8570    0.1021 C.ar      1 <0>         0.0000
      4 C4          0.8964   -3.9615   -0.2552 C.ar      1 <0>         0.0000
      5 C5         -1.3567   -5.0675    0.2829 C.2       1 <0>         0.0000
      6 C6          2.9030   -5.2753   -0.8107 C.3       1 <0>         0.0000
      7 C7         -3.6083   -5.8710    0.8271 C.3       1 <0>         0.0000
      8 N1         -1.0632   -2.6667    0.2857 N.ar      1 <0>         0.0000
      9 N2          1.6411   -2.8419   -0.4087 N.ar      1 <0>         0.0000
     10 N3          1.5007   -5.1541   -0.4477 N.pl3     1 <0>         0.0000
     11 N4         -2.6386   -4.8068    0.6271 N.am      1 <0>         0.0000
     12 O1         -0.9280   -6.2272    0.1296 O.2       1 <0>         0.0000
     13 H1         -0.7964   -0.6028    0.2836 H         1 <0>         0.0000
     14 H2          1.6432   -0.7791   -0.3426 H         1 <0>         0.0000
     15 H3          3.1132   -4.7758   -1.7624 H         1 <0>         0.0000
     16 H4          3.1386   -6.3371   -0.9052 H         1 <0>         0.0000
     17 H5          3.5518   -4.8310   -0.0485 H         1 <0>         0.0000
     18 H6         -4.5481   -5.4309    1.1659 H         1 <0>         0.0000
     19 H7         -3.2515   -6.5806    1.5796 H         1 <0>         0.0000
     20 H8         -3.7849   -6.4237   -0.1017 H         1 <0>         0.0000
     21 H9          0.9048   -5.9704   -0.3250 H         1 <0>         0.0000
     22 H10        -2.8923   -3.8296    0.7149 H         1 <0>         0.0000
@<TRIPOS>BOND
     1    1    2 ar
     2    1    8 ar
     3    1   13 1
     4    2    9 ar
     5    2   14 1
     6    3    4 ar
     7    3    5 1
     8    3    8 ar
     9    4    9 ar
    10    4   10 1
    11    5   11 am
    12    5   12 2
    13    6   10 1
    14    6   15 1
    15    6   16 1
    16    6   17 1
    17    7   11 1
    18    7   18 1
    19    7   19 1
    20    7   20 1
    21   10   21 1
    22   11   22 1
