@<TRIPOS>MOLECULE
*****
   27    27     0     0     0
SMALL
NO_CHARGES

@<TRIPOS>ATOM
      1 C1         -1.8400   -0.6714   -1.2265 C.2       1 <0>         0.0000
      2 C2          1.4555   -1.2819    0.4365 C.3       1 <0>         0.0000
      3 C3          0.0463   -1.8241    0.0753 C.3       1 <0>         0.0000
      4 C4          1.2462    0.2307    0.5906 C.3       1 <0>         0.0000
      5 C5         -0.8319   -0.5655   -0.0737 C.3       1 <0>         0.0000
      6 C6         -3.9831    1.1933   -2.8257 C.3       1 <0>         0.0000
      7 C7         -0.4182    1.8520   -0.1781 C.3       1 <0>         0.0000
      8 C8         -4.1218   -0.0690   -1.9686 C.3       1 <0>         0.0000
      9 N1          0.1310    0.5147   -0.3139 N.3       1 <0>         0.0000
     10 N2         -3.0853   -0.1779   -0.9451 N.am      1 <0>         0.0000
     11 O1         -1.5547   -1.1652   -2.3151 O.2       1 <0>         0.0000
     12 H1          1.8613   -1.7306    1.3473 H         1 <0>         0.0000
     13 H2          2.1571   -1.4828   -0.3770 H         1 <0>         0.0000
     14 H3          0.0620   -2.3661   -0.8713 H         1 <0>         0.0000
     15 H4         -0.3584   -2.4884    0.8435 H         1 <0>         0.0000
     16 H5          0.9886    0.4818    1.6394 H         1 <0>         0.0000
     17 H6          2.1234    0.8238    0.3117 H         1 <0>         0.0000
     18 H7         -1.3825   -0.3824    0.8733 H         1 <0>         0.0000
     19 H8         -4.0599    2.0986   -2.2129 H         1 <0>         0.0000
     20 H9         -3.0153    1.1976   -3.3343 H         1 <0>         0.0000
     21 H10        -4.7720    1.2290   -3.5851 H         1 <0>         0.0000
     22 H11        -1.1941    2.0212   -0.9307 H         1 <0>         0.0000
     23 H12         0.3719    2.5910   -0.3429 H         1 <0>         0.0000
     24 H13        -0.8564    2.0367    0.8240 H         1 <0>         0.0000
     25 H14        -4.0446   -0.9581   -2.5981 H         1 <0>         0.0000
     26 H15        -5.0948   -0.0956   -1.4675 H         1 <0>         0.0000
     27 H16        -3.2145    0.3123   -0.0698 H         1 <0>         0.0000
@<TRIPOS>BOND
     1    1    5 1
     2    1   10 am
     3    1   11 2
     4    2    3 1
     5    2    4 1
     6    2   12 1
     7    2   13 1
     8    3    5 1
     9    3   14 1
    10    3   15 1
    11    4    9 1
    12    4   16 1
    13    4   17 1
    14    5    9 1
    15    5   18 1
    16    6    8 1
    17    6   19 1
    18    6   20 1
    19    6   21 1
    20    7    9 1
    21    7   22 1
    22    7   23 1
    23    7   24 1
    24    8   10 1
    25    8   25 1
    26    8   26 1
    27   10   27 1
