@<TRIPOS>MOLECULE
*****
   34    35     0     0     0
SMALL
NO_CHARGES

@<TRIPOS>ATOM
      1 C1         -2.8567   -3.8945   -1.1239 C.2       1 <0>         0.0000
      2 C2         -2.5265   -2.6825   -1.7959 C.2       1 <0>         0.0000
      3 C3         -3.6545   -3.8789   -0.0123 C.2       1 <0>         0.0000
      4 C4         -3.0280   -1.5120   -1.3016 C.2       1 <0>         0.0000
      5 C5         -4.1905   -2.6489    0.5312 C.2       1 <0>         0.0000
      6 C6         -3.1415    0.7728    0.5694 C.2       1 <0>         0.0000
      7 C7         -2.5841   -0.5099    2.6649 C.3       1 <0>         0.0000
      8 C8         -1.1702    1.3203    1.8996 C.3       1 <0>         0.0000
      9 C9         -1.3977   -1.4672    2.5457 C.3       1 <0>         0.0000
     10 C10         0.0027    0.3444    1.7897 C.3       1 <0>         0.0000
     11 C11         1.0036   -1.6569    2.6968 C.3       1 <0>         0.0000
     12 C12        -4.3141   -0.1770    0.2904 C.3       1 <0>         0.0000
     13 N1         -3.8230   -1.4819   -0.1853 N.am      1 <0>         0.0000
     14 N2         -2.4302    0.5960    1.7175 N.am      1 <0>         0.0000
     15 N3         -0.1375   -0.7508    2.7515 N.3       1 <0>         0.0000
     16 O1         -4.9001   -2.5689    1.5442 O.2       1 <0>         0.0000
     17 O2         -2.8671    1.6381   -0.2704 O.2       1 <0>         0.0000
     18 H1         -2.4706   -4.8396   -1.4988 H         1 <0>         0.0000
     19 H2         -1.9006   -2.6703   -2.6805 H         1 <0>         0.0000
     20 H3         -3.9225   -4.7851    0.5202 H         1 <0>         0.0000
     21 H4         -2.8204   -0.5458   -1.7505 H         1 <0>         0.0000
     22 H5         -3.5181   -1.0453    2.5081 H         1 <0>         0.0000
     23 H6         -2.6012   -0.0869    3.6763 H         1 <0>         0.0000
     24 H7         -1.1749    1.7832    2.8929 H         1 <0>         0.0000
     25 H8         -1.1052    2.0979    1.1399 H         1 <0>         0.0000
     26 H9         -1.4906   -2.2477    3.3081 H         1 <0>         0.0000
     27 H10        -1.4291   -1.9626    1.5557 H         1 <0>         0.0000
     28 H11         0.0575   -0.0314    0.7491 H         1 <0>         0.0000
     29 H12         0.9366    0.8778    1.9985 H         1 <0>         0.0000
     30 H13         0.8939   -2.4342    3.4597 H         1 <0>         0.0000
     31 H14         1.9248   -1.1035    2.9055 H         1 <0>         0.0000
     32 H15         1.1140   -2.1524    1.7135 H         1 <0>         0.0000
     33 H16        -4.9078    0.2918   -0.4958 H         1 <0>         0.0000
     34 H17        -4.9492   -0.3680    1.1537 H         1 <0>         0.0000
@<TRIPOS>BOND
     1    1    3 2
     2    1    2 1
     3    1   18 1
     4    2    4 2
     5    2   19 1
     6    3    5 1
     7    3   20 1
     8    4   13 1
     9    4   21 1
    10    5   13 am
    11    5   16 2
    12    6   12 1
    13    6   14 am
    14    6   17 2
    15    7    9 1
    16    7   14 1
    17    7   22 1
    18    7   23 1
    19    8   10 1
    20    8   14 1
    21    8   24 1
    22    8   25 1
    23    9   15 1
    24    9   26 1
    25    9   27 1
    26   10   15 1
    27   10   28 1
    28   10   29 1
    29   11   15 1
    30   11   30 1
    31   11   31 1
    32   11   32 1
    33   12   13 1
    34   12   33 1
    35   12   34 1
