@<TRIPOS>MOLECULE
*****
   18    18     0     0     0
SMALL
NO_CHARGES

@<TRIPOS>ATOM
      1 C1         -0.0961    0.4850   -1.9784 C.2       1 <0>         0.0000
      2 C2         -0.9399    0.3391   -3.0365 C.2       1 <0>         0.0000
      3 C3         -0.2658   -0.5080   -0.9494 C.2       1 <0>         0.0000
      4 C4         -1.2761   -1.4230   -1.2791 C.2       1 <0>         0.0000
      5 C5          0.4788   -0.6361    0.3028 C.2       1 <0>         0.0000
      6 C6         -2.6334   -3.4696   -1.0156 C.3       1 <0>         0.0000
      7 N1          1.4238    0.3351    0.5846 N.am      1 <0>         0.0000
      8 N2         -1.7010   -2.4699   -0.5338 N.pl3     1 <0>         0.0000
      9 O1          0.3186   -1.5911    1.0872 O.2       1 <0>         0.0000
     10 S1         -1.9988   -1.0462   -2.8313 S.3       1 <0>         0.0000
     11 H1          0.6515    1.2715   -1.9468 H         1 <0>         0.0000
     12 H2         -1.0111    0.9339   -3.9370 H         1 <0>         0.0000
     13 H3         -2.2503   -4.0020   -1.8978 H         1 <0>         0.0000
     14 H4         -3.5950   -3.0122   -1.2795 H         1 <0>         0.0000
     15 H5         -2.8107   -4.1956   -0.2205 H         1 <0>         0.0000
     16 H6          1.7659    0.3115    1.5382 H         1 <0>         0.0000
     17 H7          1.3116    1.2570    0.1842 H         1 <0>         0.0000
     18 H8         -1.1190   -2.6342    0.2884 H         1 <0>         0.0000
@<TRIPOS>BOND
     1    1    2 2
     2    1    3 1
     3    1   11 1
     4    2   10 1
     5    2   12 1
     6    3    4 2
     7    3    5 1
     8    4    8 1
     9    4   10 1
    10    5    7 am
    11    5    9 2
    12    6    8 1
    13    6   13 1
    14    6   14 1
    15    6   15 1
    16    7   16 1
    17    7   17 1
    18    8   18 1
