@<TRIPOS>MOLECULE
*****
   24    24     0     0     0
SMALL
NO_CHARGES

@<TRIPOS>ATOM
      1 C1          1.7115   -1.1286   -0.3949 C.ar      1 <0>         0.0000
      2 C2          0.6273   -0.5118    0.2316 C.ar      1 <0>         0.0000
      3 C3          2.7033   -1.7541    0.3614 C.ar      1 <0>         0.0000
      4 C4          1.5236   -1.1319    2.4145 C.ar      1 <0>         0.0000
      5 C5          0.5317   -0.5132    1.6296 C.ar      1 <0>         0.0000
      6 C6          2.5958   -1.7548    1.7543 C.ar      1 <0>         0.0000
      7 C7          1.4456   -1.0698    3.9220 C.2       1 <0>         0.0000
      8 C8          1.6182   -2.3642    6.0013 C.3       1 <0>         0.0000
      9 C9          4.5480   -1.5685    3.0885 C.3       1 <0>         0.0000
     10 N1          1.5088   -2.2825    4.5512 N.am      1 <0>         0.0000
     11 O1          1.3267   -0.0063    4.5277 O.2       1 <0>         0.0000
     12 O2         -0.5342    0.0458    2.2762 O.3       1 <0>         0.0000
     13 O3          3.5661   -2.4263    2.4834 O.3       1 <0>         0.0000
     14 H1          1.7774   -1.1239   -1.4795 H         1 <0>         0.0000
     15 H2         -0.1506   -0.0352   -0.3624 H         1 <0>         0.0000
     16 H3          3.5516   -2.2479   -0.1020 H         1 <0>         0.0000
     17 H4          2.6274   -2.1133    6.3536 H         1 <0>         0.0000
     18 H5          1.3683   -3.3785    6.3216 H         1 <0>         0.0000
     19 H6          0.9164   -1.6611    6.4518 H         1 <0>         0.0000
     20 H7          5.2460   -2.2237    3.6131 H         1 <0>         0.0000
     21 H8          4.0882   -0.8736    3.7996 H         1 <0>         0.0000
     22 H9          5.0824   -0.9991    2.3187 H         1 <0>         0.0000
     23 H10         1.8423   -3.0636    4.0005 H         1 <0>         0.0000
     24 H11        -1.1365    0.4260    1.6174 H         1 <0>         0.0000
@<TRIPOS>BOND
     1    1    2 ar
     2    1    3 ar
     3    1   14 1
     4    2    5 ar
     5    2   15 1
     6    3    6 ar
     7    3   16 1
     8    4    5 ar
     9    4    6 ar
    10    4    7 1
    11    5   12 1
    12    6   13 1
    13    7   10 am
    14    7   11 2
    15    8   10 1
    16    8   17 1
    17    8   18 1
    18    8   19 1
    19    9   13 1
    20    9   20 1
    21    9   21 1
    22    9   22 1
    23   10   23 1
    24   12   24 1
