@<TRIPOS>MOLECULE
*****
   18    18     0     0     0
SMALL
NO_CHARGES

@<TRIPOS>ATOM
      1 C1         -0.2567    0.8328   -2.1103 C.2       1 <0>         0.0000
      2 C2         -0.9600    0.5111   -3.2287 C.2       1 <0>         0.0000
      3 C3         -0.4630   -0.0650   -1.0024 C.2       1 <0>         0.0000
      4 C4         -1.3620   -1.0923   -1.3312 C.2       1 <0>         0.0000
      5 C5          0.1407    0.0039    0.3292 C.2       1 <0>         0.0000
      6 C6         -2.6917   -3.1557   -0.8419 C.3       1 <0>         0.0000
      7 N1          1.0104    1.0353    0.5832 N.am      1 <0>         0.0000
      8 N2         -1.7640   -2.0913   -0.5148 N.pl3     1 <0>         0.0000
      9 O1         -0.1050   -0.8297    1.2260 O.2       1 <0>         0.0000
     10 S1         -1.9308   -0.9327   -2.9858 S.3       1 <0>         0.0000
     11 H1          0.3979    1.6988   -2.0825 H         1 <0>         0.0000
     12 H2         -0.9853    1.0128   -4.1864 H         1 <0>         0.0000
     13 H3         -3.0424   -3.0543   -1.8706 H         1 <0>         0.0000
     14 H4         -3.5678   -3.1279   -0.1833 H         1 <0>         0.0000
     15 H5         -2.2118   -4.1368   -0.7451 H         1 <0>         0.0000
     16 H6          1.4250    1.0791    1.5039 H         1 <0>         0.0000
     17 H7          1.2489    1.7392   -0.0978 H         1 <0>         0.0000
     18 H8         -1.3366   -2.0342    0.4128 H         1 <0>         0.0000
@<TRIPOS>BOND
     1    1    2 2
     2    1    3 1
     3    1   11 1
     4    2   10 1
     5    2   12 1
     6    3    4 2
     7    3    5 1
     8    4    8 1
     9    4   10 1
    10    5    7 am
    11    5    9 2
    12    6    8 1
    13    6   13 1
    14    6   14 1
    15    6   15 1
    16    7   16 1
    17    7   17 1
    18    8   18 1
