@<TRIPOS>MOLECULE
*****
   37    38     0     0     0
SMALL
NO_CHARGES

@<TRIPOS>ATOM
      1 C1         -1.0646   -0.9194    2.2299 C.2       1 <0>         0.0000
      2 C2         -1.2336   -1.0417   -2.3818 C.3       1 <0>         0.0000
      3 C3          0.1670   -1.1582   -3.0239 C.3       1 <0>         0.0000
      4 C4         -1.1939    2.0545    0.1071 C.3       1 <0>         0.0000
      5 C5         -1.3179   -1.0559   -0.8451 C.3       1 <0>         0.0000
      6 C6         -0.1298    1.2315   -0.6231 C.3       1 <0>         0.0000
      7 C7         -1.1462    1.4820    1.5246 C.3       1 <0>         0.0000
      8 C8          1.2596   -1.8463   -2.1975 C.3       1 <0>         0.0000
      9 C9          1.0779   -0.9058    0.0623 C.3       1 <0>         0.0000
     10 C10        -0.2890   -0.2015   -0.0665 C.3       1 <0>         0.0000
     11 C11        -1.6059   -0.4645    3.5798 C.3       1 <0>         0.0000
     12 C12         3.2241   -1.3709   -0.8753 C.3       1 <0>         0.0000
     13 N1         -0.8214    0.0626    1.3118 N.am      1 <0>         0.0000
     14 N2          1.8528   -0.9634   -1.1806 N.3       1 <0>         0.0000
     15 O1         -0.8696   -2.1187    2.0051 O.2       1 <0>         0.0000
     16 H1         -1.7155   -0.1357   -2.7682 H         1 <0>         0.0000
     17 H2         -1.8574   -1.8726   -2.7319 H         1 <0>         0.0000
     18 H3          0.0647   -1.6972   -3.9735 H         1 <0>         0.0000
     19 H4          0.5533   -0.1657   -3.2781 H         1 <0>         0.0000
     20 H5         -0.9973    3.1299    0.0869 H         1 <0>         0.0000
     21 H6         -2.1820    1.8827   -0.3332 H         1 <0>         0.0000
     22 H7         -2.3231   -0.7221   -0.5635 H         1 <0>         0.0000
     23 H8         -1.2342   -2.0790   -0.4725 H         1 <0>         0.0000
     24 H9         -0.2270    1.2708   -1.7066 H         1 <0>         0.0000
     25 H10         0.8712    1.6019   -0.3784 H         1 <0>         0.0000
     26 H11        -0.3648    1.9771    2.1187 H         1 <0>         0.0000
     27 H12        -2.0942    1.5984    2.0550 H         1 <0>         0.0000
     28 H13         0.8890   -2.7877   -1.7505 H         1 <0>         0.0000
     29 H14         2.0627   -2.1267   -2.8862 H         1 <0>         0.0000
     30 H15         1.6641   -0.3301    0.7871 H         1 <0>         0.0000
     31 H16         0.9226   -1.9068    0.4904 H         1 <0>         0.0000
     32 H17        -2.6522   -0.1510    3.4916 H         1 <0>         0.0000
     33 H18        -1.0415    0.3753    3.9964 H         1 <0>         0.0000
     34 H19        -1.5546   -1.3132    4.2620 H         1 <0>         0.0000
     35 H20         3.6708   -0.6626   -0.1702 H         1 <0>         0.0000
     36 H21         3.8261   -1.3594   -1.7893 H         1 <0>         0.0000
     37 H22         3.2920   -2.3814   -0.4297 H         1 <0>         0.0000
@<TRIPOS>BOND
     1    1   11 1
     2    1   13 am
     3    1   15 2
     4    2    3 1
     5    2    5 1
     6    2   16 1
     7    2   17 1
     8    3    8 1
     9    3   18 1
    10    3   19 1
    11    4    6 1
    12    4    7 1
    13    4   20 1
    14    4   21 1
    15    5   10 1
    16    5   22 1
    17    5   23 1
    18    6   10 1
    19    6   24 1
    20    6   25 1
    21    7   13 1
    22    7   26 1
    23    7   27 1
    24    8   14 1
    25    8   28 1
    26    8   29 1
    27    9   10 1
    28    9   14 1
    29    9   30 1
    30    9   31 1
    31   10   13 1
    32   11   32 1
    33   11   33 1
    34   11   34 1
    35   12   14 1
    36   12   35 1
    37   12   36 1
    38   12   37 1
