@<TRIPOS>MOLECULE
*****
   28    27     0     0     0
SMALL
NO_CHARGES

@<TRIPOS>ATOM
      1 C1         -0.7344   -3.2457    1.0941 C.2       1 <0>         0.0000
      2 C2         -3.9250   -2.8850    1.3080 C.2       1 <0>         0.0000
      3 C3          0.2612   -3.4516   -1.1775 C.3       1 <0>         0.0000
      4 C4          0.8706   -1.4098    0.2094 C.3       1 <0>         0.0000
      5 C5         -3.1467   -1.1763    3.0142 C.3       1 <0>         0.0000
      6 C6         -4.7578   -4.7393   -0.0674 C.3       1 <0>         0.0000
      7 C7          0.4847   -2.8941    0.2413 C.3       1 <0>         0.0000
      8 C8         -2.7815   -2.4437    2.2518 C.3       1 <0>         0.0000
      9 N1         -3.8594   -4.1927    0.9401 N.am      1 <0>         0.0000
     10 N2         -1.5564   -2.2300    1.4717 N.am      1 <0>         0.0000
     11 O1         -0.9659   -4.4238    1.4048 O.2       1 <0>         0.0000
     12 O2         -4.8007   -2.1055    0.9293 O.2       1 <0>         0.0000
     13 H1         -0.5648   -2.9309   -1.6756 H         1 <0>         0.0000
     14 H2          1.1613   -3.3153   -1.7857 H         1 <0>         0.0000
     15 H3          0.0249   -4.5176   -1.1395 H         1 <0>         0.0000
     16 H4          0.1233   -0.8025   -0.3169 H         1 <0>         0.0000
     17 H5          1.8127   -1.2826   -0.3328 H         1 <0>         0.0000
     18 H6          1.0095   -0.9987    1.2148 H         1 <0>         0.0000
     19 H7         -3.3821   -0.3613    2.3239 H         1 <0>         0.0000
     20 H8         -4.0366   -1.3483    3.6241 H         1 <0>         0.0000
     21 H9         -2.3221   -0.8777    3.6685 H         1 <0>         0.0000
     22 H10        -4.7453   -5.8297   -0.0014 H         1 <0>         0.0000
     23 H11        -4.4676   -4.4383   -1.0819 H         1 <0>         0.0000
     24 H12        -5.7708   -4.3778    0.1175 H         1 <0>         0.0000
     25 H13         1.3038   -3.4600    0.6986 H         1 <0>         0.0000
     26 H14        -2.5641   -3.2592    2.9466 H         1 <0>         0.0000
     27 H15        -2.9937   -4.6840    1.1567 H         1 <0>         0.0000
     28 H16        -1.3888   -1.2981    1.1163 H         1 <0>         0.0000
@<TRIPOS>BOND
     1    1    7 1
     2    1   10 am
     3    1   11 2
     4    2    8 1
     5    2    9 am
     6    2   12 2
     7    3    7 1
     8    3   13 1
     9    3   14 1
    10    3   15 1
    11    4    7 1
    12    4   16 1
    13    4   17 1
    14    4   18 1
    15    5    8 1
    16    5   19 1
    17    5   20 1
    18    5   21 1
    19    6    9 1
    20    6   22 1
    21    6   23 1
    22    6   24 1
    23    7   25 1
    24    8   10 1
    25    8   26 1
    26    9   27 1
    27   10   28 1
