@<TRIPOS>MOLECULE
*****
   24    23     0     0     0
SMALL
NO_CHARGES

@<TRIPOS>ATOM
      1 C1          0.7468   -2.4028    1.6743 C.2       1 <0>         0.0000
      2 C2          0.7708   -0.6375   -0.0735 C.3       1 <0>         0.0000
      3 C3          0.8299   -3.4857    6.5908 C.3       1 <0>         0.0000
      4 C4         -0.5146   -2.2640    3.8656 C.3       1 <0>         0.0000
      5 C5          0.6396   -1.5404    4.5725 C.3       1 <0>         0.0000
      6 C6         -0.1504   -3.1715    2.6692 C.3       1 <0>         0.0000
      7 N1          0.4286   -4.4346    3.1195 N.3       1 <0>         0.0000
      8 N2          0.0960   -1.4663    0.9163 N.am      1 <0>         0.0000
      9 O1          1.9591   -2.5968    1.6011 O.2       1 <0>         0.0000
     10 S1          1.8954   -2.5733    5.4226 S.3       1 <0>         0.0000
     11 H1          0.4865    0.4128    0.0473 H         1 <0>         0.0000
     12 H2          0.5336   -0.9566   -1.0954 H         1 <0>         0.0000
     13 H3          1.8449   -0.7396    0.0838 H         1 <0>         0.0000
     14 H4          1.4957   -4.0281    7.2665 H         1 <0>         0.0000
     15 H5          0.1949   -4.2043    6.0672 H         1 <0>         0.0000
     16 H6          0.2165   -2.7985    7.1819 H         1 <0>         0.0000
     17 H7         -1.0749   -2.8758    4.5788 H         1 <0>         0.0000
     18 H8         -1.2038   -1.4837    3.5169 H         1 <0>         0.0000
     19 H9          0.2215   -0.8446    5.3085 H         1 <0>         0.0000
     20 H10         1.2184   -0.9471    3.8584 H         1 <0>         0.0000
     21 H11        -1.0936   -3.4099    2.1593 H         1 <0>         0.0000
     22 H12         1.3454   -4.2352    3.5223 H         1 <0>         0.0000
     23 H13         0.6100   -5.0211    2.3055 H         1 <0>         0.0000
     24 H14        -0.9123   -1.4187    0.9780 H         1 <0>         0.0000
@<TRIPOS>BOND
     1    1    6 1
     2    1    8 am
     3    1    9 2
     4    2    8 1
     5    2   11 1
     6    2   12 1
     7    2   13 1
     8    3   10 1
     9    3   14 1
    10    3   15 1
    11    3   16 1
    12    4    5 1
    13    4    6 1
    14    4   17 1
    15    4   18 1
    16    5   10 1
    17    5   19 1
    18    5   20 1
    19    6    7 1
    20    6   21 1
    21    7   22 1
    22    7   23 1
    23    8   24 1
