@<TRIPOS>MOLECULE
*****
   41    43     0     0     0
SMALL
NO_CHARGES

@<TRIPOS>ATOM
      1 C1         -1.6692   -5.4745    3.5783 C.2       1 <0>         0.0000
      2 C2         -2.3487   -4.3944    4.0813 C.2       1 <0>         0.0000
      3 C3         -0.5316   -3.5911    3.2613 C.2       1 <0>         0.0000
      4 C4         -2.1306   -6.8892    3.6771 C.3       1 <0>         0.0000
      5 C5         -0.1717   -0.1585    1.6759 C.3       1 <0>         0.0000
      6 C6         -0.2697   -0.3981    3.1896 C.3       1 <0>         0.0000
      7 C7         -0.3659   -1.4739    0.9078 C.3       1 <0>         0.0000
      8 C8          0.6805   -1.5213    3.6310 C.3       1 <0>         0.0000
      9 C9          0.6258   -2.5342    1.4046 C.3       1 <0>         0.0000
     10 C10        -4.1914   -5.8026    4.4191 C.3       1 <0>         0.0000
     11 C11         0.6481   -5.7119    2.5595 C.3       1 <0>         0.0000
     12 C12        -4.4962   -3.3855    4.5667 C.3       1 <0>         0.0000
     13 C13        -3.9384   -8.1930    4.6062 C.3       1 <0>         0.0000
     14 N1         -1.6573   -3.2227    3.8691 N.2       1 <0>         0.0000
     15 N2         -0.4762   -4.9536    3.0708 N.pl3     1 <0>         0.0000
     16 N3         -3.5830   -4.5101    4.7360 N.pl3     1 <0>         0.0000
     17 N4          0.5282   -2.7696    2.8610 N.pl3     1 <0>         0.0000
     18 N5         -3.2556   -6.9076    4.6274 N.3       1 <0>         0.0000
     19 H1         -2.4238   -7.2966    2.6868 H         1 <0>         0.0000
     20 H2         -1.3500   -7.5545    4.0722 H         1 <0>         0.0000
     21 H3          0.8166    0.2575    1.4313 H         1 <0>         0.0000
     22 H4         -0.9125    0.5837    1.3577 H         1 <0>         0.0000
     23 H5         -0.0221    0.5183    3.7399 H         1 <0>         0.0000
     24 H6         -1.2911   -0.6824    3.4577 H         1 <0>         0.0000
     25 H7         -1.3874   -1.8435    1.0590 H         1 <0>         0.0000
     26 H8         -0.2287   -1.3206   -0.1699 H         1 <0>         0.0000
     27 H9          1.7220   -1.1958    3.5002 H         1 <0>         0.0000
     28 H10         0.5354   -1.7573    4.6872 H         1 <0>         0.0000
     29 H11         0.4730   -3.4834    0.8836 H         1 <0>         0.0000
     30 H12         1.6538   -2.2103    1.1930 H         1 <0>         0.0000
     31 H13        -5.0452   -5.9522    5.0869 H         1 <0>         0.0000
     32 H14        -4.5758   -5.7972    3.3709 H         1 <0>         0.0000
     33 H15         0.4840   -6.0383    1.5255 H         1 <0>         0.0000
     34 H16         1.5360   -5.0784    2.5975 H         1 <0>         0.0000
     35 H17         0.8152   -6.5956    3.1826 H         1 <0>         0.0000
     36 H18        -5.3531   -3.5137    5.2360 H         1 <0>         0.0000
     37 H19        -4.8673   -3.2858    3.5312 H         1 <0>         0.0000
     38 H20        -3.9771   -2.4639    4.8325 H         1 <0>         0.0000
     39 H21        -4.6968   -8.2248    5.3948 H         1 <0>         0.0000
     40 H22        -3.2154   -8.9914    4.8026 H         1 <0>         0.0000
     41 H23        -4.4320   -8.4125    3.6396 H         1 <0>         0.0000
@<TRIPOS>BOND
     1    1    2 2
     2    1    4 1
     3    1   15 1
     4    2   14 1
     5    2   16 1
     6    3   14 2
     7    3   15 1
     8    3   17 1
     9    4   18 1
    10    4   19 1
    11    4   20 1
    12    5    7 1
    13    5    6 1
    14    5   21 1
    15    5   22 1
    16    6    8 1
    17    6   23 1
    18    6   24 1
    19    7    9 1
    20    7   25 1
    21    7   26 1
    22    8   17 1
    23    8   27 1
    24    8   28 1
    25    9   17 1
    26    9   29 1
    27    9   30 1
    28   10   16 1
    29   10   18 1
    30   10   31 1
    31   10   32 1
    32   11   15 1
    33   11   33 1
    34   11   34 1
    35   11   35 1
    36   12   16 1
    37   12   36 1
    38   12   37 1
    39   12   38 1
    40   13   18 1
    41   13   39 1
    42   13   40 1
    43   13   41 1
