@<TRIPOS>MOLECULE
*****
   23    23     0     0     0
SMALL
NO_CHARGES

@<TRIPOS>ATOM
      1 C1          0.5391    1.5572   -0.7918 C.2       1 <0>         0.0000
      2 C2         -0.4101    0.8690   -1.4345 C.2       1 <0>         0.0000
      3 C3         -0.4439   -0.7686    0.2972 C.2       1 <0>         0.0000
      4 C4          1.0662    1.0553    0.5272 C.3       1 <0>         0.0000
      5 C5         -4.0209   -2.7130    2.9922 C.3       1 <0>         0.0000
      6 C6         -1.0556   -2.0537    0.7952 C.3       1 <0>         0.0000
      7 C7         -2.2676   -1.7606    1.6583 C.3       1 <0>         0.0000
      8 N1          0.4705   -0.2085    1.0271 N.2       1 <0>         0.0000
      9 N2         -0.9088   -0.2863   -0.9084 N.pl3     1 <0>         0.0000
     10 N3         -2.8565   -2.9839    2.1525 N.3       1 <0>         0.0000
     11 H1          0.9368    2.4762   -1.2075 H         1 <0>         0.0000
     12 H2         -0.8338    1.1700   -2.3830 H         1 <0>         0.0000
     13 H3          2.1480    0.9062    0.4387 H         1 <0>         0.0000
     14 H4          0.9033    1.8285    1.2861 H         1 <0>         0.0000
     15 H5         -4.7727   -2.1587    2.4245 H         1 <0>         0.0000
     16 H6         -3.7291   -2.1195    3.8629 H         1 <0>         0.0000
     17 H7         -4.4628   -3.6508    3.3395 H         1 <0>         0.0000
     18 H8         -0.2874   -2.5596    1.3814 H         1 <0>         0.0000
     19 H9         -1.3087   -2.6626   -0.0732 H         1 <0>         0.0000
     20 H10        -1.9556   -1.1526    2.5137 H         1 <0>         0.0000
     21 H11        -3.0254   -1.1961    1.1049 H         1 <0>         0.0000
     22 H12        -1.6270   -0.7695   -1.4370 H         1 <0>         0.0000
     23 H13        -2.1681   -3.5025    2.7046 H         1 <0>         0.0000
@<TRIPOS>BOND
     1    1    2 2
     2    1    4 1
     3    1   11 1
     4    2    9 1
     5    2   12 1
     6    3    6 1
     7    3    8 2
     8    3    9 1
     9    4    8 1
    10    4   13 1
    11    4   14 1
    12    5   10 1
    13    5   15 1
    14    5   16 1
    15    5   17 1
    16    6    7 1
    17    6   18 1
    18    6   19 1
    19    7   10 1
    20    7   20 1
    21    7   21 1
    22    9   22 1
    23   10   23 1
