@<TRIPOS>MOLECULE
*****
   62    64     0     0     0
SMALL
NO_CHARGES

@<TRIPOS>ATOM
      1 C1          3.1502   -1.0913    6.3775 C.ar      1 <0>         0.0000
      2 C2          2.0098   -0.3524    6.6922 C.ar      1 <0>         0.0000
      3 C3          1.9700   -2.1324    4.5444 C.ar      1 <0>         0.0000
      4 C4          3.1304   -1.9812    5.3035 C.ar      1 <0>         0.0000
      5 C5          0.8494   -0.5036    5.9330 C.ar      1 <0>         0.0000
      6 C6          0.8295   -1.3935    4.8591 C.ar      1 <0>         0.0000
      7 C7          3.0709    5.3067   -3.6148 C.3       1 <0>         0.0000
      8 C8          3.5787    2.8486   -3.5132 C.3       1 <0>         0.0000
      9 C9         -0.6098    1.9321    1.9389 C.3       1 <0>         0.0000
     10 C10         0.8254    0.3220    0.6484 C.3       1 <0>         0.0000
     11 C11         4.3988    5.5001   -4.3468 C.3       1 <0>         0.0000
     12 C12         4.8869    3.1392   -4.2484 C.3       1 <0>         0.0000
     13 C13        -0.5300    1.0043    3.1475 C.3       1 <0>         0.0000
     14 C14         0.8828   -0.5812    1.8768 C.3       1 <0>         0.0000
     15 C15         3.1117    4.0689   -2.7097 C.3       1 <0>         0.0000
     16 C16         0.6288    1.7912    1.0445 C.3       1 <0>         0.0000
     17 C17         4.1539   -3.5940    3.8868 C.3       1 <0>         0.0000
     18 C18        -0.1374    1.1122    7.3722 C.3       1 <0>         0.0000
     19 C19         1.7513    3.8145   -2.0667 C.3       1 <0>         0.0000
     20 C20         0.5096    2.6771   -0.1932 C.3       1 <0>         0.0000
     21 C21         1.8779    2.9542   -0.8097 C.3       1 <0>         0.0000
     22 N1          4.7745    4.3127   -5.1174 N.3       1 <0>         0.0000
     23 N2         -0.3575   -0.4044    2.6871 N.pl3     1 <0>         0.0000
     24 O1         -0.5613   -2.9086    3.2643 O.2       1 <0>         0.0000
     25 O2         -1.7634   -1.2133    4.6886 O.2       1 <0>         0.0000
     26 O3          4.2431   -2.7025    4.9973 O.3       1 <0>         0.0000
     27 O4         -0.2524    0.2287    6.2586 O.3       1 <0>         0.0000
     28 S1         -0.6263   -1.6026    3.8832 S.o2      1 <0>         0.0000
     29 H1          4.0510   -0.9704    6.9733 H         1 <0>         0.0000
     30 H2          2.0315    0.3382    7.5310 H         1 <0>         0.0000
     31 H3          1.9605   -2.8274    3.7083 H         1 <0>         0.0000
     32 H4          2.8492    6.1998   -3.0185 H         1 <0>         0.0000
     33 H5          2.2621    5.2060   -4.3505 H         1 <0>         0.0000
     34 H6          2.8084    2.5621   -4.2413 H         1 <0>         0.0000
     35 H7          3.7189    1.9911   -2.8443 H         1 <0>         0.0000
     36 H8         -1.5126    1.6972    1.3601 H         1 <0>         0.0000
     37 H9         -0.7091    2.9686    2.2822 H         1 <0>         0.0000
     38 H10         1.7501    0.2092    0.0705 H         1 <0>         0.0000
     39 H11         0.0001   -0.0005    0.0000 H         1 <0>         0.0000
     40 H12         4.3085    6.3500   -5.0321 H         1 <0>         0.0000
     41 H13         5.1920    5.7501   -3.6314 H         1 <0>         0.0000
     42 H14         5.7025    3.2808   -3.5285 H         1 <0>         0.0000
     43 H15         5.1513    2.2713   -4.8626 H         1 <0>         0.0000
     44 H16         0.3060    1.2856    3.7980 H         1 <0>         0.0000
     45 H17        -1.4587    1.0887    3.7222 H         1 <0>         0.0000
     46 H18         0.9576   -1.6237    1.5486 H         1 <0>         0.0000
     47 H19         1.7614   -0.3475    2.4890 H         1 <0>         0.0000
     48 H20         3.8359    4.2517   -1.9051 H         1 <0>         0.0000
     49 H21         1.5089    2.1195    1.6133 H         1 <0>         0.0000
     50 H22         5.1097   -4.1062    3.7521 H         1 <0>         0.0000
     51 H23         3.9001   -3.0305    2.9855 H         1 <0>         0.0000
     52 H24         3.3726   -4.3316    4.0850 H         1 <0>         0.0000
     53 H25        -1.0854    1.6343    7.5234 H         1 <0>         0.0000
     54 H26         0.6622    1.8333    7.1853 H         1 <0>         0.0000
     55 H27         0.1014    0.5296    8.2651 H         1 <0>         0.0000
     56 H28         1.2871    4.7752   -1.8154 H         1 <0>         0.0000
     57 H29         1.0974    3.3183   -2.7934 H         1 <0>         0.0000
     58 H30         0.0265    3.6171    0.0903 H         1 <0>         0.0000
     59 H31        -0.1383    2.1806   -0.9219 H         1 <0>         0.0000
     60 H32         2.5166    3.4642   -0.0781 H         1 <0>         0.0000
     61 H33         2.3688    2.0061   -1.0610 H         1 <0>         0.0000
     62 H34         5.6699    4.4788   -5.5758 H         1 <0>         0.0000
@<TRIPOS>BOND
     1    1    2 ar
     2    1    4 ar
     3    1   29 1
     4    2    5 ar
     5    2   30 1
     6    3    4 ar
     7    3    6 ar
     8    3   31 1
     9    4   26 1
    10    5    6 ar
    11    5   27 1
    12    6   28 1
    13    7   11 1
    14    7   15 1
    15    7   32 1
    16    7   33 1
    17    8   12 1
    18    8   15 1
    19    8   34 1
    20    8   35 1
    21    9   13 1
    22    9   16 1
    23    9   36 1
    24    9   37 1
    25   10   14 1
    26   10   16 1
    27   10   38 1
    28   10   39 1
    29   11   22 1
    30   11   40 1
    31   11   41 1
    32   12   22 1
    33   12   42 1
    34   12   43 1
    35   13   23 1
    36   13   44 1
    37   13   45 1
    38   14   23 1
    39   14   46 1
    40   14   47 1
    41   15   19 1
    42   15   48 1
    43   16   20 1
    44   16   49 1
    45   17   26 1
    46   17   50 1
    47   17   51 1
    48   17   52 1
    49   18   27 1
    50   18   53 1
    51   18   54 1
    52   18   55 1
    53   19   21 1
    54   19   56 1
    55   19   57 1
    56   20   21 1
    57   20   58 1
    58   20   59 1
    59   21   60 1
    60   21   61 1
    61   22   62 1
    62   23   28 1
    63   24   28 2
    64   25   28 2
