@<TRIPOS>MOLECULE
*****
   40    41     0     0     0
SMALL
NO_CHARGES

@<TRIPOS>ATOM
      1 C1          3.5975   -1.6332    2.1706 C.ar      1 <0>         0.0000
      2 C2          3.6392   -0.2959    1.7635 C.ar      1 <0>         0.0000
      3 C3          2.5313   -2.4423    1.7614 C.ar      1 <0>         0.0000
      4 C4          2.6239    0.2267    0.9561 C.ar      1 <0>         0.0000
      5 C5          1.5195   -1.9148    0.9550 C.ar      1 <0>         0.0000
      6 C6         -5.5644   -1.0020    0.7727 C.ar      1 <0>         0.0000
      7 C7         -5.0003    0.6718    2.4763 C.ar      1 <0>         0.0000
      8 C8         -4.4924   -0.5850    0.0126 C.ar      1 <0>         0.0000
      9 C9         -3.9298    1.0849    1.7119 C.ar      1 <0>         0.0000
     10 C10         1.5495   -0.5726    0.5427 C.ar      1 <0>         0.0000
     11 C11        -5.8901   -0.4076    2.0637 C.ar      1 <0>         0.0000
     12 C12        -3.6598    0.4675    0.4658 C.ar      1 <0>         0.0000
     13 C13         1.8084   -0.2131   -2.4836 C.2       1 <0>         0.0000
     14 C14         3.3007   -0.8286   -4.2083 C.3       1 <0>         0.0000
     15 C15         0.5352   -0.5855   -1.7673 C.3       1 <0>         0.0000
     16 C16        -0.9303   -0.2288    0.2762 C.3       1 <0>         0.0000
     17 C17         0.4575    0.0016   -0.3455 C.3       1 <0>         0.0000
     18 O1         -6.8646   -0.7955    2.7666 O.3       1 <0>         0.0000
     19 O2          2.4761    0.7865   -2.2925 O.2       1 <0>         0.0000
     20 O3         -2.3676    0.4900   -1.8451 O.2       1 <0>         0.0000
     21 O4         -1.7679    2.2496   -0.0867 O.2       1 <0>         0.0000
     22 O5          2.1301   -1.1369   -3.4324 O.3       1 <0>         0.0000
     23 S1         -2.2243    0.8776   -0.4160 S.o2      1 <0>         0.0000
     24 H1          4.3848   -2.0408    2.8007 H         1 <0>         0.0000
     25 H2          4.4643    0.3419    2.0729 H         1 <0>         0.0000
     26 H3          2.4855   -3.4829    2.0744 H         1 <0>         0.0000
     27 H4          2.6671    1.2614    0.6277 H         1 <0>         0.0000
     28 H5          0.6947   -2.5548    0.6501 H         1 <0>         0.0000
     29 H6         -6.2151   -1.7991    0.4185 H         1 <0>         0.0000
     30 H7         -5.2187    1.1552    3.4264 H         1 <0>         0.0000
     31 H8         -4.2830   -1.0422   -0.9522 H         1 <0>         0.0000
     32 H9         -3.2905    1.9003    2.0442 H         1 <0>         0.0000
     33 H10         3.4114   -1.6544   -4.9125 H         1 <0>         0.0000
     34 H11         4.1802   -0.7533   -3.5632 H         1 <0>         0.0000
     35 H12         3.1711    0.1163   -4.7429 H         1 <0>         0.0000
     36 H13         0.4382   -1.6749   -1.7545 H         1 <0>         0.0000
     37 H14        -0.3045   -0.2022   -2.3593 H         1 <0>         0.0000
     38 H15        -1.2963   -1.2495    0.1348 H         1 <0>         0.0000
     39 H16        -0.9166   -0.0095    1.3463 H         1 <0>         0.0000
     40 H17         0.6133    1.0811   -0.4177 H         1 <0>         0.0000
@<TRIPOS>BOND
     1    1    3 ar
     2    1    2 ar
     3    1   24 1
     4    2    4 ar
     5    2   25 1
     6    3    5 ar
     7    3   26 1
     8    4   10 ar
     9    4   27 1
    10    5   10 ar
    11    5   28 1
    12    6    8 ar
    13    6   11 ar
    14    6   29 1
    15    7    9 ar
    16    7   11 ar
    17    7   30 1
    18    8   12 ar
    19    8   31 1
    20    9   12 ar
    21    9   32 1
    22   10   17 1
    23   11   18 1
    24   12   23 1
    25   13   15 1
    26   13   19 2
    27   13   22 1
    28   14   22 1
    29   14   33 1
    30   14   34 1
    31   14   35 1
    32   15   17 1
    33   15   36 1
    34   15   37 1
    35   16   17 1
    36   16   23 1
    37   16   38 1
    38   16   39 1
    39   17   40 1
    40   20   23 2
    41   21   23 2
