@<TRIPOS>MOLECULE
*****
   24    24     0     0     0
SMALL
NO_CHARGES

@<TRIPOS>ATOM
      1 C1         -2.3105    3.8801    1.8113 C.ar      1 <0>         0.0000
      2 C2         -2.6197    3.0114    2.8617 C.ar      1 <0>         0.0000
      3 C3         -1.1580    3.6841    1.0493 C.ar      1 <0>         0.0000
      4 C4         -1.7674    1.9416    3.1377 C.ar      1 <0>         0.0000
      5 C5         -0.2961    2.6139    1.3259 C.ar      1 <0>         0.0000
      6 C6         -0.6093    1.7364    2.3802 C.ar      1 <0>         0.0000
      7 C7          2.8531    1.4997    2.7497 C.3       1 <0>         0.0000
      8 C8          1.5336    1.6363    4.8364 C.3       1 <0>         0.0000
      9 N1          1.7927    0.9221    3.5828 N.pl3     1 <0>         0.0000
     10 O1         -0.3236   -0.4149    3.8332 O.2       1 <0>         0.0000
     11 O2          0.8790   -0.3436    1.5856 O.2       1 <0>         0.0000
     12 O3          0.8466    2.4088    0.6073 O.3       1 <0>         0.0000
     13 S1          0.4271    0.3139    2.8079 S.o2      1 <0>         0.0000
     14 H1         -2.9661    4.7153    1.5798 H         1 <0>         0.0000
     15 H2         -3.5177    3.1584    3.4540 H         1 <0>         0.0000
     16 H3         -0.9209    4.3630    0.2317 H         1 <0>         0.0000
     17 H4         -1.9907    1.2394    3.9340 H         1 <0>         0.0000
     18 H5          2.9204    0.9483    1.8136 H         1 <0>         0.0000
     19 H6          3.7969    1.3945    3.2938 H         1 <0>         0.0000
     20 H7          2.6798    2.5619    2.5324 H         1 <0>         0.0000
     21 H8          0.8160    1.0762    5.4356 H         1 <0>         0.0000
     22 H9          1.1577    2.6567    4.6662 H         1 <0>         0.0000
     23 H10         2.4746    1.6973    5.3901 H         1 <0>         0.0000
     24 H11         0.8870    3.0543   -0.1164 H         1 <0>         0.0000
@<TRIPOS>BOND
     1    1    2 ar
     2    1    3 ar
     3    1   14 1
     4    2    4 ar
     5    2   15 1
     6    3    5 ar
     7    3   16 1
     8    4    6 ar
     9    4   17 1
    10    5    6 ar
    11    5   12 1
    12    6   13 1
    13    7    9 1
    14    7   18 1
    15    7   19 1
    16    7   20 1
    17    8    9 1
    18    8   21 1
    19    8   22 1
    20    8   23 1
    21    9   13 1
    22   10   13 2
    23   11   13 2
    24   12   24 1
