@<TRIPOS>MOLECULE
*****
   32    32     0     0     0
SMALL
NO_CHARGES

@<TRIPOS>ATOM
      1 C1         -1.5376   -2.3180   -1.3191 C.3       1 <0>         0.0000
      2 C2         -0.5257   -3.1709   -2.1329 C.3       1 <0>         0.0000
      3 C3         -0.7695   -1.9232   -0.0416 C.3       1 <0>         0.0000
      4 C4          0.7488   -3.2067   -1.2643 C.3       1 <0>         0.0000
      5 C5          1.5387   -4.5150   -1.3344 C.3       1 <0>         0.0000
      6 C6          4.9464   -3.6429   -5.4928 C.3       1 <0>         0.0000
      7 C7          2.0171   -4.9063   -2.7352 C.3       1 <0>         0.0000
      8 C8          3.9869   -4.5938   -4.7783 C.3       1 <0>         0.0000
      9 C9          5.6638   -4.3314   -6.6340 C.3       1 <0>         0.0000
     10 N1          0.2249   -2.9993    0.0958 N.3       1 <0>         0.0000
     11 O1          4.2094   -3.3975   -2.4051 O.2       1 <0>         0.0000
     12 O2          2.4186   -2.5762   -4.0309 O.2       1 <0>         0.0000
     13 F1          6.3982   -5.3912   -6.2059 F         1 <0>         0.0000
     14 F2          4.7963   -4.8040   -7.5669 F         1 <0>         0.0000
     15 F3          6.5089   -3.4837   -7.2630 F         1 <0>         0.0000
     16 S1          3.1791   -3.6838   -3.4205 S.o2      1 <0>         0.0000
     17 H1         -1.8789   -1.4374   -1.8693 H         1 <0>         0.0000
     18 H2         -2.4200   -2.9110   -1.0650 H         1 <0>         0.0000
     19 H3         -0.9141   -4.1856   -2.2750 H         1 <0>         0.0000
     20 H4         -0.3127   -2.7520   -3.1188 H         1 <0>         0.0000
     21 H5         -0.2998   -0.9342   -0.1784 H         1 <0>         0.0000
     22 H6         -1.4103   -1.8743    0.8442 H         1 <0>         0.0000
     23 H7          1.4006   -2.3734   -1.5721 H         1 <0>         0.0000
     24 H8          0.8960   -5.3237   -0.9684 H         1 <0>         0.0000
     25 H9          2.4072   -4.4637   -0.6695 H         1 <0>         0.0000
     26 H10         5.7048   -3.2699   -4.8004 H         1 <0>         0.0000
     27 H11         4.4049   -2.7881   -5.9043 H         1 <0>         0.0000
     28 H12         2.5621   -5.8548   -2.7040 H         1 <0>         0.0000
     29 H13         1.1987   -4.9812   -3.4554 H         1 <0>         0.0000
     30 H14         3.1983   -4.9500   -5.4456 H         1 <0>         0.0000
     31 H15         4.5135   -5.4402   -4.3321 H         1 <0>         0.0000
     32 H16         0.9707   -2.7312    0.7356 H         1 <0>         0.0000
@<TRIPOS>BOND
     1    1    2 1
     2    1    3 1
     3    1   17 1
     4    1   18 1
     5    2    4 1
     6    2   19 1
     7    2   20 1
     8    3   10 1
     9    3   21 1
    10    3   22 1
    11    4    5 1
    12    4   10 1
    13    4   23 1
    14    5    7 1
    15    5   24 1
    16    5   25 1
    17    6    8 1
    18    6    9 1
    19    6   26 1
    20    6   27 1
    21    7   16 1
    22    7   28 1
    23    7   29 1
    24    8   16 1
    25    8   30 1
    26    8   31 1
    27    9   13 1
    28    9   14 1
    29    9   15 1
    30   10   32 1
    31   11   16 2
    32   12   16 2
