@<TRIPOS>MOLECULE
*****
   33    33     0     0     0
SMALL
NO_CHARGES

@<TRIPOS>ATOM
      1 C1         -0.4544   -1.3692   -0.5706 C.3       1 <0>         0.0000
      2 C2         -0.2500   -2.6227    0.2901 C.3       1 <0>         0.0000
      3 C3         -1.3869   -0.4889    0.2687 C.3       1 <0>         0.0000
      4 C4         -0.0801   -2.0614    1.6993 C.3       1 <0>         0.0000
      5 C5         -0.3488   -2.9898    2.8852 C.3       1 <0>         0.0000
      6 C6          4.7767   -4.6284    3.6173 C.3       1 <0>         0.0000
      7 C7          0.6044   -4.1907    2.9540 C.3       1 <0>         0.0000
      8 C8          3.2922   -4.9994    3.6129 C.3       1 <0>         0.0000
      9 C9          5.6132   -5.7992    4.1041 C.3       1 <0>         0.0000
     10 N1         -1.0704   -0.8766    1.7246 N.4       1 <0>         0.0000
     11 O1          2.3737   -2.5007    3.9971 O.2       1 <0>         0.0000
     12 O2          2.7204   -3.3080    1.6079 O.2       1 <0>         0.0000
     13 F1          5.2605   -6.1703    5.3602 F         1 <0>         0.0000
     14 F2          5.4532   -6.8851    3.3064 F         1 <0>         0.0000
     15 F3          6.9205   -5.4842    4.1169 F         1 <0>         0.0000
     16 S1          2.3304   -3.5899    3.0048 S.o2      1 <0>         0.0000
     17 H1          0.5009   -0.8648   -0.7401 H         1 <0>         0.0000
     18 H2         -0.8974   -1.5860   -1.5441 H         1 <0>         0.0000
     19 H3         -1.1216   -3.2863    0.2367 H         1 <0>         0.0000
     20 H4          0.6386   -3.1864    0.0032 H         1 <0>         0.0000
     21 H5         -1.2348    0.5838    0.1522 H         1 <0>         0.0000
     22 H6         -2.4391   -0.7212    0.1024 H         1 <0>         0.0000
     23 H7          0.9047   -1.6005    1.7852 H         1 <0>         0.0000
     24 H8         -1.3698   -3.3869    2.8198 H         1 <0>         0.0000
     25 H9         -0.2601   -2.4297    3.8214 H         1 <0>         0.0000
     26 H10         4.9663   -3.7833    4.2826 H         1 <0>         0.0000
     27 H11         5.1177   -4.3684    2.6130 H         1 <0>         0.0000
     28 H12         0.4151   -4.7576    3.8690 H         1 <0>         0.0000
     29 H13         0.5203   -4.8524    2.0895 H         1 <0>         0.0000
     30 H14         3.0866   -5.8374    2.9419 H         1 <0>         0.0000
     31 H15         2.9270   -5.2211    4.6183 H         1 <0>         0.0000
     32 H16        -0.6703   -0.0917    2.2474 H         1 <0>         0.0000
     33 H17        -1.9297   -1.1400    2.2167 H         1 <0>         0.0000
@<TRIPOS>BOND
     1    1    2 1
     2    1    3 1
     3    1   17 1
     4    1   18 1
     5    2    4 1
     6    2   19 1
     7    2   20 1
     8    3   10 1
     9    3   21 1
    10    3   22 1
    11    4    5 1
    12    4   10 1
    13    4   23 1
    14    5    7 1
    15    5   24 1
    16    5   25 1
    17    6    8 1
    18    6    9 1
    19    6   26 1
    20    6   27 1
    21    7   16 1
    22    7   28 1
    23    7   29 1
    24    8   16 1
    25    8   30 1
    26    8   31 1
    27    9   13 1
    28    9   14 1
    29    9   15 1
    30   10   32 1
    31   10   33 1
    32   11   16 2
    33   12   16 2
