@<TRIPOS>MOLECULE
*****
   33    33     0     0     0
SMALL
NO_CHARGES

@<TRIPOS>ATOM
      1 C1         -0.2320    0.1475    0.4918 C.3       1 <0>         0.0000
      2 C2         -0.7576   -0.6939    1.6611 C.3       1 <0>         0.0000
      3 C3          1.2888    0.1157    0.6712 C.3       1 <0>         0.0000
      4 C4          0.2017   -1.8831    1.7193 C.3       1 <0>         0.0000
      5 C5          0.2624   -2.6475    3.0351 C.3       1 <0>         0.0000
      6 C6          0.9271   -5.3734    6.9780 C.3       1 <0>         0.0000
      7 C7          1.2102   -3.8495    3.0155 C.3       1 <0>         0.0000
      8 C8          1.2960   -4.4133    5.8449 C.3       1 <0>         0.0000
      9 C9          1.3009   -4.7729    8.3211 C.3       1 <0>         0.0000
     10 N1          1.5642   -1.2356    1.3587 N.4       1 <0>         0.0000
     11 O1          1.5787   -6.3020    3.9718 O.2       1 <0>         0.0000
     12 O2         -0.7136   -5.1894    4.2671 O.2       1 <0>         0.0000
     13 F1          2.6299   -4.5055    8.3930 F         1 <0>         0.0000
     14 F2          0.6496   -3.5982    8.5337 F         1 <0>         0.0000
     15 F3          0.9904   -5.6041    9.3299 F         1 <0>         0.0000
     16 S1          0.7560   -5.1245    4.2619 S.o2      1 <0>         0.0000
     17 H1         -0.5160   -0.3003   -0.4648 H         1 <0>         0.0000
     18 H2         -0.6030    1.1737    0.5037 H         1 <0>         0.0000
     19 H3         -0.7251   -0.1305    2.6005 H         1 <0>         0.0000
     20 H4         -1.7834   -1.0359    1.5116 H         1 <0>         0.0000
     21 H5          1.8631    0.1611   -0.2537 H         1 <0>         0.0000
     22 H6          1.6421    0.8920    1.3503 H         1 <0>         0.0000
     23 H7         -0.0080   -2.5675    0.8925 H         1 <0>         0.0000
     24 H8         -0.7527   -3.0115    3.2282 H         1 <0>         0.0000
     25 H9          0.5076   -1.9589    3.8533 H         1 <0>         0.0000
     26 H10         1.4557   -6.3232    6.8729 H         1 <0>         0.0000
     27 H11        -0.1472   -5.5703    6.9882 H         1 <0>         0.0000
     28 H12         1.1302   -4.4187    2.0830 H         1 <0>         0.0000
     29 H13         2.2645   -3.6057    3.1798 H         1 <0>         0.0000
     30 H14         0.7847   -3.4543    5.9603 H         1 <0>         0.0000
     31 H15         2.3765   -4.2649    5.7801 H         1 <0>         0.0000
     32 H16         2.1149   -1.8561    0.7584 H         1 <0>         0.0000
     33 H17         2.1193   -1.0924    2.2078 H         1 <0>         0.0000
@<TRIPOS>BOND
     1    1    2 1
     2    1    3 1
     3    1   17 1
     4    1   18 1
     5    2    4 1
     6    2   19 1
     7    2   20 1
     8    3   10 1
     9    3   21 1
    10    3   22 1
    11    4    5 1
    12    4   10 1
    13    4   23 1
    14    5    7 1
    15    5   24 1
    16    5   25 1
    17    6    8 1
    18    6    9 1
    19    6   26 1
    20    6   27 1
    21    7   16 1
    22    7   28 1
    23    7   29 1
    24    8   16 1
    25    8   30 1
    26    8   31 1
    27    9   13 1
    28    9   14 1
    29    9   15 1
    30   10   32 1
    31   10   33 1
    32   11   16 2
    33   12   16 2
