@<TRIPOS>MOLECULE
*****
   68    70     0     0     0
SMALL
NO_CHARGES

@<TRIPOS>ATOM
      1 C1          2.0326   -0.4315   -4.4943 C.ar      1 <0>         0.0000
      2 C2          3.5665    7.9353   -0.7945 C.ar      1 <0>         0.0000
      3 C3          1.2201    0.6460   -4.1298 C.ar      1 <0>         0.0000
      4 C4          3.4230   -0.3333   -4.3697 C.ar      1 <0>         0.0000
      5 C5          3.5158    7.0876    0.3169 C.ar      1 <0>         0.0000
      6 C6          4.1897    7.5079   -1.9717 C.ar      1 <0>         0.0000
      7 C7          1.7921    1.8175   -3.6277 C.ar      1 <0>         0.0000
      8 C8          3.9958    0.8415   -3.8782 C.ar      1 <0>         0.0000
      9 C9          4.0774    5.8113    0.2470 C.ar      1 <0>         0.0000
     10 C10         4.7498    6.2305   -2.0408 C.ar      1 <0>         0.0000
     11 C11         3.1833    1.9208   -3.4961 C.ar      1 <0>         0.0000
     12 C12         4.6875    5.3666   -0.9364 C.ar      1 <0>         0.0000
     13 C13         0.2577    1.6416    0.3940 C.2       1 <0>         0.0000
     14 C14        -2.4868   -0.0332   -1.2386 C.3       1 <0>         0.0000
     15 C15        -1.9438    1.3003   -0.6996 C.3       1 <0>         0.0000
     16 C16        -0.7234   -0.6883    0.1071 C.3       1 <0>         0.0000
     17 C17        -1.7025    2.2898   -1.8420 C.3       1 <0>         0.0000
     18 C18        -2.8696    1.8926    0.3725 C.3       1 <0>         0.0000
     19 C19        -0.6118   -1.1365    1.5624 C.3       1 <0>         0.0000
     20 C20         0.3035   -1.3728   -0.8011 C.3       1 <0>         0.0000
     21 C21         2.6875    0.9751    2.8983 C.3       1 <0>         0.0000
     22 C22         3.8117    3.1612   -2.9234 C.3       1 <0>         0.0000
     23 C23         5.2790    3.9873   -1.0149 C.3       1 <0>         0.0000
     24 C24         3.5148    2.0316    0.7462 C.3       1 <0>         0.0000
     25 C25         3.1069    2.7149   -0.5535 C.3       1 <0>         0.0000
     26 C26         2.3032    1.7586    1.6507 C.3       1 <0>         0.0000
     27 N1         -0.6857    0.8006   -0.0769 N.am      1 <0>         0.0000
     28 N2          4.2802    2.9221   -1.4878 N.4       1 <0>         0.0000
     29 O1          0.2212    2.8704    0.3406 O.2       1 <0>         0.0000
     30 O2         -2.0495   -1.0152   -0.3088 O.3       1 <0>         0.0000
     31 O3          1.3325    0.9645    0.9289 O.3       1 <0>         0.0000
     32 H1          1.5862   -1.3418   -4.8840 H         1 <0>         0.0000
     33 H2          3.1341    8.9301   -0.7391 H         1 <0>         0.0000
     34 H3          0.1421    0.5754   -4.2404 H         1 <0>         0.0000
     35 H4          4.0574   -1.1627   -4.6685 H         1 <0>         0.0000
     36 H5          3.0473    7.4226    1.2375 H         1 <0>         0.0000
     37 H6          4.2487    8.1714   -2.8294 H         1 <0>         0.0000
     38 H7          1.1569    2.6516   -3.3401 H         1 <0>         0.0000
     39 H8          5.0808    0.9230   -3.8180 H         1 <0>         0.0000
     40 H9          4.0505    5.1670    1.1227 H         1 <0>         0.0000
     41 H10         5.2513    5.9149   -2.9530 H         1 <0>         0.0000
     42 H11        -3.5770   -0.0635   -1.2723 H         1 <0>         0.0000
     43 H12        -2.0912   -0.2386   -2.2438 H         1 <0>         0.0000
     44 H13        -1.3504    3.2514   -1.4686 H         1 <0>         0.0000
     45 H14        -2.6402    2.4475   -2.3850 H         1 <0>         0.0000
     46 H15        -0.9663    1.8905   -2.5454 H         1 <0>         0.0000
     47 H16        -2.3851    2.7363    0.8692 H         1 <0>         0.0000
     48 H17        -3.1240    1.1364    1.1203 H         1 <0>         0.0000
     49 H18        -3.7975    2.2499   -0.0853 H         1 <0>         0.0000
     50 H19        -1.2832   -0.5457    2.1901 H         1 <0>         0.0000
     51 H20         0.4079   -1.0458    1.9340 H         1 <0>         0.0000
     52 H21        -0.9193   -2.1838    1.6199 H         1 <0>         0.0000
     53 H22         0.1412   -1.0921   -1.8449 H         1 <0>         0.0000
     54 H23         0.2006   -2.4574   -0.7102 H         1 <0>         0.0000
     55 H24         1.3193   -1.0879   -0.5195 H         1 <0>         0.0000
     56 H25         3.1108    0.0007    2.6356 H         1 <0>         0.0000
     57 H26         1.8077    0.8118    3.5251 H         1 <0>         0.0000
     58 H27         3.4274    1.5285    3.4851 H         1 <0>         0.0000
     59 H28         4.7007    3.4568   -3.4845 H         1 <0>         0.0000
     60 H29         3.1245    4.0059   -2.8877 H         1 <0>         0.0000
     61 H30         6.1070    3.9421   -1.7257 H         1 <0>         0.0000
     62 H31         5.6438    3.6466   -0.0456 H         1 <0>         0.0000
     63 H32         4.2221    2.6399    1.3188 H         1 <0>         0.0000
     64 H33         4.0073    1.0756    0.5231 H         1 <0>         0.0000
     65 H34         2.4052    2.0851   -1.0947 H         1 <0>         0.0000
     66 H35         2.6384    3.6848   -0.3972 H         1 <0>         0.0000
     67 H36         1.8340    2.7072    1.9193 H         1 <0>         0.0000
     68 H37         4.7955    2.0351   -1.5084 H         1 <0>         0.0000
@<TRIPOS>BOND
     1    1    4 ar
     2    1    3 ar
     3    1   32 1
     4    2    6 ar
     5    2    5 ar
     6    2   33 1
     7    3    7 ar
     8    3   34 1
     9    4    8 ar
    10    4   35 1
    11    5    9 ar
    12    5   36 1
    13    6   10 ar
    14    6   37 1
    15    7   11 ar
    16    7   38 1
    17    8   11 ar
    18    8   39 1
    19    9   12 ar
    20    9   40 1
    21   10   12 ar
    22   10   41 1
    23   11   22 1
    24   12   23 1
    25   13   27 am
    26   13   29 2
    27   13   31 1
    28   14   15 1
    29   14   30 1
    30   14   42 1
    31   14   43 1
    32   15   17 1
    33   15   18 1
    34   15   27 1
    35   16   19 1
    36   16   20 1
    37   16   27 1
    38   16   30 1
    39   17   44 1
    40   17   45 1
    41   17   46 1
    42   18   47 1
    43   18   48 1
    44   18   49 1
    45   19   50 1
    46   19   51 1
    47   19   52 1
    48   20   53 1
    49   20   54 1
    50   20   55 1
    51   21   26 1
    52   21   56 1
    53   21   57 1
    54   21   58 1
    55   22   28 1
    56   22   59 1
    57   22   60 1
    58   23   28 1
    59   23   61 1
    60   23   62 1
    61   24   25 1
    62   24   26 1
    63   24   63 1
    64   24   64 1
    65   25   28 1
    66   25   65 1
    67   25   66 1
    68   26   31 1
    69   26   67 1
    70   28   68 1
