@<TRIPOS>MOLECULE
*****
   29    31     0     0     0
SMALL
NO_CHARGES

@<TRIPOS>ATOM
      1 C1          1.9417    1.3720    1.5041 C.ar      1 <0>         0.0000
      2 C2          0.7581    0.9388    0.8932 C.ar      1 <0>         0.0000
      3 C3          1.9539    1.7139    2.8638 C.ar      1 <0>         0.0000
      4 C4         -0.4288    0.8417    1.6331 C.ar      1 <0>         0.0000
      5 C5          0.7723    1.6143    3.5974 C.ar      1 <0>         0.0000
      6 C6         -0.4155    1.1812    2.9857 C.ar      1 <0>         0.0000
      7 C7         -1.4949   -0.9589    6.3076 C.2       1 <0>         0.0000
      8 C8          0.5176    1.9296    5.0581 C.3       1 <0>         0.0000
      9 C9         -1.5473    1.1751    3.9914 C.3       1 <0>         0.0000
     10 C10        -3.3220   -1.7774    7.2260 C.3       1 <0>         0.0000
     11 C11        -2.3375   -2.9420    6.9447 C.3       1 <0>         0.0000
     12 C12        -0.8039    1.1822    5.3550 C.3       1 <0>         0.0000
     13 N1         -2.6815   -0.5946    6.6345 N.2       1 <0>         0.0000
     14 N2         -0.4883   -0.1700    5.8256 N.pl3     1 <0>         0.0000
     15 O1         -1.1307   -2.2729    6.4896 O.3       1 <0>         0.0000
     16 H1          2.8570    1.4379    0.9212 H         1 <0>         0.0000
     17 H2          0.7623    0.6711   -0.1605 H         1 <0>         0.0000
     18 H3          2.8759    2.0459    3.3366 H         1 <0>         0.0000
     19 H4         -1.3449    0.5001    1.1560 H         1 <0>         0.0000
     20 H5          1.3242    1.6214    5.7300 H         1 <0>         0.0000
     21 H6          0.3725    3.0088    5.1939 H         1 <0>         0.0000
     22 H7         -2.1537    2.0852    3.8912 H         1 <0>         0.0000
     23 H8         -2.2275    0.3242    3.9053 H         1 <0>         0.0000
     24 H9         -4.3035   -1.9525    6.7736 H         1 <0>         0.0000
     25 H10        -3.4774   -1.6242    8.3016 H         1 <0>         0.0000
     26 H11        -2.0804   -3.5365    7.8239 H         1 <0>         0.0000
     27 H12        -2.6763   -3.6058    6.1429 H         1 <0>         0.0000
     28 H13        -1.3962    1.6573    6.1369 H         1 <0>         0.0000
     29 H14         0.2122   -0.6756    5.2934 H         1 <0>         0.0000
@<TRIPOS>BOND
     1    1    2 ar
     2    1    3 ar
     3    1   16 1
     4    2    4 ar
     5    2   17 1
     6    3    5 ar
     7    3   18 1
     8    4    6 ar
     9    4   19 1
    10    5    6 ar
    11    5    8 1
    12    6    9 1
    13    7   13 2
    14    7   14 1
    15    7   15 1
    16    8   12 1
    17    8   20 1
    18    8   21 1
    19    9   12 1
    20    9   22 1
    21    9   23 1
    22   10   11 1
    23   10   13 1
    24   10   24 1
    25   10   25 1
    26   11   15 1
    27   11   26 1
    28   11   27 1
    29   12   14 1
    30   12   28 1
    31   14   29 1
