@<TRIPOS>MOLECULE
*****
   32    34     0     0     0
SMALL
NO_CHARGES

@<TRIPOS>ATOM
      1 C1          0.1021    0.3347   -2.2113 C.ar      1 <0>         0.0000
      2 C2         -0.3017   -0.3295   -1.0459 C.ar      1 <0>         0.0000
      3 C3         -0.1358   -0.2468   -3.4558 C.ar      1 <0>         0.0000
      4 C4         -0.9393   -1.5643   -1.1504 C.ar      1 <0>         0.0000
      5 C5         -4.5554   -6.3301   -0.9550 C.ar      1 <0>         0.0000
      6 C6         -6.2566   -4.6665   -0.8304 C.ar      1 <0>         0.0000
      7 C7         -0.7757   -1.4920   -3.5726 C.ar      1 <0>         0.0000
      8 C8         -1.1793   -2.1554   -2.4009 C.ar      1 <0>         0.0000
      9 C9         -5.8667   -5.9945   -0.6216 C.ar      1 <0>         0.0000
     10 C10        -4.1688   -4.1799   -1.6191 C.ar      1 <0>         0.0000
     11 C11        -0.9831   -2.1020   -4.9465 C.3       1 <0>         0.0000
     12 C12        -2.0265   -3.2229   -4.9549 C.3       1 <0>         0.0000
     13 C13        -1.7608   -4.1939   -3.8042 C.3       1 <0>         0.0000
     14 C14        -1.9118   -3.4877   -2.4486 C.3       1 <0>         0.0000
     15 N1         -3.6997   -5.4372   -1.4553 N.ar      1 <0>         0.0000
     16 N2         -5.4237   -3.7558   -1.3236 N.ar      1 <0>         0.0000
     17 N3         -3.3226   -3.2427   -2.1209 N.pl3     1 <0>         0.0000
     18 Cl1        -6.9796   -7.1800    0.0263 Cl        1 <0>         0.0000
     19 H1          0.5976    1.3002   -2.1475 H         1 <0>         0.0000
     20 H2         -0.1201    0.1124   -0.0697 H         1 <0>         0.0000
     21 H3          0.1769    0.2718   -4.3603 H         1 <0>         0.0000
     22 H4         -1.2617   -2.0865   -0.2517 H         1 <0>         0.0000
     23 H5         -4.1872   -7.3457   -0.8163 H         1 <0>         0.0000
     24 H6         -7.2670   -4.3385   -0.5898 H         1 <0>         0.0000
     25 H7         -1.2532   -1.3148   -5.6592 H         1 <0>         0.0000
     26 H8         -0.0219   -2.5083   -5.2916 H         1 <0>         0.0000
     27 H9         -3.0338   -2.8014   -4.8481 H         1 <0>         0.0000
     28 H10        -2.0034   -3.7474   -5.9160 H         1 <0>         0.0000
     29 H11        -2.4391   -5.0504   -3.8304 H         1 <0>         0.0000
     30 H12        -0.7388   -4.5878   -3.8800 H         1 <0>         0.0000
     31 H13        -1.5149   -4.1447   -1.6688 H         1 <0>         0.0000
     32 H14        -3.6913   -2.3031   -2.1825 H         1 <0>         0.0000
@<TRIPOS>BOND
     1    1    2 ar
     2    1    3 ar
     3    1   19 1
     4    2    4 ar
     5    2   20 1
     6    3    7 ar
     7    3   21 1
     8    4    8 ar
     9    4   22 1
    10    5    9 ar
    11    5   15 ar
    12    5   23 1
    13    6    9 ar
    14    6   16 ar
    15    6   24 1
    16    7    8 ar
    17    7   11 1
    18    8   14 1
    19    9   18 1
    20   10   16 ar
    21   10   15 ar
    22   10   17 1
    23   11   12 1
    24   11   25 1
    25   11   26 1
    26   12   13 1
    27   12   27 1
    28   12   28 1
    29   13   14 1
    30   13   29 1
    31   13   30 1
    32   14   17 1
    33   14   31 1
    34   17   32 1
