@<TRIPOS>MOLECULE
*****
   25    25     0     0     0
SMALL
NO_CHARGES

@<TRIPOS>ATOM
      1 C1         -4.8938    3.4689    1.2875 C.2       1 <0>         0.0000
      2 C2         -2.8897    4.6579    1.0328 C.2       1 <0>         0.0000
      3 C3         -6.2024    2.7486    1.1534 C.2       1 <0>         0.0000
      4 C4          0.7314    0.8214   -0.4393 C.3       1 <0>         0.0000
      5 C5          0.8732    2.1358    0.3362 C.3       1 <0>         0.0000
      6 C6         -0.3320    3.0645    0.1305 C.3       1 <0>         0.0000
      7 C7         -0.1927    4.3578    0.9238 C.3       1 <0>         0.0000
      8 N1         -4.2566    3.6167    2.4233 N.2       1 <0>         0.0000
      9 N2         -3.0896    4.3163    2.2769 N.2       1 <0>         0.0000
     10 N3         -6.6819    2.2598    2.3264 N.am      1 <0>         0.0000
     11 O1         -6.7497    2.6353    0.0602 O.2       1 <0>         0.0000
     12 O2         -1.5807    5.6514   -1.0457 O.2       1 <0>         0.0000
     13 S1         -4.1170    4.1746   -0.0980 S.3       1 <0>         0.0000
     14 S2         -1.4598    5.6319    0.4650 S.o       1 <0>         0.0000
     15 H1          0.6347    1.0069   -1.5147 H         1 <0>         0.0000
     16 H2          1.6030    0.1766   -0.2870 H         1 <0>         0.0000
     17 H3         -0.1563    0.2659   -0.1164 H         1 <0>         0.0000
     18 H4          0.9946    1.9212    1.4056 H         1 <0>         0.0000
     19 H5          1.7871    2.6531    0.0177 H         1 <0>         0.0000
     20 H6         -0.4384    3.3079   -0.9323 H         1 <0>         0.0000
     21 H7         -1.2480    2.5449    0.4340 H         1 <0>         0.0000
     22 H8         -0.2945    4.2196    2.0048 H         1 <0>         0.0000
     23 H9          0.7589    4.8596    0.7173 H         1 <0>         0.0000
     24 H10        -7.5677    1.7716    2.3239 H         1 <0>         0.0000
     25 H11        -6.1760    2.4092    3.1909 H         1 <0>         0.0000
@<TRIPOS>BOND
     1    1    3 1
     2    1    8 2
     3    1   13 1
     4    2    9 2
     5    2   13 1
     6    2   14 1
     7    3   10 am
     8    3   11 2
     9    4    5 1
    10    4   15 1
    11    4   16 1
    12    4   17 1
    13    5    6 1
    14    5   18 1
    15    5   19 1
    16    6    7 1
    17    6   20 1
    18    6   21 1
    19    7   14 1
    20    7   22 1
    21    7   23 1
    22    8    9 1
    23   10   24 1
    24   10   25 1
    25   12   14 2
