@<TRIPOS>MOLECULE
*****
   29    31     0     0     0
SMALL
NO_CHARGES

@<TRIPOS>ATOM
      1 C1          1.8862   -1.0355   -0.1124 C.ar      1 <0>         0.0000
      2 C2          1.2817   -2.1038    0.5502 C.ar      1 <0>         0.0000
      3 C3          2.4473    0.0113    0.6190 C.ar      1 <0>         0.0000
      4 C4          0.5813   -0.5190    6.1518 C.ar      1 <0>         0.0000
      5 C5          1.5980   -1.1033    6.9070 C.ar      1 <0>         0.0000
      6 C6          1.2385   -2.1254    1.9442 C.ar      1 <0>         0.0000
      7 C7          2.4041   -0.0103    2.0131 C.ar      1 <0>         0.0000
      8 C8          0.6597   -0.5176    4.7591 C.ar      1 <0>         0.0000
      9 C9          2.6932   -1.6863    6.2696 C.ar      1 <0>         0.0000
     10 C10         5.6910   -2.6817    3.1303 C.2       1 <0>         0.0000
     11 C11         5.3644   -3.8798    3.7205 C.2       1 <0>         0.0000
     12 C12         1.7997   -1.0786    2.6757 C.ar      1 <0>         0.0000
     13 C13         1.7549   -1.1005    4.1216 C.ar      1 <0>         0.0000
     14 C14         2.7717   -1.6849    4.8769 C.ar      1 <0>         0.0000
     15 C15         3.9237   -2.2996    4.2532 C.2       1 <0>         0.0000
     16 N1          4.7905   -1.7020    3.4661 N.2       1 <0>         0.0000
     17 N2          4.2304   -3.6192    4.4369 N.pl3     1 <0>         0.0000
     18 H1          1.9184   -1.0176   -1.1978 H         1 <0>         0.0000
     19 H2          0.8433   -2.9185   -0.0187 H         1 <0>         0.0000
     20 H3          2.9165    0.8440    0.1033 H         1 <0>         0.0000
     21 H4         -0.2715   -0.0652    6.6483 H         1 <0>         0.0000
     22 H5          1.5366   -1.1044    7.9913 H         1 <0>         0.0000
     23 H6          0.7634   -2.9645    2.4469 H         1 <0>         0.0000
     24 H7          2.8459    0.8134    2.5691 H         1 <0>         0.0000
     25 H8         -0.1421   -0.0575    4.1861 H         1 <0>         0.0000
     26 H9          3.4766   -2.1373    6.8743 H         1 <0>         0.0000
     27 H10         6.5287   -2.4747    2.4806 H         1 <0>         0.0000
     28 H11         5.8180   -4.8599    3.6968 H         1 <0>         0.0000
     29 H12         3.7145   -4.2845    4.9982 H         1 <0>         0.0000
@<TRIPOS>BOND
     1    1    3 ar
     2    1    2 ar
     3    1   18 1
     4    2    6 ar
     5    2   19 1
     6    3    7 ar
     7    3   20 1
     8    4    5 ar
     9    4    8 ar
    10    4   21 1
    11    5    9 ar
    12    5   22 1
    13    6   12 ar
    14    6   23 1
    15    7   12 ar
    16    7   24 1
    17    8   13 ar
    18    8   25 1
    19    9   14 ar
    20    9   26 1
    21   10   11 2
    22   10   16 1
    23   10   27 1
    24   11   17 1
    25   11   28 1
    26   12   13 1
    27   13   14 ar
    28   14   15 1
    29   15   16 2
    30   15   17 1
    31   17   29 1
