@<TRIPOS>MOLECULE
*****
   32    33     0     0     0
SMALL
NO_CHARGES

@<TRIPOS>ATOM
      1 C1          0.6815    1.6935   -3.7010 C.2       1 <0>         0.0000
      2 C2          0.1515   -0.7572    2.1625 C.3       1 <0>         0.0000
      3 C3          0.7194   -1.3193    0.8526 C.3       1 <0>         0.0000
      4 C4         -0.3260   -1.3608   -1.5942 C.3       1 <0>         0.0000
      5 C5          0.1234    0.5928   -0.8892 C.3       1 <0>         0.0000
      6 C6         -1.3582   -0.8158    1.8927 C.3       1 <0>         0.0000
      7 C7         -0.2437   -0.7433   -0.1810 C.3       1 <0>         0.0000
      8 C8         -0.3598    3.7116   -4.5903 C.3       1 <0>         0.0000
      9 C9         -1.7124    1.6471   -4.4177 C.3       1 <0>         0.0000
     10 C10         0.5721    0.2094   -3.3295 C.3       1 <0>         0.0000
     11 N1         -0.2988   -0.0005   -2.1850 N.3       1 <0>         0.0000
     12 N2         -0.4435    2.3202   -4.1642 N.am      1 <0>         0.0000
     13 O1          1.7623    2.2762   -3.5641 O.2       1 <0>         0.0000
     14 O2         -1.5211   -0.7050    0.4656 O.3       1 <0>         0.0000
     15 H1          0.4438   -1.3290    3.0473 H         1 <0>         0.0000
     16 H2          0.4787    0.2787    2.3020 H         1 <0>         0.0000
     17 H3          1.7586   -1.0389    0.6654 H         1 <0>         0.0000
     18 H4          0.6529   -2.4142    0.8438 H         1 <0>         0.0000
     19 H5          0.5650   -1.9621   -1.8371 H         1 <0>         0.0000
     20 H6         -1.2322   -1.9355   -1.8112 H         1 <0>         0.0000
     21 H7         -0.4580    1.4700   -0.5901 H         1 <0>         0.0000
     22 H8          1.1975    0.8260   -0.8469 H         1 <0>         0.0000
     23 H9         -1.7864   -1.7725    2.2202 H         1 <0>         0.0000
     24 H10        -1.9136   -0.0047    2.3747 H         1 <0>         0.0000
     25 H11        -0.5423    3.7954   -5.6698 H         1 <0>         0.0000
     26 H12         0.6353    4.0913   -4.3641 H         1 <0>         0.0000
     27 H13        -1.1109    4.3132   -4.0645 H         1 <0>         0.0000
     28 H14        -2.5324    2.3268   -4.1626 H         1 <0>         0.0000
     29 H15        -1.8073    0.7646   -3.7872 H         1 <0>         0.0000
     30 H16        -1.8159    1.3730   -5.4773 H         1 <0>         0.0000
     31 H17         0.1839   -0.3695   -4.1771 H         1 <0>         0.0000
     32 H18         1.6064   -0.1200   -3.1406 H         1 <0>         0.0000
@<TRIPOS>BOND
     1    1   10 1
     2    1   12 am
     3    1   13 2
     4    2    3 1
     5    2    6 1
     6    2   15 1
     7    2   16 1
     8    3    7 1
     9    3   17 1
    10    3   18 1
    11    4    7 1
    12    4   11 1
    13    4   19 1
    14    4   20 1
    15    5    7 1
    16    5   11 1
    17    5   21 1
    18    5   22 1
    19    6   14 1
    20    6   23 1
    21    6   24 1
    22    7   14 1
    23    8   12 1
    24    8   25 1
    25    8   26 1
    26    8   27 1
    27    9   12 1
    28    9   28 1
    29    9   29 1
    30    9   30 1
    31   10   11 1
    32   10   31 1
    33   10   32 1
