@<TRIPOS>MOLECULE
*****
   34    37     0     0     0
SMALL
NO_CHARGES

@<TRIPOS>ATOM
      1 C1          5.4393   -4.6154    1.7398 C.ar      1 <0>         0.0000
      2 C2          5.5509   -3.3030    2.2184 C.ar      1 <0>         0.0000
      3 C3          4.3264   -5.0150    0.9891 C.ar      1 <0>         0.0000
      4 C4          4.5487   -2.3585    1.9558 C.ar      1 <0>         0.0000
      5 C5         -0.7096   -8.5392   -3.0225 C.ar      1 <0>         0.0000
      6 C6         -2.9500   -6.9140   -3.6491 C.ar      1 <0>         0.0000
      7 C7          3.3266   -4.0753    0.7263 C.ar      1 <0>         0.0000
      8 C8         -0.7555   -7.1918   -2.5602 C.ar      1 <0>         0.0000
      9 C9         -1.7560   -9.0215   -3.7706 C.ar      1 <0>         0.0000
     10 C10        -2.8575   -8.2228   -4.0787 C.ar      1 <0>         0.0000
     11 C11         3.4576   -2.7767    1.2115 C.ar      1 <0>         0.0000
     12 C12        -1.8835   -6.4025   -2.8853 C.ar      1 <0>         0.0000
     13 C13         2.0449   -4.2006   -0.0322 C.2       1 <0>         0.0000
     14 C14         0.4031   -6.7663   -1.7778 C.2       1 <0>         0.0000
     15 C15        -3.1191  -10.1966   -5.1058 C.3       1 <0>         0.0000
     16 N1          1.2799   -3.1545   -0.1292 N.2       1 <0>         0.0000
     17 N2          0.5819   -5.5895   -1.2903 N.2       1 <0>         0.0000
     18 N3          1.7353   -5.4050   -0.5883 N.pl3     1 <0>         0.0000
     19 O1          1.1891   -1.4864    1.8495 O.2       1 <0>         0.0000
     20 O2          2.3829   -0.8168   -0.2779 O.2       1 <0>         0.0000
     21 O3         -1.9369  -10.2834   -4.2920 O.3       1 <0>         0.0000
     22 O4         -3.7675   -8.9443   -4.8063 O.3       1 <0>         0.0000
     23 S1          1.9976   -1.8471    0.6857 S.o2      1 <0>         0.0000
     24 Cl1        -2.0397   -4.7460   -2.3685 Cl        1 <0>         0.0000
     25 H1          6.2261   -5.3331    1.9536 H         1 <0>         0.0000
     26 H2          6.4229   -3.0150    2.7988 H         1 <0>         0.0000
     27 H3          4.2655   -6.0397    0.6306 H         1 <0>         0.0000
     28 H4          4.6230   -1.3386    2.3209 H         1 <0>         0.0000
     29 H5          0.1403   -9.1714   -2.7838 H         1 <0>         0.0000
     30 H6         -3.8084   -6.2956   -3.8852 H         1 <0>         0.0000
     31 H7          1.1570   -7.5534   -1.6227 H         1 <0>         0.0000
     32 H8         -2.8355  -10.2091   -6.1655 H         1 <0>         0.0000
     33 H9         -3.7929  -11.0186   -4.8557 H         1 <0>         0.0000
     34 H10         2.3891   -6.1782   -0.4732 H         1 <0>         0.0000
@<TRIPOS>BOND
     1    1    2 ar
     2    1    3 ar
     3    1   25 1
     4    2    4 ar
     5    2   26 1
     6    3    7 ar
     7    3   27 1
     8    4   11 ar
     9    4   28 1
    10    5    8 ar
    11    5    9 ar
    12    5   29 1
    13    6   10 ar
    14    6   12 ar
    15    6   30 1
    16    7   11 ar
    17    7   13 1
    18    8   12 ar
    19    8   14 1
    20    9   10 ar
    21    9   21 1
    22   10   22 1
    23   11   23 1
    24   12   24 1
    25   13   16 2
    26   13   18 1
    27   14   17 2
    28   14   31 1
    29   15   21 1
    30   15   22 1
    31   15   32 1
    32   15   33 1
    33   16   23 1
    34   17   18 1
    35   18   34 1
    36   19   23 2
    37   20   23 2
