@<TRIPOS>MOLECULE
*****
   43    45     0     0     0
SMALL
NO_CHARGES

@<TRIPOS>ATOM
      1 C1         -1.9903    4.9442   -3.8389 C.ar      1 <0>         0.0000
      2 C2         -1.9338    4.0046   -4.8902 C.ar      1 <0>         0.0000
      3 C3         -2.4471    4.5671   -2.5770 C.ar      1 <0>         0.0000
      4 C4         -2.3127    2.6734   -4.7084 C.ar      1 <0>         0.0000
      5 C5         -2.8455    3.2401   -2.3925 C.ar      1 <0>         0.0000
      6 C6         -2.7616    2.3081   -3.4354 C.ar      1 <0>         0.0000
      7 C7         -3.3630    2.5414   -1.2065 C.2       1 <0>         0.0000
      8 C8         -2.7840   -0.9664   -0.9083 C.2       1 <0>         0.0000
      9 C9          0.6928   -1.0255   -0.8660 C.3       1 <0>         0.0000
     10 C10        -0.5490   -1.7311   -0.2866 C.3       1 <0>         0.0000
     11 C11        -1.4308    0.3185    0.7738 C.3       1 <0>         0.0000
     12 C12         0.0689    0.6574    0.8979 C.3       1 <0>         0.0000
     13 C13         0.7893    0.4712   -0.4545 C.3       1 <0>         0.0000
     14 C14         0.2308    2.0495    1.5176 C.3       1 <0>         0.0000
     15 C15         0.2267    1.3712   -1.5611 C.3       1 <0>         0.0000
     16 C16        -3.8898    0.0996   -0.8084 C.3       1 <0>         0.0000
     17 N1         -3.1159    1.0348   -2.9647 N.pl3     1 <0>         0.0000
     18 N2         -3.6125    1.2470   -1.6526 N.am      1 <0>         0.0000
     19 N3         -1.6610   -0.7898   -0.1630 N.am      1 <0>         0.0000
     20 O1         -3.5275    2.9295   -0.0480 O.2       1 <0>         0.0000
     21 O2         -2.9539   -1.9189   -1.6770 O.2       1 <0>         0.0000
     22 O3          2.1659    0.8208   -0.2032 O.3       1 <0>         0.0000
     23 H1         -1.6758    5.9677   -4.0212 H         1 <0>         0.0000
     24 H2         -1.5777    4.3225   -5.8665 H         1 <0>         0.0000
     25 H3         -2.5035    5.2726   -1.7529 H         1 <0>         0.0000
     26 H4         -2.2469    1.9525   -5.5186 H         1 <0>         0.0000
     27 H5          1.5894   -1.5360   -0.5008 H         1 <0>         0.0000
     28 H6          0.6851   -1.1065   -1.9585 H         1 <0>         0.0000
     29 H7         -0.8748   -2.5562   -0.9178 H         1 <0>         0.0000
     30 H8         -0.3298   -2.1346    0.7091 H         1 <0>         0.0000
     31 H9         -1.8191    0.0573    1.7680 H         1 <0>         0.0000
     32 H10        -1.9687    1.2051    0.4450 H         1 <0>         0.0000
     33 H11         0.5394   -0.0610    1.5807 H         1 <0>         0.0000
     34 H12        -0.2496    2.8220    0.9096 H         1 <0>         0.0000
     35 H13         1.2877    2.2986    1.6292 H         1 <0>         0.0000
     36 H14        -0.2382    2.0782    2.5075 H         1 <0>         0.0000
     37 H15         0.2301    2.4235   -1.2679 H         1 <0>         0.0000
     38 H16        -0.7876    1.0788   -1.8355 H         1 <0>         0.0000
     39 H17         0.8379    1.2713   -2.4668 H         1 <0>         0.0000
     40 H18        -4.0427    0.4991    0.1957 H         1 <0>         0.0000
     41 H19        -4.8096   -0.3930   -1.1365 H         1 <0>         0.0000
     42 H20        -3.7710    0.4998   -3.5337 H         1 <0>         0.0000
     43 H21         2.6417    0.7690   -1.0477 H         1 <0>         0.0000
@<TRIPOS>BOND
     1    1    2 ar
     2    1    3 ar
     3    1   23 1
     4    2    4 ar
     5    2   24 1
     6    3    5 ar
     7    3   25 1
     8    4    6 ar
     9    4   26 1
    10    5    6 ar
    11    5    7 1
    12    6   17 1
    13    7   18 am
    14    7   20 2
    15    8   16 1
    16    8   19 am
    17    8   21 2
    18    9   10 1
    19    9   13 1
    20    9   27 1
    21    9   28 1
    22   10   19 1
    23   10   29 1
    24   10   30 1
    25   11   12 1
    26   11   19 1
    27   11   31 1
    28   11   32 1
    29   12   13 1
    30   12   14 1
    31   12   33 1
    32   13   15 1
    33   13   22 1
    34   14   34 1
    35   14   35 1
    36   14   36 1
    37   15   37 1
    38   15   38 1
    39   15   39 1
    40   16   18 1
    41   16   40 1
    42   16   41 1
    43   17   18 1
    44   17   42 1
    45   22   43 1
