@<TRIPOS>MOLECULE
*****
   34    37     0     0     0
SMALL
NO_CHARGES

@<TRIPOS>ATOM
      1 C1          5.0937   -4.9252    2.3775 C.ar      1 <0>         0.0000
      2 C2          5.5598   -3.6047    2.4353 C.ar      1 <0>         0.0000
      3 C3          4.0301   -5.2762    1.5367 C.ar      1 <0>         0.0000
      4 C4          4.9701   -2.6035    1.6508 C.ar      1 <0>         0.0000
      5 C5         -1.3340   -8.6021   -2.2091 C.ar      1 <0>         0.0000
      6 C6         -2.6761   -6.8518   -3.9949 C.ar      1 <0>         0.0000
      7 C7          3.4411   -4.2799    0.7543 C.ar      1 <0>         0.0000
      8 C8         -0.9335   -7.2369   -2.2940 C.ar      1 <0>         0.0000
      9 C9         -2.3717   -9.0404   -2.9955 C.ar      1 <0>         0.0000
     10 C10        -3.0317   -8.1802   -3.8734 C.ar      1 <0>         0.0000
     11 C11         3.9198   -2.9743    0.8271 C.ar      1 <0>         0.0000
     12 C12        -1.6177   -6.3848   -3.1923 C.ar      1 <0>         0.0000
     13 C13         2.3113   -4.3462   -0.2219 C.2       1 <0>         0.0000
     14 C14         0.1736   -6.8615   -1.4171 C.2       1 <0>         0.0000
     15 C15        -4.0571  -10.1705   -3.9457 C.3       1 <0>         0.0000
     16 N1          1.9542   -3.2537   -0.8283 N.2       1 <0>         0.0000
     17 N2          0.6724   -5.6806   -1.3108 N.2       1 <0>         0.0000
     18 N3          1.7060   -5.5482   -0.4326 N.pl3     1 <0>         0.0000
     19 O1          2.1282   -1.0088    0.4494 O.2       1 <0>         0.0000
     20 O2          3.7674   -1.5000   -1.4137 O.2       1 <0>         0.0000
     21 O3         -2.9027  -10.3070   -3.0995 O.3       1 <0>         0.0000
     22 O4         -4.0018   -8.8661   -4.5567 O.3       1 <0>         0.0000
     23 S1          2.9339   -1.9668   -0.3067 S.o2      1 <0>         0.0000
     24 Cl1        -1.2058   -4.7018   -3.3743 Cl        1 <0>         0.0000
     25 H1          5.5635   -5.6872    2.9927 H         1 <0>         0.0000
     26 H2          6.3863   -3.3549    3.0945 H         1 <0>         0.0000
     27 H3          3.6893   -6.3085    1.5112 H         1 <0>         0.0000
     28 H4          5.3220   -1.5768    1.6862 H         1 <0>         0.0000
     29 H5         -0.8237   -9.2816   -1.5332 H         1 <0>         0.0000
     30 H6         -3.1865   -6.1853   -4.6808 H         1 <0>         0.0000
     31 H7          0.5771   -7.6923   -0.8180 H         1 <0>         0.0000
     32 H8         -4.0275  -10.9340   -4.7257 H         1 <0>         0.0000
     33 H9         -4.9672  -10.2432   -3.3374 H         1 <0>         0.0000
     34 H10         2.0392   -6.3600    0.0857 H         1 <0>         0.0000
@<TRIPOS>BOND
     1    1    2 ar
     2    1    3 ar
     3    1   25 1
     4    2    4 ar
     5    2   26 1
     6    3    7 ar
     7    3   27 1
     8    4   11 ar
     9    4   28 1
    10    5    8 ar
    11    5    9 ar
    12    5   29 1
    13    6   10 ar
    14    6   12 ar
    15    6   30 1
    16    7   11 ar
    17    7   13 1
    18    8   12 ar
    19    8   14 1
    20    9   10 ar
    21    9   21 1
    22   10   22 1
    23   11   23 1
    24   12   24 1
    25   13   16 2
    26   13   18 1
    27   14   17 2
    28   14   31 1
    29   15   21 1
    30   15   22 1
    31   15   32 1
    32   15   33 1
    33   16   23 1
    34   17   18 1
    35   18   34 1
    36   19   23 2
    37   20   23 2
