@<TRIPOS>MOLECULE
*****
   34    36     0     0     0
SMALL
NO_CHARGES

@<TRIPOS>ATOM
      1 C1         -0.1955   -2.0003    1.1159 C.ar      1 <0>         0.0000
      2 C2          0.8634   -1.0641    1.0477 C.ar      1 <0>         0.0000
      3 C3          2.5311   -5.3051   -1.1956 C.ar      1 <0>         0.0000
      4 C4         -0.0281   -3.2588    0.5796 C.ar      1 <0>         0.0000
      5 C5          2.0660   -1.3914    0.4505 C.ar      1 <0>         0.0000
      6 C6          1.3509   -4.9337   -0.5908 C.ar      1 <0>         0.0000
      7 C7          3.5964   -4.3835   -1.2718 C.ar      1 <0>         0.0000
      8 C8          1.1951   -3.6305   -0.0423 C.ar      1 <0>         0.0000
      9 C9          2.2723   -2.6823   -0.1133 C.ar      1 <0>         0.0000
     10 C10         3.5001   -3.0949   -0.7522 C.ar      1 <0>         0.0000
     11 C11         6.6751    3.3657    0.4028 C.ar      1 <0>         0.0000
     12 C12         7.6555    2.5915   -0.2739 C.ar      1 <0>         0.0000
     13 C13         6.2006    0.8770   -0.3362 C.ar      1 <0>         0.0000
     14 C14         4.6937   -2.2644   -0.9131 C.2       1 <0>         0.0000
     15 C15         6.9254    4.7825    0.8314 C.3       1 <0>         0.0000
     16 N1          5.4976    2.8072    0.6611 N.ar      1 <0>         0.0000
     17 N2          7.4321    1.3505   -0.6477 N.ar      1 <0>         0.0000
     18 N3          5.2300    1.5469    0.2977 N.ar      1 <0>         0.0000
     19 N4          4.8040   -1.0491   -0.5025 N.2       1 <0>         0.0000
     20 N5          5.9811   -0.4212   -0.7323 N.pl3     1 <0>         0.0000
     21 O1          8.8551    3.1491   -0.5415 O.3       1 <0>         0.0000
     22 H1         -1.1347   -1.7256    1.5894 H         1 <0>         0.0000
     23 H2          0.7324   -0.0713    1.4703 H         1 <0>         0.0000
     24 H3          2.6491   -6.3008   -1.6142 H         1 <0>         0.0000
     25 H4         -0.8326   -3.9895    0.6241 H         1 <0>         0.0000
     26 H5          2.8613   -0.6597    0.4099 H         1 <0>         0.0000
     27 H6          0.5206   -5.6329   -0.5242 H         1 <0>         0.0000
     28 H7          4.5227   -4.6909   -1.7524 H         1 <0>         0.0000
     29 H8          5.5335   -2.7549   -1.4280 H         1 <0>         0.0000
     30 H9          7.1626    5.4188   -0.0280 H         1 <0>         0.0000
     31 H10         6.0334    5.1680    1.3281 H         1 <0>         0.0000
     32 H11         7.7753    4.8423    1.5197 H         1 <0>         0.0000
     33 H12         6.7509   -0.8876   -1.2128 H         1 <0>         0.0000
     34 H13         9.3855    2.4723   -1.0036 H         1 <0>         0.0000
@<TRIPOS>BOND
     1    1    2 ar
     2    1    4 ar
     3    1   22 1
     4    2    5 ar
     5    2   23 1
     6    3    6 ar
     7    3    7 ar
     8    3   24 1
     9    4    8 ar
    10    4   25 1
    11    5    9 ar
    12    5   26 1
    13    6    8 ar
    14    6   27 1
    15    7   10 ar
    16    7   28 1
    17    8    9 ar
    18    9   10 ar
    19   10   14 1
    20   11   12 ar
    21   11   15 1
    22   11   16 ar
    23   12   17 ar
    24   12   21 1
    25   13   17 ar
    26   13   18 ar
    27   13   20 1
    28   14   19 2
    29   14   29 1
    30   15   30 1
    31   15   31 1
    32   15   32 1
    33   16   18 ar
    34   19   20 1
    35   20   33 1
    36   21   34 1
