@<TRIPOS>MOLECULE
*****
   43    45     0     0     0
SMALL
NO_CHARGES

@<TRIPOS>ATOM
      1 C1          0.7130    1.1173    7.9357 C.ar      1 <0>         0.0000
      2 C2          1.4119    2.2601    7.4960 C.ar      1 <0>         0.0000
      3 C3         -0.2461    0.5188    7.1189 C.ar      1 <0>         0.0000
      4 C4          1.1847    2.8210    6.2370 C.ar      1 <0>         0.0000
      5 C5         -0.4874    1.0860    5.8655 C.ar      1 <0>         0.0000
      6 C6          0.2309    2.2012    5.4249 C.ar      1 <0>         0.0000
      7 C7         -1.4193    0.7057    4.7942 C.2       1 <0>         0.0000
      8 C8         -0.2950    0.3893    1.9505 C.2       1 <0>         0.0000
      9 C9         -0.4060    1.4582   -1.3686 C.3       1 <0>         0.0000
     10 C10        -1.1911    0.5700   -0.3952 C.3       1 <0>         0.0000
     11 C11         0.8007   -0.7623    0.0836 C.3       1 <0>         0.0000
     12 C12         1.6809    0.0984   -0.8420 C.3       1 <0>         0.0000
     13 C13         0.8092    0.7160   -1.9642 C.3       1 <0>         0.0000
     14 C14         2.4803    1.1303   -0.0339 C.3       1 <0>         0.0000
     15 C15         1.6067    1.6370   -2.8909 C.3       1 <0>         0.0000
     16 C16        -1.4263    1.3331    2.4217 C.3       1 <0>         0.0000
     17 N1         -0.1447    2.5431    4.1082 N.pl3     1 <0>         0.0000
     18 N2         -1.2676    1.7051    3.8094 N.am      1 <0>         0.0000
     19 N3         -0.3006    0.0345    0.6311 N.am      1 <0>         0.0000
     20 O1         -2.1909   -0.2410    4.6953 O.2       1 <0>         0.0000
     21 O2          0.5406   -0.0196    2.7532 O.2       1 <0>         0.0000
     22 O3          0.3423   -0.4262   -2.7207 O.3       1 <0>         0.0000
     23 H1          0.9275    0.7053    8.9177 H         1 <0>         0.0000
     24 H2          2.1551    2.7112    8.1486 H         1 <0>         0.0000
     25 H3         -0.8014   -0.3595    7.4355 H         1 <0>         0.0000
     26 H4          1.7428    3.6904    5.8999 H         1 <0>         0.0000
     27 H5         -1.0652    1.7867   -2.1832 H         1 <0>         0.0000
     28 H6         -0.0675    2.3615   -0.8487 H         1 <0>         0.0000
     29 H7         -2.0146    1.1224    0.0551 H         1 <0>         0.0000
     30 H8         -1.6281   -0.2731   -0.9423 H         1 <0>         0.0000
     31 H9          0.3761   -1.5999   -0.4779 H         1 <0>         0.0000
     32 H10         1.3795   -1.1532    0.9195 H         1 <0>         0.0000
     33 H11         2.3851   -0.5780   -1.3414 H         1 <0>         0.0000
     34 H12         1.8310    1.8575    0.4630 H         1 <0>         0.0000
     35 H13         3.1886    1.6786   -0.6609 H         1 <0>         0.0000
     36 H14         3.0492    0.6262    0.7522 H         1 <0>         0.0000
     37 H15         2.4842    1.1145   -3.2844 H         1 <0>         0.0000
     38 H16         1.9392    2.5446   -2.3804 H         1 <0>         0.0000
     39 H17         0.9859    1.9486   -3.7406 H         1 <0>         0.0000
     40 H18        -2.3914    0.8268    2.3394 H         1 <0>         0.0000
     41 H19        -1.4660    2.2413    1.8141 H         1 <0>         0.0000
     42 H20        -0.4324    3.5193    4.0316 H         1 <0>         0.0000
     43 H21        -0.1531   -0.0945   -3.4868 H         1 <0>         0.0000
@<TRIPOS>BOND
     1    1    2 ar
     2    1    3 ar
     3    1   23 1
     4    2    4 ar
     5    2   24 1
     6    3    5 ar
     7    3   25 1
     8    4    6 ar
     9    4   26 1
    10    5    6 ar
    11    5    7 1
    12    6   17 1
    13    7   18 am
    14    7   20 2
    15    8   16 1
    16    8   19 am
    17    8   21 2
    18    9   10 1
    19    9   13 1
    20    9   27 1
    21    9   28 1
    22   10   19 1
    23   10   29 1
    24   10   30 1
    25   11   12 1
    26   11   19 1
    27   11   31 1
    28   11   32 1
    29   12   13 1
    30   12   14 1
    31   12   33 1
    32   13   15 1
    33   13   22 1
    34   14   34 1
    35   14   35 1
    36   14   36 1
    37   15   37 1
    38   15   38 1
    39   15   39 1
    40   16   18 1
    41   16   40 1
    42   16   41 1
    43   17   18 1
    44   17   42 1
    45   22   43 1
