@<TRIPOS>MOLECULE
*****
   18    19     0     0     0
SMALL
NO_CHARGES

@<TRIPOS>ATOM
      1 C1         -0.2311    1.0115   -3.9047 C.2       1 <0>         0.0000
      2 C2          0.2251    1.3147   -2.6397 C.2       1 <0>         0.0000
      3 C3         -0.4529   -0.7846   -2.7504 C.2       1 <0>         0.0000
      4 C4         -0.2782   -1.0669    0.3386 C.3       1 <0>         0.0000
      5 C5          0.0684    1.0169    0.5224 C.3       1 <0>         0.0000
      6 C6          0.4943   -0.0408   -0.5257 C.3       1 <0>         0.0000
      7 N1         -0.6520   -0.3006   -3.9634 N.2       1 <0>         0.0000
      8 N2          0.0710    0.1550   -1.8993 N.pl3     1 <0>         0.0000
      9 N3         -0.4258   -0.0607    1.4388 N.3       1 <0>         0.0000
     10 H1         -0.2863    1.6635   -4.7671 H         1 <0>         0.0000
     11 H2          0.6253    2.2207   -2.2066 H         1 <0>         0.0000
     12 H3         -0.6683   -1.7964   -2.4322 H         1 <0>         0.0000
     13 H4         -1.2561   -1.3324   -0.0749 H         1 <0>         0.0000
     14 H5          0.2606   -1.9819    0.6019 H         1 <0>         0.0000
     15 H6          0.8641    1.6513    0.9247 H         1 <0>         0.0000
     16 H7         -0.7578    1.6478    0.1791 H         1 <0>         0.0000
     17 H8          1.5741   -0.2222   -0.4965 H         1 <0>         0.0000
     18 H9          0.2512   -0.2388    2.1770 H         1 <0>         0.0000
@<TRIPOS>BOND
     1    1    2 2
     2    1    7 1
     3    1   10 1
     4    2    8 1
     5    2   11 1
     6    3    7 2
     7    3    8 1
     8    3   12 1
     9    4    6 1
    10    4    9 1
    11    4   13 1
    12    4   14 1
    13    5    6 1
    14    5    9 1
    15    5   15 1
    16    5   16 1
    17    6    8 1
    18    6   17 1
    19    9   18 1
