@<TRIPOS>MOLECULE
*****
   43    45     0     0     0
SMALL
NO_CHARGES

@<TRIPOS>ATOM
      1 C1         -0.2236    2.0696    8.6362 C.ar      1 <0>         0.0000
      2 C2         -0.6608    3.2914    8.0824 C.ar      1 <0>         0.0000
      3 C3          0.0301    0.9725    7.8140 C.ar      1 <0>         0.0000
      4 C4         -0.8399    3.4534    6.7075 C.ar      1 <0>         0.0000
      5 C5         -0.1619    1.1230    6.4376 C.ar      1 <0>         0.0000
      6 C6         -0.5720    2.3479    5.8927 C.ar      1 <0>         0.0000
      7 C7         -0.0087    0.1689    5.3264 C.2       1 <0>         0.0000
      8 C8         -1.3137    0.7897    1.9283 C.2       1 <0>         0.0000
      9 C9         -1.7918    1.3244   -1.4684 C.3       1 <0>         0.0000
     10 C10        -2.3534    0.5461   -0.2751 C.3       1 <0>         0.0000
     11 C11        -0.1785   -0.5193    0.1051 C.3       1 <0>         0.0000
     12 C12         0.4789    0.2631   -1.0495 C.3       1 <0>         0.0000
     13 C13        -0.5958    0.6110   -2.1165 C.3       1 <0>         0.0000
     14 C14         1.2596    1.4755   -0.5218 C.3       1 <0>         0.0000
     15 C15        -0.0310    1.4378   -3.2747 C.3       1 <0>         0.0000
     16 C16        -0.1285    0.4864    2.8576 C.3       1 <0>         0.0000
     17 N1         -0.6217    2.2649    4.4915 N.pl3     1 <0>         0.0000
     18 N2         -0.4122    0.8895    4.2072 N.am      1 <0>         0.0000
     19 N3         -1.2856    0.2421    0.6840 N.am      1 <0>         0.0000
     20 O1          0.3931   -0.9959    5.3071 O.2       1 <0>         0.0000
     21 O2         -2.2353    1.5199    2.3173 O.2       1 <0>         0.0000
     22 O3         -1.1401   -0.6237   -2.6392 O.3       1 <0>         0.0000
     23 H1         -0.0892    1.9885    9.7111 H         1 <0>         0.0000
     24 H2         -0.8581    4.1321    8.7426 H         1 <0>         0.0000
     25 H3          0.3589    0.0187    8.2168 H         1 <0>         0.0000
     26 H4         -1.1658    4.4019    6.2893 H         1 <0>         0.0000
     27 H5         -2.5747    1.4486   -2.2236 H         1 <0>         0.0000
     28 H6         -1.4864    2.3233   -1.1414 H         1 <0>         0.0000
     29 H7         -3.1198    1.1185    0.2448 H         1 <0>         0.0000
     30 H8         -2.7875   -0.3990   -0.6172 H         1 <0>         0.0000
     31 H9         -0.5773   -1.4656   -0.2745 H         1 <0>         0.0000
     32 H10         0.5645   -0.7546    0.8655 H         1 <0>         0.0000
     33 H11         1.1975   -0.4180   -1.5285 H         1 <0>         0.0000
     34 H12         0.6038    2.2002   -0.0299 H         1 <0>         0.0000
     35 H13         1.7927    1.9949   -1.3218 H         1 <0>         0.0000
     36 H14         2.0077    1.1544    0.2109 H         1 <0>         0.0000
     37 H15         0.8543    0.9551   -3.7084 H         1 <0>         0.0000
     38 H16         0.2577    2.4440   -2.9600 H         1 <0>         0.0000
     39 H17        -0.7897    1.5291   -4.0576 H         1 <0>         0.0000
     40 H18         0.7685    0.9964    2.4801 H         1 <0>         0.0000
     41 H19         0.0862   -0.5831    2.9154 H         1 <0>         0.0000
     42 H20        -1.5008    2.5476    4.0515 H         1 <0>         0.0000
     43 H21        -0.4372   -1.0741   -3.1347 H         1 <0>         0.0000
@<TRIPOS>BOND
     1    1    2 ar
     2    1    3 ar
     3    1   23 1
     4    2    4 ar
     5    2   24 1
     6    3    5 ar
     7    3   25 1
     8    4    6 ar
     9    4   26 1
    10    5    6 ar
    11    5    7 1
    12    6   17 1
    13    7   18 am
    14    7   20 2
    15    8   16 1
    16    8   19 am
    17    8   21 2
    18    9   10 1
    19    9   13 1
    20    9   27 1
    21    9   28 1
    22   10   19 1
    23   10   29 1
    24   10   30 1
    25   11   12 1
    26   11   19 1
    27   11   31 1
    28   11   32 1
    29   12   13 1
    30   12   14 1
    31   12   33 1
    32   13   15 1
    33   13   22 1
    34   14   34 1
    35   14   35 1
    36   14   36 1
    37   15   37 1
    38   15   38 1
    39   15   39 1
    40   16   18 1
    41   16   40 1
    42   16   41 1
    43   17   18 1
    44   17   42 1
    45   22   43 1
