@<TRIPOS>MOLECULE
*****
   34    36     0     0     0
SMALL
NO_CHARGES

@<TRIPOS>ATOM
      1 C1         -0.1185   -2.3223    1.3307 C.ar      1 <0>         0.0000
      2 C2          1.0014   -1.4623    1.2064 C.ar      1 <0>         0.0000
      3 C3          2.0639   -5.6001   -1.5338 C.ar      1 <0>         0.0000
      4 C4         -0.1169   -3.5407    0.6889 C.ar      1 <0>         0.0000
      5 C5          2.0968   -1.8399    0.4575 C.ar      1 <0>         0.0000
      6 C6          0.9846   -5.2067   -0.7687 C.ar      1 <0>         0.0000
      7 C7          3.1979   -4.7701   -1.6428 C.ar      1 <0>         0.0000
      8 C8          0.9960   -3.9575   -0.0941 C.ar      1 <0>         0.0000
      9 C9          2.1415   -3.0988   -0.2096 C.ar      1 <0>         0.0000
     10 C10         3.2605   -3.5394   -0.9991 C.ar      1 <0>         0.0000
     11 C11         8.3268    0.7772   -0.2135 C.ar      1 <0>         0.0000
     12 C12         7.0707    0.3153    0.2403 C.ar      1 <0>         0.0000
     13 C13         7.0600   -1.2227   -1.4007 C.ar      1 <0>         0.0000
     14 C14         4.4680   -2.7084   -1.1003 C.2       1 <0>         0.0000
     15 C15         9.0591    1.9099    0.4447 C.3       1 <0>         0.0000
     16 N1          8.8763    0.1750   -1.2715 N.ar      1 <0>         0.0000
     17 N2          6.4224   -0.6785   -0.3440 N.ar      1 <0>         0.0000
     18 N3          8.2609   -0.8301   -1.8800 N.ar      1 <0>         0.0000
     19 N4          5.3656   -2.9911   -1.9875 N.2       1 <0>         0.0000
     20 N5          6.5164   -2.2727   -2.1042 N.pl3     1 <0>         0.0000
     21 O1          6.5067    0.9089    1.3118 O.3       1 <0>         0.0000
     22 H1         -0.9749   -2.0141    1.9246 H         1 <0>         0.0000
     23 H2          0.9923   -0.4941    1.7006 H         1 <0>         0.0000
     24 H3          2.0503   -6.5579   -2.0473 H         1 <0>         0.0000
     25 H4         -0.9742   -4.2053    0.7685 H         1 <0>         0.0000
     26 H5          2.9269   -1.1477    0.3668 H         1 <0>         0.0000
     27 H6          0.1117   -5.8483   -0.6727 H         1 <0>         0.0000
     28 H7          4.0526   -5.0908   -2.2295 H         1 <0>         0.0000
     29 H8          4.5921   -1.8810   -0.4143 H         1 <0>         0.0000
     30 H9          9.2710    1.6855    1.4956 H         1 <0>         0.0000
     31 H10         9.9997    2.0812   -0.0819 H         1 <0>         0.0000
     32 H11         8.4640    2.8292    0.4257 H         1 <0>         0.0000
     33 H12         7.1082   -2.5929   -2.8613 H         1 <0>         0.0000
     34 H13         5.6623    0.4503    1.4827 H         1 <0>         0.0000
@<TRIPOS>BOND
     1    1    2 ar
     2    1    4 ar
     3    1   22 1
     4    2    5 ar
     5    2   23 1
     6    3    6 ar
     7    3    7 ar
     8    3   24 1
     9    4    8 ar
    10    4   25 1
    11    5    9 ar
    12    5   26 1
    13    6    8 ar
    14    6   27 1
    15    7   10 ar
    16    7   28 1
    17    8    9 ar
    18    9   10 ar
    19   10   14 1
    20   11   12 ar
    21   11   15 1
    22   11   16 ar
    23   12   17 ar
    24   12   21 1
    25   13   17 ar
    26   13   18 ar
    27   13   20 1
    28   14   19 2
    29   14   29 1
    30   15   30 1
    31   15   31 1
    32   15   32 1
    33   16   18 ar
    34   19   20 1
    35   20   33 1
    36   21   34 1
