@<TRIPOS>MOLECULE
*****
   32    33     0     0     0
SMALL
NO_CHARGES

@<TRIPOS>ATOM
      1 C1         -0.8171   -1.1044    3.6802 C.2       1 <0>         0.0000
      2 C2          2.1124    1.6497   -1.2582 C.3       1 <0>         0.0000
      3 C3          1.5831    0.2206   -1.0712 C.3       1 <0>         0.0000
      4 C4          0.3963    0.4608    1.2862 C.3       1 <0>         0.0000
      5 C5         -0.7535   -0.6394   -0.1214 C.3       1 <0>         0.0000
      6 C6          0.8107    2.4608   -1.4010 C.3       1 <0>         0.0000
      7 C7          0.3109    0.4675   -0.2680 C.3       1 <0>         0.0000
      8 C8         -0.8936   -1.7871    6.0223 C.3       1 <0>         0.0000
      9 C9         -1.1794   -3.5103    4.2868 C.3       1 <0>         0.0000
     10 C10        -0.8839   -1.5077    2.2026 C.3       1 <0>         0.0000
     11 N1         -0.8374   -0.3618    1.3309 N.3       1 <0>         0.0000
     12 N2         -1.0588   -2.0953    4.6060 N.am      1 <0>         0.0000
     13 O1         -0.5464    0.0488    4.0120 O.2       1 <0>         0.0000
     14 O2         -0.2400    1.6669   -0.8178 O.3       1 <0>         0.0000
     15 H1          2.6669    1.9638   -0.3677 H         1 <0>         0.0000
     16 H2          2.7724    1.7599   -2.1228 H         1 <0>         0.0000
     17 H3          1.3231   -0.2267   -2.0383 H         1 <0>         0.0000
     18 H4          2.2869   -0.4436   -0.5633 H         1 <0>         0.0000
     19 H5          1.2885   -0.0654    1.6620 H         1 <0>         0.0000
     20 H6          0.3030    1.4235    1.7916 H         1 <0>         0.0000
     21 H7         -1.6864   -0.4799   -0.6721 H         1 <0>         0.0000
     22 H8         -0.3461   -1.6364   -0.3623 H         1 <0>         0.0000
     23 H9          0.8613    3.4281   -0.8885 H         1 <0>         0.0000
     24 H10         0.5542    2.6397   -2.4523 H         1 <0>         0.0000
     25 H11        -1.7389   -2.1914    6.5905 H         1 <0>         0.0000
     26 H12        -0.8530   -0.7063    6.1457 H         1 <0>         0.0000
     27 H13         0.0333   -2.2266    6.4158 H         1 <0>         0.0000
     28 H14        -0.2267   -4.0400    4.4319 H         1 <0>         0.0000
     29 H15        -1.5056   -3.6650    3.2598 H         1 <0>         0.0000
     30 H16        -1.9251   -3.9690    4.9450 H         1 <0>         0.0000
     31 H17        -0.0546   -2.2236    2.0095 H         1 <0>         0.0000
     32 H18        -1.8157   -2.0490    2.0016 H         1 <0>         0.0000
@<TRIPOS>BOND
     1    1   10 1
     2    1   12 am
     3    1   13 2
     4    2    3 1
     5    2    6 1
     6    2   15 1
     7    2   16 1
     8    3    7 1
     9    3   17 1
    10    3   18 1
    11    4    7 1
    12    4   11 1
    13    4   19 1
    14    4   20 1
    15    5    7 1
    16    5   11 1
    17    5   21 1
    18    5   22 1
    19    6   14 1
    20    6   23 1
    21    6   24 1
    22    7   14 1
    23    8   12 1
    24    8   25 1
    25    8   26 1
    26    8   27 1
    27    9   12 1
    28    9   28 1
    29    9   29 1
    30    9   30 1
    31   10   11 1
    32   10   31 1
    33   10   32 1
