@<TRIPOS>MOLECULE
*****
   39    42     0     0     0
SMALL
NO_CHARGES

@<TRIPOS>ATOM
      1 C1         -4.4704   -5.8202    4.1252 C.ar      1 <0>         0.0000
      2 C2          4.7587   -0.2604   -0.5675 C.ar      1 <0>         0.0000
      3 C3         -3.3443   -5.0594    4.3666 C.ar      1 <0>         0.0000
      4 C4          3.5311   -0.5000   -1.1900 C.ar      1 <0>         0.0000
      5 C5         -5.2474   -5.6083    2.9604 C.ar      1 <0>         0.0000
      6 C6         -1.5021   -2.2749    2.6785 C.ar      1 <0>         0.0000
      7 C7          4.7796   -0.0721    0.8160 C.ar      1 <0>         0.0000
      8 C8          2.5087   -0.3360    0.9652 C.ar      1 <0>         0.0000
      9 C9         -2.9611   -4.0548    3.4424 C.ar      1 <0>         0.0000
     10 C10         2.3648   -0.5433   -0.4192 C.ar      1 <0>         0.0000
     11 C11        -3.7257   -3.8166    2.2578 C.ar      1 <0>         0.0000
     12 C12        -1.8096   -3.2315    3.6221 C.ar      1 <0>         0.0000
     13 C13        -4.8733   -4.6348    2.0646 C.ar      1 <0>         0.0000
     14 C14        -2.3417   -2.1322    1.5426 C.ar      1 <0>         0.0000
     15 C15        -0.1299    0.1512   -0.6076 C.3       1 <0>         0.0000
     16 C16         0.1723   -1.9211   -0.3516 C.3       1 <0>         0.0000
     17 C17         1.0196   -0.8089   -1.0400 C.3       1 <0>         0.0000
     18 C18        -2.0268   -1.0638    0.5138 C.3       1 <0>         0.0000
     19 N1          3.6760   -0.1074    1.5792 N.ar      1 <0>         0.0000
     20 N2         -3.4126   -2.8740    1.3245 N.ar      1 <0>         0.0000
     21 N3         -0.5969   -0.8703    0.3548 N.3       1 <0>         0.0000
     22 O1         -1.0656   -3.4482    4.7441 O.3       1 <0>         0.0000
     23 F1         -5.6179   -4.4400    0.9560 F         1 <0>         0.0000
     24 H1         -4.7712   -6.5909    4.8290 H         1 <0>         0.0000
     25 H2          5.6813   -0.2209   -1.1400 H         1 <0>         0.0000
     26 H3         -2.7437   -5.2162    5.2559 H         1 <0>         0.0000
     27 H4          3.4800   -0.6528   -2.2664 H         1 <0>         0.0000
     28 H5         -6.1350   -6.2005    2.7590 H         1 <0>         0.0000
     29 H6         -0.6305   -1.6320    2.7711 H         1 <0>         0.0000
     30 H7          5.7183    0.1149    1.3355 H         1 <0>         0.0000
     31 H8          1.6247   -0.3573    1.6011 H         1 <0>         0.0000
     32 H9          0.1561    1.1080   -0.1573 H         1 <0>         0.0000
     33 H10        -0.8400    0.3308   -1.4302 H         1 <0>         0.0000
     34 H11        -0.4359   -2.4873   -1.0743 H         1 <0>         0.0000
     35 H12         0.7010   -2.6214    0.3033 H         1 <0>         0.0000
     36 H13         1.1253   -0.9266   -2.1201 H         1 <0>         0.0000
     37 H14        -2.5312   -1.3399   -0.4270 H         1 <0>         0.0000
     38 H15        -2.4619   -0.1126    0.8488 H         1 <0>         0.0000
     39 H16        -0.3126   -2.8342    4.7494 H         1 <0>         0.0000
@<TRIPOS>BOND
     1    1    3 ar
     2    1    5 ar
     3    1   24 1
     4    2    4 ar
     5    2    7 ar
     6    2   25 1
     7    3    9 ar
     8    3   26 1
     9    4   10 ar
    10    4   27 1
    11    5   13 ar
    12    5   28 1
    13    6   12 ar
    14    6   14 ar
    15    6   29 1
    16    7   19 ar
    17    7   30 1
    18    8   10 ar
    19    8   19 ar
    20    8   31 1
    21    9   11 ar
    22    9   12 ar
    23   10   17 1
    24   11   13 ar
    25   11   20 ar
    26   12   22 1
    27   13   23 1
    28   14   18 1
    29   14   20 ar
    30   15   17 1
    31   15   21 1
    32   15   32 1
    33   15   33 1
    34   16   17 1
    35   16   21 1
    36   16   34 1
    37   16   35 1
    38   17   36 1
    39   18   21 1
    40   18   37 1
    41   18   38 1
    42   22   39 1
