@<TRIPOS>MOLECULE
*****
   41    43     0     0     0
SMALL
NO_CHARGES

@<TRIPOS>ATOM
      1 C1         -2.3565   -4.6969   -5.1535 C.ar      1 <0>         0.0000
      2 C2         -1.2939   -5.2152   -4.4042 C.ar      1 <0>         0.0000
      3 C3         -3.2470   -3.8003   -4.5558 C.ar      1 <0>         0.0000
      4 C4         -1.1237   -4.8382   -3.0700 C.ar      1 <0>         0.0000
      5 C5         -3.0712   -3.4228   -3.2203 C.ar      1 <0>         0.0000
      6 C6         -2.0103   -3.9358   -2.4632 C.ar      1 <0>         0.0000
      7 C7         -0.3664   -3.2462   -0.6379 C.2       1 <0>         0.0000
      8 C8          0.0984    0.1710   -1.9345 C.3       1 <0>         0.0000
      9 C9          1.9588   -0.9166    0.0828 C.3       1 <0>         0.0000
     10 C10        -0.3721   -1.2659   -2.1896 C.3       1 <0>         0.0000
     11 C11         1.6929   -2.0054   -1.0023 C.3       1 <0>         0.0000
     12 C12         0.4800    2.1173   -0.3285 C.3       1 <0>         0.0000
     13 C13        -0.0551    0.6458   -0.4835 C.3       1 <0>         0.0000
     14 C14         0.6642   -0.2511    0.5489 C.3       1 <0>         0.0000
     15 C15        -1.8205   -3.5392   -1.0111 C.3       1 <0>         0.0000
     16 N1          1.2915    2.2677    0.8954 N.pl3     1 <0>         0.0000
     17 N2          0.2746   -2.2191   -1.2864 N.am      1 <0>         0.0000
     18 O1          0.2139   -3.9363    0.2037 O.2       1 <0>         0.0000
     19 O2          2.1895    0.6515    2.6789 O.2       1 <0>         0.0000
     20 O3         -0.3099    1.1718    2.5754 O.2       1 <0>         0.0000
     21 S1          0.9739    0.9383    1.9124 S.o2      1 <0>         0.0000
     22 H1         -2.4891   -4.9903   -6.1916 H         1 <0>         0.0000
     23 H2         -0.5984   -5.9157   -4.8596 H         1 <0>         0.0000
     24 H3         -4.0773   -3.3935   -5.1275 H         1 <0>         0.0000
     25 H4         -0.2969   -5.2465   -2.4931 H         1 <0>         0.0000
     26 H5         -3.7685   -2.7228   -2.7636 H         1 <0>         0.0000
     27 H6          1.1430    0.2821   -2.2447 H         1 <0>         0.0000
     28 H7         -0.4798    0.8341   -2.5892 H         1 <0>         0.0000
     29 H8          2.4455   -1.3681    0.9495 H         1 <0>         0.0000
     30 H9          2.6517   -0.1636   -0.3093 H         1 <0>         0.0000
     31 H10        -1.4510   -1.3184   -2.0530 H         1 <0>         0.0000
     32 H11        -0.1705   -1.5356   -3.2347 H         1 <0>         0.0000
     33 H12         2.1861   -1.7377   -1.9414 H         1 <0>         0.0000
     34 H13         2.0998   -2.9583   -0.6691 H         1 <0>         0.0000
     35 H14         1.1006    2.3932   -1.1848 H         1 <0>         0.0000
     36 H15        -0.3619    2.8112   -0.2857 H         1 <0>         0.0000
     37 H16        -1.1173    0.6480   -0.2235 H         1 <0>         0.0000
     38 H17        -0.0117   -0.9926    0.9757 H         1 <0>         0.0000
     39 H18        -2.4591   -2.6838   -0.7653 H         1 <0>         0.0000
     40 H19        -2.1193   -4.3570   -0.3508 H         1 <0>         0.0000
     41 H20         2.2937    2.2906    0.7169 H         1 <0>         0.0000
@<TRIPOS>BOND
     1    1    3 ar
     2    1    2 ar
     3    1   22 1
     4    2    4 ar
     5    2   23 1
     6    3    5 ar
     7    3   24 1
     8    4    6 ar
     9    4   25 1
    10    5    6 ar
    11    5   26 1
    12    6   15 1
    13    7   15 1
    14    7   17 am
    15    7   18 2
    16    8   10 1
    17    8   13 1
    18    8   27 1
    19    8   28 1
    20    9   11 1
    21    9   14 1
    22    9   29 1
    23    9   30 1
    24   10   17 1
    25   10   31 1
    26   10   32 1
    27   11   17 1
    28   11   33 1
    29   11   34 1
    30   12   13 1
    31   12   16 1
    32   12   35 1
    33   12   36 1
    34   13   14 1
    35   13   37 1
    36   14   21 1
    37   14   38 1
    38   15   39 1
    39   15   40 1
    40   16   21 1
    41   16   41 1
    42   19   21 2
    43   20   21 2
