@<TRIPOS>MOLECULE
*****
   34    37     0     0     0
SMALL
NO_CHARGES

@<TRIPOS>ATOM
      1 C1          4.0421   -6.4558    3.5553 C.ar      1 <0>         0.0000
      2 C2          4.1566   -5.2495    4.2595 C.ar      1 <0>         0.0000
      3 C3          3.1103   -6.5981    2.5193 C.ar      1 <0>         0.0000
      4 C4          3.3390   -4.1557    3.9421 C.ar      1 <0>         0.0000
      5 C5         -1.9884   -6.2587   -2.6020 C.ar      1 <0>         0.0000
      6 C6         -2.3919   -8.6021   -4.1853 C.ar      1 <0>         0.0000
      7 C7          2.2949   -5.5092    2.2016 C.ar      1 <0>         0.0000
      8 C8         -1.2059   -7.4250   -2.3683 C.ar      1 <0>         0.0000
      9 C9         -2.9273   -6.3038   -3.6016 C.ar      1 <0>         0.0000
     10 C10        -3.1273   -7.4503   -4.3796 C.ar      1 <0>         0.0000
     11 C11         2.4251   -4.3197    2.9141 C.ar      1 <0>         0.0000
     12 C12        -1.4263   -8.5645   -3.1626 C.ar      1 <0>         0.0000
     13 C13         1.2278   -5.3597    1.1668 C.2       1 <0>         0.0000
     14 C14        -0.1973   -7.4062   -1.3119 C.2       1 <0>         0.0000
     15 C15        -4.5322   -5.8572   -5.1128 C.3       1 <0>         0.0000
     16 N1          0.6088   -4.2198    1.0781 N.2       1 <0>         0.0000
     17 N2         -0.0128   -6.3480   -0.6018 N.2       1 <0>         0.0000
     18 N3          0.9483   -6.4214    0.3609 N.pl3     1 <0>         0.0000
     19 O1          0.1970   -2.8532    3.2378 O.2       1 <0>         0.0000
     20 O2          1.9230   -2.0454    1.5741 O.2       1 <0>         0.0000
     21 O3         -3.7982   -5.3187   -4.0031 O.3       1 <0>         0.0000
     22 O4         -4.1208   -7.2297   -5.2928 O.3       1 <0>         0.0000
     23 S1          1.2261   -3.1448    2.2407 S.o2      1 <0>         0.0000
     24 Cl1        -0.4886  -10.0373   -2.9202 Cl        1 <0>         0.0000
     25 H1          4.6843   -7.2921    3.8158 H         1 <0>         0.0000
     26 H2          4.8863   -5.1614    5.0594 H         1 <0>         0.0000
     27 H3          3.0426   -7.5452    1.9896 H         1 <0>         0.0000
     28 H4          3.4179   -3.2158    4.4802 H         1 <0>         0.0000
     29 H5         -1.8270   -5.3759   -1.9933 H         1 <0>         0.0000
     30 H6         -2.5464   -9.4909   -4.7858 H         1 <0>         0.0000
     31 H7          0.3874   -8.3183   -1.1520 H         1 <0>         0.0000
     32 H8         -5.6026   -5.8319   -4.8895 H         1 <0>         0.0000
     33 H9         -4.2937   -5.2913   -6.0197 H         1 <0>         0.0000
     34 H10         1.4748   -7.2841    0.4856 H         1 <0>         0.0000
@<TRIPOS>BOND
     1    1    2 ar
     2    1    3 ar
     3    1   25 1
     4    2    4 ar
     5    2   26 1
     6    3    7 ar
     7    3   27 1
     8    4   11 ar
     9    4   28 1
    10    5    8 ar
    11    5    9 ar
    12    5   29 1
    13    6   10 ar
    14    6   12 ar
    15    6   30 1
    16    7   11 ar
    17    7   13 1
    18    8   12 ar
    19    8   14 1
    20    9   10 ar
    21    9   21 1
    22   10   22 1
    23   11   23 1
    24   12   24 1
    25   13   16 2
    26   13   18 1
    27   14   17 2
    28   14   31 1
    29   15   21 1
    30   15   22 1
    31   15   32 1
    32   15   33 1
    33   16   23 1
    34   17   18 1
    35   18   34 1
    36   19   23 2
    37   20   23 2
