@<TRIPOS>MOLECULE
*****
   41    43     0     0     0
SMALL
NO_CHARGES

@<TRIPOS>ATOM
      1 C1         -3.5180   -1.3775    2.2383 C.ar      1 <0>         0.0000
      2 C2         -2.4129   -2.2357    2.1920 C.ar      1 <0>         0.0000
      3 C3         -4.4738   -1.4279    1.2196 C.ar      1 <0>         0.0000
      4 C4         -2.2624   -3.1287    1.1296 C.ar      1 <0>         0.0000
      5 C5         -4.3075   -2.3087    0.1443 C.ar      1 <0>         0.0000
      6 C6         -3.1948   -3.1576    0.0797 C.ar      1 <0>         0.0000
      7 C7         -1.5441   -3.8108   -1.6860 C.2       1 <0>         0.0000
      8 C8         -1.8027   -0.2788   -2.3060 C.3       1 <0>         0.0000
      9 C9          0.8264   -1.4937   -1.9026 C.3       1 <0>         0.0000
     10 C10        -2.2908   -1.6609   -2.7716 C.3       1 <0>         0.0000
     11 C11         0.0604   -2.4340   -2.8836 C.3       1 <0>         0.0000
     12 C12        -0.9405    1.1435   -0.3826 C.3       1 <0>         0.0000
     13 C13        -1.2697   -0.2782   -0.8718 C.3       1 <0>         0.0000
     14 C14        -0.0025   -1.1518   -0.6617 C.3       1 <0>         0.0000
     15 C15        -2.9499   -4.0490   -1.1273 C.3       1 <0>         0.0000
     16 N1         -0.2051    0.9424    0.8770 N.pl3     1 <0>         0.0000
     17 N2         -1.3196   -2.7132   -2.4810 N.am      1 <0>         0.0000
     18 O1         -0.6256   -4.5719   -1.3698 O.2       1 <0>         0.0000
     19 O2          2.1363    0.4700   -0.1815 O.2       1 <0>         0.0000
     20 O3          1.3308   -0.9680    1.7416 O.2       1 <0>         0.0000
     21 S1          1.0312   -0.1976    0.5323 S.o2      1 <0>         0.0000
     22 H1         -3.6296   -0.6757    3.0602 H         1 <0>         0.0000
     23 H2         -1.6567   -2.1956    2.9707 H         1 <0>         0.0000
     24 H3         -5.3423   -0.7748    1.2526 H         1 <0>         0.0000
     25 H4         -1.4014   -3.7914    1.0965 H         1 <0>         0.0000
     26 H5         -5.0480   -2.3286   -0.6532 H         1 <0>         0.0000
     27 H6         -1.0364    0.1017   -2.9896 H         1 <0>         0.0000
     28 H7         -2.6463    0.4183   -2.3767 H         1 <0>         0.0000
     29 H8          1.7468   -1.9872   -1.5811 H         1 <0>         0.0000
     30 H9          1.1337   -0.5742   -2.4064 H         1 <0>         0.0000
     31 H10        -3.2303   -1.8925   -2.2772 H         1 <0>         0.0000
     32 H11        -2.4859   -1.6312   -3.8521 H         1 <0>         0.0000
     33 H12         0.0292   -1.9890   -3.8827 H         1 <0>         0.0000
     34 H13         0.5744   -3.3906   -2.9553 H         1 <0>         0.0000
     35 H14        -0.3545    1.6974   -1.1310 H         1 <0>         0.0000
     36 H15        -1.8574    1.6994   -0.1712 H         1 <0>         0.0000
     37 H16        -2.0402   -0.6670   -0.2039 H         1 <0>         0.0000
     38 H17        -0.2455   -2.0583   -0.1113 H         1 <0>         0.0000
     39 H18        -2.9640   -5.1013   -0.8342 H         1 <0>         0.0000
     40 H19        -3.7299   -3.9022   -1.8789 H         1 <0>         0.0000
     41 H20         0.2373    1.7925    1.2297 H         1 <0>         0.0000
@<TRIPOS>BOND
     1    1    3 ar
     2    1    2 ar
     3    1   22 1
     4    2    4 ar
     5    2   23 1
     6    3    5 ar
     7    3   24 1
     8    4    6 ar
     9    4   25 1
    10    5    6 ar
    11    5   26 1
    12    6   15 1
    13    7   15 1
    14    7   17 am
    15    7   18 2
    16    8   10 1
    17    8   13 1
    18    8   27 1
    19    8   28 1
    20    9   11 1
    21    9   14 1
    22    9   29 1
    23    9   30 1
    24   10   17 1
    25   10   31 1
    26   10   32 1
    27   11   17 1
    28   11   33 1
    29   11   34 1
    30   12   13 1
    31   12   16 1
    32   12   35 1
    33   12   36 1
    34   13   14 1
    35   13   37 1
    36   14   21 1
    37   14   38 1
    38   15   39 1
    39   15   40 1
    40   16   21 1
    41   16   41 1
    42   19   21 2
    43   20   21 2
