@<TRIPOS>MOLECULE
*****
   21    21     0     0     0
SMALL
NO_CHARGES

@<TRIPOS>ATOM
      1 C1          1.7840   -1.7349    0.0383 C.ar      1 <0>         0.0000
      2 C2          0.6144   -1.4010    0.7227 C.ar      1 <0>         0.0000
      3 C3          3.0411   -1.4498    0.5858 C.ar      1 <0>         0.0000
      4 C4          1.9323   -0.4836    2.5332 C.ar      1 <0>         0.0000
      5 C5          0.6798   -0.7747    1.9781 C.ar      1 <0>         0.0000
      6 C6          3.0828   -0.8273    1.8269 C.ar      1 <0>         0.0000
      7 C7         -1.3300    0.7042    1.9569 C.2       1 <0>         0.0000
      8 C8         -0.5984   -0.3922    2.7009 C.3       1 <0>         0.0000
      9 N1         -2.3960    0.5637    1.2479 N.2       1 <0>         0.0000
     10 N2         -0.7989    1.9892    2.0952 N.pl3     1 <0>         0.0000
     11 O1         -2.8683   -0.7851    1.2698 O.3       1 <0>         0.0000
     12 F1          4.2916   -0.5403    2.3792 F         1 <0>         0.0000
     13 H1          1.7236   -2.2223   -0.9311 H         1 <0>         0.0000
     14 H2         -0.3583   -1.6194    0.2903 H         1 <0>         0.0000
     15 H3          3.9643   -1.7010    0.0729 H         1 <0>         0.0000
     16 H4          2.0261   -0.0061    3.5049 H         1 <0>         0.0000
     17 H5         -1.2583   -1.2560    2.7868 H         1 <0>         0.0000
     18 H6         -0.3718   -0.0303    3.7079 H         1 <0>         0.0000
     19 H7          0.2167    2.0027    2.0591 H         1 <0>         0.0000
     20 H8         -1.2007    2.6459    1.4317 H         1 <0>         0.0000
     21 H9         -3.6971   -0.7088    0.7716 H         1 <0>         0.0000
@<TRIPOS>BOND
     1    1    2 ar
     2    1    3 ar
     3    1   13 1
     4    2    5 ar
     5    2   14 1
     6    3    6 ar
     7    3   15 1
     8    4    5 ar
     9    4    6 ar
    10    4   16 1
    11    5    8 1
    12    6   12 1
    13    7    8 1
    14    7    9 2
    15    7   10 1
    16    8   17 1
    17    8   18 1
    18    9   11 1
    19   10   19 1
    20   10   20 1
    21   11   21 1
