@<TRIPOS>MOLECULE
*****
   36    39     0     0     0
SMALL
NO_CHARGES

@<TRIPOS>ATOM
      1 C1         -3.8015    3.5979    0.1953 C.ar      1 <0>         0.0000
      2 C2         -5.5824    1.6621   -3.8671 C.ar      1 <0>         0.0000
      3 C3         -2.1542   -2.9126   -5.2282 C.2       1 <0>         0.0000
      4 C4         -4.6247    3.7088   -0.9031 C.ar      1 <0>         0.0000
      5 C5         -5.5396    2.7156   -2.9819 C.ar      1 <0>         0.0000
      6 C6         -3.0322    2.4292    0.3898 C.ar      1 <0>         0.0000
      7 C7         -2.1374   -2.0867   -4.0711 C.2       1 <0>         0.0000
      8 C8         -4.7612    0.5393   -3.6071 C.ar      1 <0>         0.0000
      9 C9         -1.6897   -4.1778   -4.8634 C.2       1 <0>         0.0000
     10 C10        -4.6956    2.6482   -1.8434 C.ar      1 <0>         0.0000
     11 C11        -3.0594    1.3659   -0.4992 C.ar      1 <0>         0.0000
     12 C12        -3.9042    1.4650   -1.6566 C.ar      1 <0>         0.0000
     13 C13        -1.6572   -2.8750   -3.0229 C.2       1 <0>         0.0000
     14 C14        -1.2912   -2.8619   -1.6152 C.2       1 <0>         0.0000
     15 C15        -2.1835    0.1867   -0.1028 C.2       1 <0>         0.0000
     16 C16        -0.6005   -4.1934   -1.3205 C.3       1 <0>         0.0000
     17 C17        -0.9142   -5.0938   -2.5413 C.3       1 <0>         0.0000
     18 N1         -3.9602    0.4420   -2.5631 N.ar      1 <0>         0.0000
     19 N2         -1.4333   -1.9839   -0.6841 N.2       1 <0>         0.0000
     20 N3         -1.3891   -4.1310   -3.5354 N.pl3     1 <0>         0.0000
     21 N4         -2.0931   -0.8306   -1.0202 N.am      1 <0>         0.0000
     22 O1         -1.5902    0.1900    0.9720 O.2       1 <0>         0.0000
     23 H1         -3.7418    4.4041    0.9213 H         1 <0>         0.0000
     24 H2         -6.2200    1.6776   -4.7458 H         1 <0>         0.0000
     25 H3         -2.4573   -2.6209   -6.2260 H         1 <0>         0.0000
     26 H4         -5.2279    4.5994   -1.0636 H         1 <0>         0.0000
     27 H5         -6.1470    3.6041   -3.1394 H         1 <0>         0.0000
     28 H6         -2.3927    2.3296    1.2609 H         1 <0>         0.0000
     29 H7         -2.4090   -1.0426   -4.0163 H         1 <0>         0.0000
     30 H8         -4.7666   -0.3108   -4.2888 H         1 <0>         0.0000
     31 H9         -1.5583   -5.0776   -5.4494 H         1 <0>         0.0000
     32 H10         0.4775   -4.0260   -1.2315 H         1 <0>         0.0000
     33 H11        -0.9487   -4.6234   -0.3800 H         1 <0>         0.0000
     34 H12        -0.0384   -5.6323   -2.9127 H         1 <0>         0.0000
     35 H13        -1.7015   -5.8228   -2.3205 H         1 <0>         0.0000
     36 H14        -2.6870   -0.7636   -1.8539 H         1 <0>         0.0000
@<TRIPOS>BOND
     1    1    4 ar
     2    1    6 ar
     3    1   23 1
     4    2    5 ar
     5    2    8 ar
     6    2   24 1
     7    3    7 1
     8    3    9 2
     9    3   25 1
    10    4   10 ar
    11    4   26 1
    12    5   10 ar
    13    5   27 1
    14    6   11 ar
    15    6   28 1
    16    7   13 2
    17    7   29 1
    18    8   18 ar
    19    8   30 1
    20    9   20 1
    21    9   31 1
    22   10   12 ar
    23   11   12 ar
    24   11   15 1
    25   12   18 ar
    26   13   14 1
    27   13   20 1
    28   14   16 1
    29   14   19 2
    30   15   21 am
    31   15   22 2
    32   16   17 1
    33   16   32 1
    34   16   33 1
    35   17   20 1
    36   17   34 1
    37   17   35 1
    38   19   21 1
    39   21   36 1
