@<TRIPOS>MOLECULE
*****
   26    26     0     0     0
SMALL
NO_CHARGES

@<TRIPOS>ATOM
      1 C1          4.2192    0.7971    3.7306 C.2       1 <0>         0.0000
      2 C2          5.0410    0.2501    4.7674 C.2       1 <0>         0.0000
      3 C3          3.8246   -0.1559    2.8303 C.2       1 <0>         0.0000
      4 C4          5.2728   -1.0965    4.6731 C.2       1 <0>         0.0000
      5 C5          6.0323   -1.9964    5.6013 C.3       1 <0>         0.0000
      6 C6          0.0885   -2.0034    0.3353 C.3       1 <0>         0.0000
      7 C7          2.0818   -1.3404   -1.0585 C.3       1 <0>         0.0000
      8 C8          3.0203    0.0168    1.5750 C.3       1 <0>         0.0000
      9 C9          1.2502   -1.0176    0.1881 C.3       1 <0>         0.0000
     10 N1          2.0823   -1.0932    1.4014 N.3       1 <0>         0.0000
     11 S1          4.4505   -1.7267    3.2652 S.3       1 <0>         0.0000
     12 Br1         5.7299    1.3279    6.1882 Br        1 <0>         0.0000
     13 H1          3.9490    1.8453    3.6633 H         1 <0>         0.0000
     14 H2          5.4073   -2.3142    6.4442 H         1 <0>         0.0000
     15 H3          6.3866   -2.8939    5.0871 H         1 <0>         0.0000
     16 H4          6.8996   -1.4721    6.0114 H         1 <0>         0.0000
     17 H5          0.4689   -3.0226    0.4621 H         1 <0>         0.0000
     18 H6         -0.5332   -1.7598    1.2052 H         1 <0>         0.0000
     19 H7         -0.5540   -1.9808   -0.5503 H         1 <0>         0.0000
     20 H8          2.5263   -2.3368   -0.9645 H         1 <0>         0.0000
     21 H9          2.8904   -0.6201   -1.2144 H         1 <0>         0.0000
     22 H10         1.4500   -1.3209   -1.9527 H         1 <0>         0.0000
     23 H11         2.5297    1.0062    1.6093 H         1 <0>         0.0000
     24 H12         3.6951    0.0324    0.7122 H         1 <0>         0.0000
     25 H13         0.8276   -0.0024    0.0676 H         1 <0>         0.0000
     26 H14         1.4744   -1.1254    2.2183 H         1 <0>         0.0000
@<TRIPOS>BOND
     1    1    2 1
     2    1    3 2
     3    1   13 1
     4    2    4 2
     5    2   12 1
     6    3    8 1
     7    3   11 1
     8    4    5 1
     9    4   11 1
    10    5   14 1
    11    5   15 1
    12    5   16 1
    13    6    9 1
    14    6   17 1
    15    6   18 1
    16    6   19 1
    17    7    9 1
    18    7   20 1
    19    7   21 1
    20    7   22 1
    21    8   10 1
    22    8   23 1
    23    8   24 1
    24    9   10 1
    25    9   25 1
    26   10   26 1
