@<TRIPOS>MOLECULE
*****
   28    28     0     0     0
SMALL
NO_CHARGES

@<TRIPOS>ATOM
      1 C1          1.0548   -0.1969   -0.5187 C.2       1 <0>         0.0000
      2 C2         -0.9497    0.2722    0.1981 C.2       1 <0>         0.0000
      3 C3          2.0178   -1.5728   -2.3311 C.3       1 <0>         0.0000
      4 C4          0.0448    0.7744    3.4498 C.3       1 <0>         0.0000
      5 C5         -0.6574    2.6537   -3.5959 C.3       1 <0>         0.0000
      6 C6          2.1916   -0.3370   -1.4709 C.3       1 <0>         0.0000
      7 C7         -0.5246   -0.3201    2.6128 C.3       1 <0>         0.0000
      8 C8         -0.2452    2.1724   -2.2210 C.3       1 <0>         0.0000
      9 N1          1.1313   -0.4863    0.7496 N.2       1 <0>         0.0000
     10 N2         -0.1310    0.2765   -0.8909 N.am      1 <0>         0.0000
     11 N3         -0.1221   -0.1855    1.2386 N.am      1 <0>         0.0000
     12 O1         -2.1207    0.6131    0.2678 O.2       1 <0>         0.0000
     13 O2         -0.4931    0.7495   -2.1257 O.3       1 <0>         0.0000
     14 H1          1.9714   -2.4712   -1.7079 H         1 <0>         0.0000
     15 H2          2.8522   -1.6828   -3.0321 H         1 <0>         0.0000
     16 H3          1.0961   -1.5156   -2.9195 H         1 <0>         0.0000
     17 H4         -0.3052    1.7461    3.0712 H         1 <0>         0.0000
     18 H5         -0.2833    0.6474    4.4920 H         1 <0>         0.0000
     19 H6          1.1432    0.7373    3.4040 H         1 <0>         0.0000
     20 H7         -0.0824    2.1463   -4.3755 H         1 <0>         0.0000
     21 H8         -1.7232    2.4693   -3.7659 H         1 <0>         0.0000
     22 H9         -0.5024    3.7337   -3.6890 H         1 <0>         0.0000
     23 H10         2.2380    0.5613   -2.0949 H         1 <0>         0.0000
     24 H11         3.1183   -0.4029   -0.8918 H         1 <0>         0.0000
     25 H12        -0.1702   -1.2878    2.9976 H         1 <0>         0.0000
     26 H13        -1.6224   -0.2824    2.6708 H         1 <0>         0.0000
     27 H14        -0.8238    2.6837   -1.4460 H         1 <0>         0.0000
     28 H15         0.8201    2.3566   -2.0531 H         1 <0>         0.0000
@<TRIPOS>BOND
     1    1    6 1
     2    1    9 2
     3    1   10 1
     4    2   10 am
     5    2   11 am
     6    2   12 2
     7    3    6 1
     8    3   14 1
     9    3   15 1
    10    3   16 1
    11    4    7 1
    12    4   17 1
    13    4   18 1
    14    4   19 1
    15    5    8 1
    16    5   20 1
    17    5   21 1
    18    5   22 1
    19    6   23 1
    20    6   24 1
    21    7   11 1
    22    7   25 1
    23    7   26 1
    24    8   13 1
    25    8   27 1
    26    8   28 1
    27    9   11 1
    28   10   13 1
