@<TRIPOS>MOLECULE
*****
   29    30     0     0     0
SMALL
NO_CHARGES

@<TRIPOS>ATOM
      1 C1          1.7515   -1.0511   -0.1309 C.ar      1 <0>         0.0000
      2 C2          6.1277   -3.5015    3.7553 C.ar      1 <0>         0.0000
      3 C3          2.8124   -0.4742    0.5734 C.ar      1 <0>         0.0000
      4 C4          0.6773   -1.6084    0.5725 C.ar      1 <0>         0.0000
      5 C5          5.0926   -3.7613    2.8501 C.ar      1 <0>         0.0000
      6 C6          5.8429   -2.8587    4.9649 C.ar      1 <0>         0.0000
      7 C7          2.8020   -0.4558    1.9713 C.ar      1 <0>         0.0000
      8 C8          0.6728   -1.5869    1.9690 C.ar      1 <0>         0.0000
      9 C9          3.7817   -3.3758    3.1431 C.ar      1 <0>         0.0000
     10 C10         4.5338   -2.4683    5.2643 C.ar      1 <0>         0.0000
     11 C11         1.7328   -1.0123    2.6858 C.ar      1 <0>         0.0000
     12 C12         3.5039   -2.7212    4.3500 C.ar      1 <0>         0.0000
     13 C13         2.4198    0.0672    4.9112 C.3       1 <0>         0.0000
     14 C14         1.7150   -1.0855    4.2012 C.3       1 <0>         0.0000
     15 O1          2.2020   -2.3811    4.6743 O.3       1 <0>         0.0000
     16 H1          1.7601   -1.0658   -1.2178 H         1 <0>         0.0000
     17 H2          7.1453   -3.8049    3.5241 H         1 <0>         0.0000
     18 H3          3.6528   -0.0436    0.0349 H         1 <0>         0.0000
     19 H4         -0.1533   -2.0576    0.0337 H         1 <0>         0.0000
     20 H5          5.3044   -4.2682    1.9120 H         1 <0>         0.0000
     21 H6          6.6387   -2.6647    5.6798 H         1 <0>         0.0000
     22 H7          3.6426   -0.0184    2.5006 H         1 <0>         0.0000
     23 H8         -0.1573   -2.0321    2.5136 H         1 <0>         0.0000
     24 H9          2.9717   -3.5758    2.4494 H         1 <0>         0.0000
     25 H10         4.2959   -1.9821    6.2059 H         1 <0>         0.0000
     26 H11         3.4893    0.0977    4.6899 H         1 <0>         0.0000
     27 H12         2.3014   -0.0392    5.9932 H         1 <0>         0.0000
     28 H13         1.9801    1.0209    4.6025 H         1 <0>         0.0000
     29 H14         0.6722   -1.1079    4.5278 H         1 <0>         0.0000
@<TRIPOS>BOND
     1    1    4 ar
     2    1    3 ar
     3    1   16 1
     4    2    6 ar
     5    2    5 ar
     6    2   17 1
     7    3    7 ar
     8    3   18 1
     9    4    8 ar
    10    4   19 1
    11    5    9 ar
    12    5   20 1
    13    6   10 ar
    14    6   21 1
    15    7   11 ar
    16    7   22 1
    17    8   11 ar
    18    8   23 1
    19    9   12 ar
    20    9   24 1
    21   10   12 ar
    22   10   25 1
    23   11   14 1
    24   12   15 1
    25   13   14 1
    26   13   26 1
    27   13   27 1
    28   13   28 1
    29   14   15 1
    30   14   29 1
