@<TRIPOS>MOLECULE
*****
   40    43     0     0     0
SMALL
NO_CHARGES

@<TRIPOS>ATOM
      1 C1         -4.0802   -4.4097    4.0285 C.ar      1 <0>         0.0000
      2 C2         -1.3639    1.4407   -0.8446 C.ar      1 <0>         0.0000
      3 C3         -4.1916   -3.2561    3.2548 C.ar      1 <0>         0.0000
      4 C4         -1.2570    0.2673   -0.1122 C.ar      1 <0>         0.0000
      5 C5         -4.1738   -5.6772    3.4423 C.ar      1 <0>         0.0000
      6 C6         -2.2801    1.5142   -1.8869 C.ar      1 <0>         0.0000
      7 C7         -4.3994   -3.3313    1.8745 C.ar      1 <0>         0.0000
      8 C8         -2.0595   -0.8353   -0.4246 C.ar      1 <0>         0.0000
      9 C9         -4.5241   -6.8670    1.1476 C.2       1 <0>         0.0000
     10 C10        -4.7115   -6.3440   -0.1111 C.2       1 <0>         0.0000
     11 C11        -4.3833   -5.7779    2.0526 C.ar      1 <0>         0.0000
     12 C12        -3.0852    0.4088   -2.2189 C.ar      1 <0>         0.0000
     13 C13        -4.4910   -4.6050    1.3023 C.ar      1 <0>         0.0000
     14 C14        -2.9798   -0.7975   -1.4876 C.ar      1 <0>         0.0000
     15 C15        -3.6205   -3.2111   -1.2797 C.2       1 <0>         0.0000
     16 C16        -4.0760    0.5844   -3.3400 C.3       1 <0>         0.0000
     17 C17        -4.5230   -0.7543   -3.8924 C.3       1 <0>         0.0000
     18 C18        -4.9395   -1.6600   -2.7472 C.3       1 <0>         0.0000
     19 C19        -4.8539   -4.0734   -1.1260 C.3       1 <0>         0.0000
     20 N1         -4.6898   -4.9789   -0.0077 N.pl3     1 <0>         0.0000
     21 N2         -3.8288   -1.9258   -1.8140 N.am      1 <0>         0.0000
     22 O1         -2.5338   -3.6905   -0.9493 O.2       1 <0>         0.0000
     23 H1         -3.9200   -4.3263    5.1003 H         1 <0>         0.0000
     24 H2         -0.7462    2.2986   -0.5978 H         1 <0>         0.0000
     25 H3         -4.1167   -2.2816    3.7308 H         1 <0>         0.0000
     26 H4         -0.5574    0.2076    0.7169 H         1 <0>         0.0000
     27 H5         -4.0853   -6.5680    4.0576 H         1 <0>         0.0000
     28 H6         -2.3694    2.4429   -2.4460 H         1 <0>         0.0000
     29 H7         -4.4842   -2.4297    1.2770 H         1 <0>         0.0000
     30 H8         -1.9556   -1.6981    0.2237 H         1 <0>         0.0000
     31 H9         -4.4925   -7.9205    1.3894 H         1 <0>         0.0000
     32 H10        -4.8577   -6.8300   -1.0663 H         1 <0>         0.0000
     33 H11        -4.9407    1.1395   -2.9560 H         1 <0>         0.0000
     34 H12        -3.6335    1.1736   -4.1519 H         1 <0>         0.0000
     35 H13        -5.3604   -0.6092   -4.5842 H         1 <0>         0.0000
     36 H14        -3.7129   -1.2259   -4.4632 H         1 <0>         0.0000
     37 H15        -5.7589   -1.2186   -2.1666 H         1 <0>         0.0000
     38 H16        -5.3096   -2.5930   -3.1801 H         1 <0>         0.0000
     39 H17        -4.9941   -4.6422   -2.0404 H         1 <0>         0.0000
     40 H18        -5.7086   -3.4266   -0.9511 H         1 <0>         0.0000
@<TRIPOS>BOND
     1    1    3 ar
     2    1    5 ar
     3    1   23 1
     4    2    4 ar
     5    2    6 ar
     6    2   24 1
     7    3    7 ar
     8    3   25 1
     9    4    8 ar
    10    4   26 1
    11    5   11 ar
    12    5   27 1
    13    6   12 ar
    14    6   28 1
    15    7   13 ar
    16    7   29 1
    17    8   14 ar
    18    8   30 1
    19    9   10 2
    20    9   11 1
    21    9   31 1
    22   10   20 1
    23   10   32 1
    24   11   13 ar
    25   12   14 ar
    26   12   16 1
    27   13   20 1
    28   14   21 1
    29   15   19 1
    30   15   21 am
    31   15   22 2
    32   16   17 1
    33   16   33 1
    34   16   34 1
    35   17   18 1
    36   17   35 1
    37   17   36 1
    38   18   21 1
    39   18   37 1
    40   18   38 1
    41   19   20 1
    42   19   39 1
    43   19   40 1
