@<TRIPOS>MOLECULE
*****
   33    34     0     0     0
SMALL
NO_CHARGES

@<TRIPOS>ATOM
      1 C1          4.6605   -3.6172    4.3255 C.ar      1 <0>         0.0000
      2 C2          5.8867   -3.0128    4.6024 C.ar      1 <0>         0.0000
      3 C3          4.2488   -3.7858    3.0034 C.ar      1 <0>         0.0000
      4 C4          3.1465   -0.6976    1.6199 C.ar      1 <0>         0.0000
      5 C5          1.6166   -1.9907    0.2693 C.ar      1 <0>         0.0000
      6 C6          6.7011   -2.5768    3.5573 C.ar      1 <0>         0.0000
      7 C7          2.0676   -0.1241    2.2929 C.ar      1 <0>         0.0000
      8 C8          0.5378   -1.4174    0.9423 C.ar      1 <0>         0.0000
      9 C9          2.9210   -1.6309    0.6081 C.ar      1 <0>         0.0000
     10 C10         5.0633   -3.3499    1.9583 C.ar      1 <0>         0.0000
     11 C11         0.7633   -0.4841    1.9541 C.ar      1 <0>         0.0000
     12 C12         6.2895   -2.7454    2.2353 C.ar      1 <0>         0.0000
     13 C13         0.0124    1.0232    3.6334 C.3       1 <0>         0.0000
     14 C14         4.0745   -2.2433   -0.1117 C.3       1 <0>         0.0000
     15 C15         4.6014   -3.5402    0.5341 C.3       1 <0>         0.0000
     16 O1          7.0966   -2.3132    1.2262 O.3       1 <0>         0.0000
     17 O2         -0.2896    0.0763    2.6098 O.3       1 <0>         0.0000
     18 H1          4.0255   -3.9564    5.1390 H         1 <0>         0.0000
     19 H2          6.2064   -2.8809    5.6319 H         1 <0>         0.0000
     20 H3          3.2910   -4.2566    2.7982 H         1 <0>         0.0000
     21 H4          4.1595   -0.4112    1.8907 H         1 <0>         0.0000
     22 H5          1.4317   -2.7170   -0.5176 H         1 <0>         0.0000
     23 H6          7.6553   -2.1066    3.7794 H         1 <0>         0.0000
     24 H7          2.2499    0.6024    3.0798 H         1 <0>         0.0000
     25 H8         -0.4762   -1.7016    0.6736 H         1 <0>         0.0000
     26 H9         -0.9165    1.3924    4.0749 H         1 <0>         0.0000
     27 H10         0.5807    1.8536    3.2067 H         1 <0>         0.0000
     28 H11         0.6106    0.5335    4.4054 H         1 <0>         0.0000
     29 H12         3.7730   -2.4727   -1.1482 H         1 <0>         0.0000
     30 H13         4.9012   -1.5188   -0.2124 H         1 <0>         0.0000
     31 H14         5.4455   -3.9268   -0.0517 H         1 <0>         0.0000
     32 H15         3.8315   -4.3213    0.4936 H         1 <0>         0.0000
     33 H16         7.9051   -1.9191    1.5895 H         1 <0>         0.0000
@<TRIPOS>BOND
     1    1    2 ar
     2    1    3 ar
     3    1   18 1
     4    2    6 ar
     5    2   19 1
     6    3   10 ar
     7    3   20 1
     8    4    7 ar
     9    4    9 ar
    10    4   21 1
    11    5    8 ar
    12    5    9 ar
    13    5   22 1
    14    6   12 ar
    15    6   23 1
    16    7   11 ar
    17    7   24 1
    18    8   11 ar
    19    8   25 1
    20    9   14 1
    21   10   12 ar
    22   10   15 1
    23   11   17 1
    24   12   16 1
    25   13   17 1
    26   13   26 1
    27   13   27 1
    28   13   28 1
    29   14   15 1
    30   14   29 1
    31   14   30 1
    32   15   31 1
    33   15   32 1
    34   16   33 1
