@<TRIPOS>MOLECULE
*****
   32    33     0     0     0
SMALL
NO_CHARGES

@<TRIPOS>ATOM
      1 C1         -0.0880    1.7648   -3.8070 C.ar      1 <0>         0.0000
      2 C2         -1.7233    0.0048   -4.2154 C.ar      1 <0>         0.0000
      3 C3         -0.6988    2.5600   -4.7782 C.ar      1 <0>         0.0000
      4 C4         -2.3380    0.7983   -5.1843 C.ar      1 <0>         0.0000
      5 C5         -0.6108    0.5005   -3.5312 C.ar      1 <0>         0.0000
      6 C6         -1.8214    2.0703   -5.4522 C.ar      1 <0>         0.0000
      7 C7         -0.7664   -1.2736    0.2648 C.2       1 <0>         0.0000
      8 C8          0.3477    1.8804    0.1976 C.3       1 <0>         0.0000
      9 C9          0.9715    1.1657    1.4022 C.3       1 <0>         0.0000
     10 C10        -0.9547    1.2644   -0.3327 C.3       1 <0>         0.0000
     11 C11         1.4331   -0.2679    1.1173 C.3       1 <0>         0.0000
     12 C12        -0.9435   -0.1950   -0.8178 C.3       1 <0>         0.0000
     13 N1          0.3390   -1.2460    1.0562 N.am      1 <0>         0.0000
     14 O1         -1.6536   -2.1127    0.4100 O.2       1 <0>         0.0000
     15 O2         -0.0208   -1.9285   -2.6380 O.2       1 <0>         0.0000
     16 O3          1.5053    0.0271   -2.0177 O.2       1 <0>         0.0000
     17 S1          0.1581   -0.5200   -2.2649 S.o2      1 <0>         0.0000
     18 Cl1        -2.5925    3.0676   -6.6662 Cl        1 <0>         0.0000
     19 H1          0.7955    2.1113   -3.2803 H         1 <0>         0.0000
     20 H2         -2.0897   -0.9961   -4.0066 H         1 <0>         0.0000
     21 H3         -0.3077    3.5443   -5.0143 H         1 <0>         0.0000
     22 H4         -3.2010    0.4339   -5.7320 H         1 <0>         0.0000
     23 H5          0.1200    2.9141    0.4828 H         1 <0>         0.0000
     24 H6          1.0878    1.9300   -0.6052 H         1 <0>         0.0000
     25 H7          1.8494    1.7400    1.7213 H         1 <0>         0.0000
     26 H8          0.2720    1.1563    2.2478 H         1 <0>         0.0000
     27 H9         -1.7205    1.3039    0.4524 H         1 <0>         0.0000
     28 H10        -1.3328    1.8862   -1.1515 H         1 <0>         0.0000
     29 H11         2.0210   -0.3006    0.1970 H         1 <0>         0.0000
     30 H12         2.0809   -0.6058    1.9300 H         1 <0>         0.0000
     31 H13        -1.9254   -0.4271   -1.2358 H         1 <0>         0.0000
     32 H14         0.3376   -1.9945    1.7395 H         1 <0>         0.0000
@<TRIPOS>BOND
     1    1    3 ar
     2    1    5 ar
     3    1   19 1
     4    2    4 ar
     5    2    5 ar
     6    2   20 1
     7    3    6 ar
     8    3   21 1
     9    4    6 ar
    10    4   22 1
    11    5   17 1
    12    6   18 1
    13    7   12 1
    14    7   13 am
    15    7   14 2
    16    8    9 1
    17    8   10 1
    18    8   23 1
    19    8   24 1
    20    9   11 1
    21    9   25 1
    22    9   26 1
    23   10   12 1
    24   10   27 1
    25   10   28 1
    26   11   13 1
    27   11   29 1
    28   11   30 1
    29   12   17 1
    30   12   31 1
    31   13   32 1
    32   15   17 2
    33   16   17 2
