@<TRIPOS>MOLECULE
*****
   29    30     0     0     0
SMALL
NO_CHARGES

@<TRIPOS>ATOM
      1 C1          5.4718    2.5644    0.0786 C.ar      1 <0>         0.0000
      2 C2          4.0296    4.3810    1.4296 C.ar      1 <0>         0.0000
      3 C3          4.1190    2.3585    0.3661 C.ar      1 <0>         0.0000
      4 C4          5.3906    4.5674    1.1295 C.ar      1 <0>         0.0000
      5 C5          3.4398    1.0910   -0.0874 C.2       1 <0>         0.0000
      6 C6          0.4558   -0.7675    1.0532 C.3       1 <0>         0.0000
      7 C7         -0.0810    0.1790   -0.7586 C.3       1 <0>         0.0000
      8 C8          1.2826   -0.1009   -0.0759 C.3       1 <0>         0.0000
      9 C9         -2.0197   -0.6386    0.5997 C.3       1 <0>         0.0000
     10 C10        -2.5428   -1.8584    1.3387 C.3       1 <0>         0.0000
     11 N1          3.4032    3.2729    1.0434 N.ar      1 <0>         0.0000
     12 N2          6.1090    3.6788    0.4650 N.ar      1 <0>         0.0000
     13 N3         -0.6789   -0.8658    0.1034 N.3       1 <0>         0.0000
     14 N4          2.1249    1.0157    0.2571 N.am      1 <0>         0.0000
     15 O1          4.0581    0.2283   -0.7110 O.2       1 <0>         0.0000
     16 F1         -2.7933   -2.8870    0.4679 F         1 <0>         0.0000
     17 F2         -3.7360   -1.5390    1.9525 F         1 <0>         0.0000
     18 Cl1         6.1791    6.0358    1.6533 Cl        1 <0>         0.0000
     19 H1          6.0375    1.8172   -0.4692 H         1 <0>         0.0000
     20 H2          3.4642    5.1297    1.9780 H         1 <0>         0.0000
     21 H3          0.8153   -1.7181    1.4590 H         1 <0>         0.0000
     22 H4          0.2643   -0.0627    1.8817 H         1 <0>         0.0000
     23 H5         -0.4431    1.1945   -0.5228 H         1 <0>         0.0000
     24 H6         -0.1688    0.0006   -1.8347 H         1 <0>         0.0000
     25 H7          1.8840   -0.8201   -0.6291 H         1 <0>         0.0000
     26 H8         -2.6914   -0.4477   -0.2436 H         1 <0>         0.0000
     27 H9         -2.0831    0.2245    1.2884 H         1 <0>         0.0000
     28 H10        -1.8640   -2.2356    2.1100 H         1 <0>         0.0000
     29 H11         1.7476    1.8052    0.7714 H         1 <0>         0.0000
@<TRIPOS>BOND
     1    1    3 ar
     2    1   12 ar
     3    1   19 1
     4    2    4 ar
     5    2   11 ar
     6    2   20 1
     7    3    5 1
     8    3   11 ar
     9    4   12 ar
    10    4   18 1
    11    5   14 am
    12    5   15 2
    13    6    8 1
    14    6   13 1
    15    6   21 1
    16    6   22 1
    17    7    8 1
    18    7   13 1
    19    7   23 1
    20    7   24 1
    21    8   14 1
    22    8   25 1
    23    9   10 1
    24    9   13 1
    25    9   26 1
    26    9   27 1
    27   10   16 1
    28   10   17 1
    29   10   28 1
    30   14   29 1
