@<TRIPOS>MOLECULE
*****
   36    36     0     0     0
SMALL
NO_CHARGES

@<TRIPOS>ATOM
      1 C1         -0.1173    2.3749   -1.9926 C.2       1 <0>         0.0000
      2 C2          1.6570    3.1246   -3.3797 C.2       1 <0>         0.0000
      3 C3         -1.7259    0.9002   -0.8928 C.2       1 <0>         0.0000
      4 C4         -0.9734    5.5079   -7.5272 C.3       1 <0>         0.0000
      5 C5         -1.2427    3.1281    0.0365 C.3       1 <0>         0.0000
      6 C6         -2.6389   -1.1110   -1.8855 C.3       1 <0>         0.0000
      7 C7         -2.5191    0.9337   -3.2670 C.3       1 <0>         0.0000
      8 C8          0.3843    4.8017   -7.4409 C.3       1 <0>         0.0000
      9 C9          0.8791    4.6708   -5.9938 C.3       1 <0>         0.0000
     10 C10         2.2161    3.9454   -5.9089 C.3       1 <0>         0.0000
     11 N1          0.3465    1.4292   -2.7836 N.2       1 <0>         0.0000
     12 N2          1.3688    1.8804   -3.5812 N.2       1 <0>         0.0000
     13 N3         -1.1670    2.2151   -1.1141 N.am      1 <0>         0.0000
     14 N4         -2.2788    0.3000   -1.9783 N.am      1 <0>         0.0000
     15 O1         -1.7278    0.4310    0.2415 O.2       1 <0>         0.0000
     16 O2          2.8351    5.4669   -3.7268 O.2       1 <0>         0.0000
     17 S1          0.6991    3.9333   -2.1558 S.3       1 <0>         0.0000
     18 S2          2.9832    4.0396   -4.2238 S.o       1 <0>         0.0000
     19 H1         -0.9205    6.5161   -7.1016 H         1 <0>         0.0000
     20 H2         -1.3080    5.5993   -8.5658 H         1 <0>         0.0000
     21 H3         -1.7420    4.9543   -6.9758 H         1 <0>         0.0000
     22 H4         -1.3735    4.1533   -0.3222 H         1 <0>         0.0000
     23 H5         -0.3464    3.0674    0.6622 H         1 <0>         0.0000
     24 H6         -2.1052    2.8507    0.6388 H         1 <0>         0.0000
     25 H7         -3.7230   -1.2378   -1.9909 H         1 <0>         0.0000
     26 H8         -2.3288   -1.4986   -0.9170 H         1 <0>         0.0000
     27 H9         -2.1380   -1.6706   -2.6838 H         1 <0>         0.0000
     28 H10        -1.7714    0.6243   -4.0043 H         1 <0>         0.0000
     29 H11        -2.4927    2.0184   -3.1695 H         1 <0>         0.0000
     30 H12        -3.5158    0.6436   -3.6169 H         1 <0>         0.0000
     31 H13         0.3112    3.8062   -7.8972 H         1 <0>         0.0000
     32 H14         1.1252    5.3583   -8.0286 H         1 <0>         0.0000
     33 H15         0.9853    5.6643   -5.5443 H         1 <0>         0.0000
     34 H16         0.1329    4.1296   -5.4010 H         1 <0>         0.0000
     35 H17         2.1462    2.8773   -6.1384 H         1 <0>         0.0000
     36 H18         2.9678    4.4015   -6.5625 H         1 <0>         0.0000
@<TRIPOS>BOND
     1    1   11 2
     2    1   13 1
     3    1   17 1
     4    2   12 2
     5    2   17 1
     6    2   18 1
     7    3   13 am
     8    3   14 am
     9    3   15 2
    10    4    8 1
    11    4   19 1
    12    4   20 1
    13    4   21 1
    14    5   13 1
    15    5   22 1
    16    5   23 1
    17    5   24 1
    18    6   14 1
    19    6   25 1
    20    6   26 1
    21    6   27 1
    22    7   14 1
    23    7   28 1
    24    7   29 1
    25    7   30 1
    26    8    9 1
    27    8   31 1
    28    8   32 1
    29    9   10 1
    30    9   33 1
    31    9   34 1
    32   10   18 1
    33   10   35 1
    34   10   36 1
    35   11   12 1
    36   16   18 2
