@<TRIPOS>MOLECULE
*****
   17    17     0     0     0
SMALL
NO_CHARGES

@<TRIPOS>ATOM
      1 C1          1.7886   -1.1889   -0.1128 C.ar      1 <0>         0.0000
      2 C2          0.7256   -0.5550    0.5447 C.ar      1 <0>         0.0000
      3 C3          2.8727   -1.6600    0.6208 C.ar      1 <0>         0.0000
      4 C4          0.7561   -0.3978    1.9307 C.ar      1 <0>         0.0000
      5 C5          2.9367   -1.5184    2.0213 C.ar      1 <0>         0.0000
      6 C6          1.8535   -0.8791    2.6391 C.ar      1 <0>         0.0000
      7 C7          4.1543   -2.0636    2.7219 C.2       1 <0>         0.0000
      8 C8          4.2872   -1.9517    4.2256 C.3       1 <0>         0.0000
      9 O1          5.0350   -2.5991    2.0585 O.2       1 <0>         0.0000
     10 F1          1.8362   -0.7013    3.9867 F         1 <0>         0.0000
     11 H1          1.7669   -1.3123   -1.1917 H         1 <0>         0.0000
     12 H2         -0.1261   -0.1833   -0.0186 H         1 <0>         0.0000
     13 H3          3.7083   -2.1543    0.1355 H         1 <0>         0.0000
     14 H4         -0.0501    0.0884    2.4714 H         1 <0>         0.0000
     15 H5          3.4538   -2.4512    4.7288 H         1 <0>         0.0000
     16 H6          4.2616   -0.9043    4.5412 H         1 <0>         0.0000
     17 H7          5.2317   -2.4085    4.5244 H         1 <0>         0.0000
@<TRIPOS>BOND
     1    1    2 ar
     2    1    3 ar
     3    1   11 1
     4    2    4 ar
     5    2   12 1
     6    3    5 ar
     7    3   13 1
     8    4    6 ar
     9    4   14 1
    10    5    6 ar
    11    5    7 1
    12    6   10 1
    13    7    8 1
    14    7    9 2
    15    8   15 1
    16    8   16 1
    17    8   17 1
