@<TRIPOS>MOLECULE
*****
   32    33     0     0     0
SMALL
NO_CHARGES

@<TRIPOS>ATOM
      1 C1         -3.9459   -7.1506   -1.4864 C.ar      1 <0>         0.0000
      2 C2         -5.0773   -6.3305   -1.5650 C.ar      1 <0>         0.0000
      3 C3         -2.8072   -6.7014   -0.8086 C.ar      1 <0>         0.0000
      4 C4         -5.0705   -5.0676   -0.9684 C.ar      1 <0>         0.0000
      5 C5         -2.7932   -5.4291   -0.2315 C.ar      1 <0>         0.0000
      6 C6         -3.9224   -4.6012   -0.3148 C.ar      1 <0>         0.0000
      7 C7         -3.9811   -3.2659    0.3765 C.2       1 <0>         0.0000
      8 C8         -0.4764   -0.8407    0.2898 C.3       1 <0>         0.0000
      9 C9         -0.5680   -2.1491   -0.5053 C.3       1 <0>         0.0000
     10 C10        -1.4593   -0.8645    1.4681 C.3       1 <0>         0.0000
     11 C11        -2.0132   -2.4186   -0.9283 C.3       1 <0>         0.0000
     12 C12        -2.9046   -1.1813    1.0447 C.3       1 <0>         0.0000
     13 C13        -3.6080   -0.0209    0.3256 C.3       1 <0>         0.0000
     14 N1         -2.9090   -2.4169    0.2347 N.am      1 <0>         0.0000
     15 O1         -4.9523   -2.9897    1.0886 O.2       1 <0>         0.0000
     16 H1         -3.9548   -8.1374   -1.9421 H         1 <0>         0.0000
     17 H2         -5.9675   -6.6801   -2.0814 H         1 <0>         0.0000
     18 H3         -1.9329   -7.3422   -0.7270 H         1 <0>         0.0000
     19 H4         -5.9540   -4.4363   -0.9938 H         1 <0>         0.0000
     20 H5         -1.9114   -5.0838    0.3021 H         1 <0>         0.0000
     21 H6          0.5444   -0.6853    0.6561 H         1 <0>         0.0000
     22 H7         -0.7019    0.0042   -0.3731 H         1 <0>         0.0000
     23 H8          0.0681   -2.1096   -1.3970 H         1 <0>         0.0000
     24 H9         -0.2142   -2.9841    0.1131 H         1 <0>         0.0000
     25 H10        -1.1370   -1.6309    2.1839 H         1 <0>         0.0000
     26 H11        -1.4477    0.0942    1.9986 H         1 <0>         0.0000
     27 H12        -2.3368   -1.6387   -1.6330 H         1 <0>         0.0000
     28 H13        -2.0994   -3.3684   -1.4518 H         1 <0>         0.0000
     29 H14        -3.4883   -1.4130    1.9364 H         1 <0>         0.0000
     30 H15        -3.0916    0.2830   -0.5901 H         1 <0>         0.0000
     31 H16        -3.6564    0.8524    0.9846 H         1 <0>         0.0000
     32 H17        -4.6303   -0.3104    0.0683 H         1 <0>         0.0000
@<TRIPOS>BOND
     1    1    3 ar
     2    1    2 ar
     3    1   16 1
     4    2    4 ar
     5    2   17 1
     6    3    5 ar
     7    3   18 1
     8    4    6 ar
     9    4   19 1
    10    5    6 ar
    11    5   20 1
    12    6    7 1
    13    7   14 am
    14    7   15 2
    15    8    9 1
    16    8   10 1
    17    8   21 1
    18    8   22 1
    19    9   11 1
    20    9   23 1
    21    9   24 1
    22   10   12 1
    23   10   25 1
    24   10   26 1
    25   11   14 1
    26   11   27 1
    27   11   28 1
    28   12   13 1
    29   12   14 1
    30   12   29 1
    31   13   30 1
    32   13   31 1
    33   13   32 1
