@<TRIPOS>MOLECULE
*****
   32    34     0     0     0
SMALL
NO_CHARGES

@<TRIPOS>ATOM
      1 C1         -3.8945   -5.3187    1.1418 C.ar      1 <0>         0.0000
      2 C2         -2.9634   -5.0758    0.1257 C.ar      1 <0>         0.0000
      3 C3         -3.4499   -5.7271    2.4025 C.ar      1 <0>         0.0000
      4 C4          2.1183   -7.2513    2.6970 C.ar      1 <0>         0.0000
      5 C5          3.0605   -6.2749    2.3606 C.ar      1 <0>         0.0000
      6 C6          1.0481   -1.6327   -0.4906 C.2       1 <0>         0.0000
      7 C7         -1.5990   -5.2329    0.3700 C.ar      1 <0>         0.0000
      8 C8         -2.0829   -5.8880    2.6460 C.ar      1 <0>         0.0000
      9 C9          0.7625   -7.0130    2.4684 C.ar      1 <0>         0.0000
     10 C10         2.6321   -5.0659    1.8129 C.ar      1 <0>         0.0000
     11 C11         1.4903   -2.9148   -0.0502 C.2       1 <0>         0.0000
     12 C12         0.0408   -0.9625    0.1497 C.2       1 <0>         0.0000
     13 C13        -1.1405   -5.6372    1.6353 C.ar      1 <0>         0.0000
     14 C14         0.3132   -5.8072    1.9059 C.ar      1 <0>         0.0000
     15 C15         1.2690   -4.8135    1.5850 C.ar      1 <0>         0.0000
     16 C16         0.8876   -3.4842    1.0457 C.2       1 <0>         0.0000
     17 C17        -0.6171   -1.5306    1.3130 C.2       1 <0>         0.0000
     18 N1         -0.1019   -2.7869    1.6887 N.am      1 <0>         0.0000
     19 O1         -1.5332   -1.0220    1.9645 O.2       1 <0>         0.0000
     20 H1         -4.9563   -5.1848    0.9535 H         1 <0>         0.0000
     21 H2         -3.3007   -4.7590   -0.8575 H         1 <0>         0.0000
     22 H3         -4.1648   -5.9095    3.2005 H         1 <0>         0.0000
     23 H4          2.4375   -8.1973    3.1262 H         1 <0>         0.0000
     24 H5          4.1190   -6.4472    2.5351 H         1 <0>         0.0000
     25 H6          1.5193   -1.1863   -1.3637 H         1 <0>         0.0000
     26 H7         -0.8820   -5.0405   -0.4231 H         1 <0>         0.0000
     27 H8         -1.7409   -6.1865    3.6340 H         1 <0>         0.0000
     28 H9          0.0329   -7.7854    2.6958 H         1 <0>         0.0000
     29 H10         3.3545   -4.2872    1.5858 H         1 <0>         0.0000
     30 H11         2.2607   -3.4593   -0.5828 H         1 <0>         0.0000
     31 H12        -0.3107    0.0092   -0.1800 H         1 <0>         0.0000
     32 H13        -0.5712   -3.2060    2.4861 H         1 <0>         0.0000
@<TRIPOS>BOND
     1    1    3 ar
     2    1    2 ar
     3    1   20 1
     4    2    7 ar
     5    2   21 1
     6    3    8 ar
     7    3   22 1
     8    4    5 ar
     9    4    9 ar
    10    4   23 1
    11    5   10 ar
    12    5   24 1
    13    6   12 2
    14    6   11 1
    15    6   25 1
    16    7   13 ar
    17    7   26 1
    18    8   13 ar
    19    8   27 1
    20    9   14 ar
    21    9   28 1
    22   10   15 ar
    23   10   29 1
    24   11   16 2
    25   11   30 1
    26   12   17 1
    27   12   31 1
    28   13   14 1
    29   14   15 ar
    30   15   16 1
    31   16   18 1
    32   17   18 am
    33   17   19 2
    34   18   32 1
