@<TRIPOS>MOLECULE
*****
   22    23     0     0     0
SMALL
NO_CHARGES

@<TRIPOS>ATOM
      1 C1          1.8115   -0.9537   -0.2038 C.ar      1 <0>         0.0000
      2 C2          2.7958   -1.6293    0.5246 C.ar      1 <0>         0.0000
      3 C3          0.7604   -0.3113    0.4647 C.ar      1 <0>         0.0000
      4 C4          2.7368   -1.6591    1.9196 C.ar      1 <0>         0.0000
      5 C5          0.6949   -0.3472    1.8556 C.ar      1 <0>         0.0000
      6 C6          4.6016   -2.5614    6.5249 C.ar      1 <0>         0.0000
      7 C7          3.3082   -3.0893    6.5518 C.ar      1 <0>         0.0000
      8 C8          4.8396   -1.5430    5.6022 C.ar      1 <0>         0.0000
      9 C9          1.6850   -1.0183    2.5949 C.ar      1 <0>         0.0000
     10 C10         2.6728   -1.6487    4.9149 C.ar      1 <0>         0.0000
     11 C11         1.5476   -1.0578    4.0772 C.2       1 <0>         0.0000
     12 N1          2.3318   -2.6305    5.7604 N.ar      1 <0>         0.0000
     13 N2          3.8839   -1.0905    4.7781 N.ar      1 <0>         0.0000
     14 O1          0.5623   -0.6261    4.6599 O.2       1 <0>         0.0000
     15 H1          1.8615   -0.9278   -1.2895 H         1 <0>         0.0000
     16 H2          3.6098   -2.1287    0.0060 H         1 <0>         0.0000
     17 H3         -0.0047    0.2123   -0.1022 H         1 <0>         0.0000
     18 H4          3.5094   -2.1764    2.4778 H         1 <0>         0.0000
     19 H5         -0.1151    0.1356    2.3934 H         1 <0>         0.0000
     20 H6          5.3825   -2.9301    7.1828 H         1 <0>         0.0000
     21 H7          3.0434   -3.9000    7.2292 H         1 <0>         0.0000
     22 H8          5.8204   -1.0787    5.5097 H         1 <0>         0.0000
@<TRIPOS>BOND
     1    1    3 ar
     2    1    2 ar
     3    1   15 1
     4    2    4 ar
     5    2   16 1
     6    3    5 ar
     7    3   17 1
     8    4    9 ar
     9    4   18 1
    10    5    9 ar
    11    5   19 1
    12    6    8 ar
    13    6    7 ar
    14    6   20 1
    15    7   12 ar
    16    7   21 1
    17    8   13 ar
    18    8   22 1
    19    9   11 1
    20   10   11 1
    21   10   13 ar
    22   10   12 ar
    23   11   14 2
