@<TRIPOS>MOLECULE
*****
   19    20     0     0     0
SMALL
NO_CHARGES

@<TRIPOS>ATOM
      1 C1          1.3922   -0.0637    1.6484 C.ar      1 <0>         0.0000
      2 C2          0.2139   -0.4349    0.9853 C.ar      1 <0>         0.0000
      3 C3          1.6683   -0.6093    2.8951 C.ar      1 <0>         0.0000
      4 C4         -0.6286   -1.3447    1.6229 C.ar      1 <0>         0.0000
      5 C5         -1.0141   -4.3478    6.3809 C.2       1 <0>         0.0000
      6 C6          0.0266   -4.1745    7.2322 C.2       1 <0>         0.0000
      7 C7          0.7404   -1.5222    3.4435 C.ar      1 <0>         0.0000
      8 C8          0.2981   -2.9653    5.4452 C.2       1 <0>         0.0000
      9 N1         -0.3829   -1.8842    2.8254 N.ar      1 <0>         0.0000
     10 N2         -0.8336   -3.5681    5.2348 N.2       1 <0>         0.0000
     11 N3          1.0254   -2.0670    4.6987 N.pl3     1 <0>         0.0000
     12 O1          0.9004   -3.2711    6.6387 O.3       1 <0>         0.0000
     13 H1          2.0856    0.6419    1.1983 H         1 <0>         0.0000
     14 H2         -0.0413   -0.0331    0.0098 H         1 <0>         0.0000
     15 H3          2.5734   -0.3422    3.4357 H         1 <0>         0.0000
     16 H4         -1.5556   -1.6644    1.1488 H         1 <0>         0.0000
     17 H5         -1.8872   -4.9755    6.4992 H         1 <0>         0.0000
     18 H6          0.3115   -4.5535    8.2013 H         1 <0>         0.0000
     19 H7          1.8861   -1.7699    5.1381 H         1 <0>         0.0000
@<TRIPOS>BOND
     1    1    2 ar
     2    1    3 ar
     3    1   13 1
     4    2    4 ar
     5    2   14 1
     6    3    7 ar
     7    3   15 1
     8    4    9 ar
     9    4   16 1
    10    5    6 2
    11    5   10 1
    12    5   17 1
    13    6   12 1
    14    6   18 1
    15    7    9 ar
    16    7   11 1
    17    8   10 2
    18    8   11 1
    19    8   12 1
    20   11   19 1
