@<TRIPOS>MOLECULE
*****
   33    35     0     0     0
SMALL
NO_CHARGES

@<TRIPOS>ATOM
      1 C1          4.8194    4.2456   -3.5384 C.ar      1 <0>         0.0000
      2 C2          1.9124    1.0971   -0.3597 C.ar      1 <0>         0.0000
      3 C3          6.0420    4.8198   -3.1810 C.ar      1 <0>         0.0000
      4 C4          0.5111    1.1178   -0.3852 C.ar      1 <0>         0.0000
      5 C5          3.7765    4.2334   -2.6131 C.ar      1 <0>         0.0000
      6 C6          2.6122    2.2994   -0.3583 C.ar      1 <0>         0.0000
      7 C7          6.2000    5.3762   -1.9093 C.ar      1 <0>         0.0000
      8 C8         -0.1683    2.3319   -0.3753 C.ar      1 <0>         0.0000
      9 C9          3.9231    4.8077   -1.3385 C.ar      1 <0>         0.0000
     10 C10         1.9488    3.5414   -0.3551 C.ar      1 <0>         0.0000
     11 C11         5.1572    5.3929   -0.9709 C.ar      1 <0>         0.0000
     12 C12         0.5359    3.5487   -0.3443 C.ar      1 <0>         0.0000
     13 C13         2.7425    4.7997   -0.4222 C.2       1 <0>         0.0000
     14 C14         0.0198    5.8754    0.4122 C.2       1 <0>         0.0000
     15 C15         1.3496    5.8749    1.1565 C.3       1 <0>         0.0000
     16 C16         5.4020    6.0155    0.3844 C.3       1 <0>         0.0000
     17 N1          2.4750    5.8739    0.2336 N.2       1 <0>         0.0000
     18 N2         -0.2025    4.7472   -0.3678 N.am      1 <0>         0.0000
     19 O1         -0.8055    6.7740    0.4733 O.2       1 <0>         0.0000
     20 H1          4.6800    3.8090   -4.5237 H         1 <0>         0.0000
     21 H2          2.4487    0.1526   -0.3538 H         1 <0>         0.0000
     22 H3          6.8708    4.8301   -3.8844 H         1 <0>         0.0000
     23 H4         -0.0510    0.1880   -0.4036 H         1 <0>         0.0000
     24 H5          2.8257    3.7824   -2.8831 H         1 <0>         0.0000
     25 H6          3.6978    2.2930   -0.3742 H         1 <0>         0.0000
     26 H7          7.1586    5.8099   -1.6337 H         1 <0>         0.0000
     27 H8         -1.2557    2.3499   -0.3795 H         1 <0>         0.0000
     28 H9          1.3788    6.7820    1.7599 H         1 <0>         0.0000
     29 H10         1.3665    4.9997    1.8247 H         1 <0>         0.0000
     30 H11         4.9210    6.9943    0.4571 H         1 <0>         0.0000
     31 H12         4.9884    5.4065    1.1929 H         1 <0>         0.0000
     32 H13         6.4753    6.1378    0.5568 H         1 <0>         0.0000
     33 H14        -1.1507    4.6971   -0.7273 H         1 <0>         0.0000
@<TRIPOS>BOND
     1    1    3 ar
     2    1    5 ar
     3    1   20 1
     4    2    4 ar
     5    2    6 ar
     6    2   21 1
     7    3    7 ar
     8    3   22 1
     9    4    8 ar
    10    4   23 1
    11    5    9 ar
    12    5   24 1
    13    6   10 ar
    14    6   25 1
    15    7   11 ar
    16    7   26 1
    17    8   12 ar
    18    8   27 1
    19    9   11 ar
    20    9   13 1
    21   10   12 ar
    22   10   13 1
    23   11   16 1
    24   12   18 1
    25   13   17 2
    26   14   15 1
    27   14   18 am
    28   14   19 2
    29   15   17 1
    30   15   28 1
    31   15   29 1
    32   16   30 1
    33   16   31 1
    34   16   32 1
    35   18   33 1
