@<TRIPOS>MOLECULE
*****
   27    28     0     0     0
SMALL
NO_CHARGES

@<TRIPOS>ATOM
      1 C1          2.7590   -1.0182    0.6826 C.ar      1 <0>         0.0000
      2 C2         -2.2992    0.4411    4.6022 C.ar      1 <0>         0.0000
      3 C3          3.8735   -0.8389    1.5101 C.ar      1 <0>         0.0000
      4 C4          1.5333   -1.4034    1.2363 C.ar      1 <0>         0.0000
      5 C5         -1.2872    1.2237    4.0369 C.ar      1 <0>         0.0000
      6 C6         -1.9885   -0.5441    5.5486 C.ar      1 <0>         0.0000
      7 C7          3.7627   -1.0344    2.8889 C.ar      1 <0>         0.0000
      8 C8          1.4224   -1.6191    2.6123 C.ar      1 <0>         0.0000
      9 C9          0.0448    1.0241    4.4107 C.ar      1 <0>         0.0000
     10 C10        -0.6622   -0.7560    5.9289 C.ar      1 <0>         0.0000
     11 C11         2.5379   -1.4352    3.4376 C.ar      1 <0>         0.0000
     12 C12         0.3343    0.0322    5.3483 C.ar      1 <0>         0.0000
     13 N1          2.3774   -1.6564    4.8503 N.pl3     1 <0>         0.0000
     14 O1          2.1280   -0.7395    7.1826 O.2       1 <0>         0.0000
     15 O2          2.8295    0.8883    5.3493 O.2       1 <0>         0.0000
     16 S1          2.0399   -0.2630    5.7995 S.o2      1 <0>         0.0000
     17 H1          2.8464   -0.8586   -0.3888 H         1 <0>         0.0000
     18 H2         -3.3335    0.6007    4.3092 H         1 <0>         0.0000
     19 H3          4.8251   -0.5330    1.0839 H         1 <0>         0.0000
     20 H4          0.6663   -1.5466    0.5969 H         1 <0>         0.0000
     21 H5         -1.5323    1.9895    3.3064 H         1 <0>         0.0000
     22 H6         -2.7789   -1.1436    5.9915 H         1 <0>         0.0000
     23 H7          4.6132   -0.8590    3.5420 H         1 <0>         0.0000
     24 H8          0.4833   -1.9333    3.0573 H         1 <0>         0.0000
     25 H9          0.8488    1.6182    3.9890 H         1 <0>         0.0000
     26 H10        -0.3977   -1.5106    6.6631 H         1 <0>         0.0000
     27 H11         3.1798   -2.1113    5.2894 H         1 <0>         0.0000
@<TRIPOS>BOND
     1    1    4 ar
     2    1    3 ar
     3    1   17 1
     4    2    6 ar
     5    2    5 ar
     6    2   18 1
     7    3    7 ar
     8    3   19 1
     9    4    8 ar
    10    4   20 1
    11    5    9 ar
    12    5   21 1
    13    6   10 ar
    14    6   22 1
    15    7   11 ar
    16    7   23 1
    17    8   11 ar
    18    8   24 1
    19    9   12 ar
    20    9   25 1
    21   10   12 ar
    22   10   26 1
    23   11   13 1
    24   12   16 1
    25   13   16 1
    26   13   27 1
    27   14   16 2
    28   15   16 2
