@<TRIPOS>MOLECULE
*****
   19    20     0     0     0
SMALL
NO_CHARGES

@<TRIPOS>ATOM
      1 C1          1.4148   -0.0499    1.6496 C.ar      1 <0>         0.0000
      2 C2          0.2444   -0.4015    0.9616 C.ar      1 <0>         0.0000
      3 C3          1.6650   -0.6111    2.8943 C.ar      1 <0>         0.0000
      4 C4         -0.6175   -1.3093    1.5742 C.ar      1 <0>         0.0000
      5 C5         -0.3646   -4.2821    6.9847 C.2       1 <0>         0.0000
      6 C6         -1.3156   -4.3317    6.0178 C.2       1 <0>         0.0000
      7 C7          0.7198   -1.5212    3.4189 C.ar      1 <0>         0.0000
      8 C8          0.2593   -2.9787    5.4246 C.2       1 <0>         0.0000
      9 N1         -0.3976   -1.8646    2.7751 N.ar      1 <0>         0.0000
     10 N2          0.6502   -3.4078    6.5976 N.2       1 <0>         0.0000
     11 N3          0.9780   -2.0811    4.6700 N.pl3     1 <0>         0.0000
     12 O1         -0.9162   -3.4816    4.9923 O.3       1 <0>         0.0000
     13 H1          2.1228    0.6536    1.2192 H         1 <0>         0.0000
     14 H2          0.0099    0.0135   -0.0135 H         1 <0>         0.0000
     15 H3          2.5629   -0.3593    3.4532 H         1 <0>         0.0000
     16 H4         -1.5392   -1.6140    1.0804 H         1 <0>         0.0000
     17 H5         -0.3305   -4.8075    7.9295 H         1 <0>         0.0000
     18 H6         -2.2521   -4.8466    5.8707 H         1 <0>         0.0000
     19 H7          1.8327   -1.8023    5.1345 H         1 <0>         0.0000
@<TRIPOS>BOND
     1    1    2 ar
     2    1    3 ar
     3    1   13 1
     4    2    4 ar
     5    2   14 1
     6    3    7 ar
     7    3   15 1
     8    4    9 ar
     9    4   16 1
    10    5    6 2
    11    5   10 1
    12    5   17 1
    13    6   12 1
    14    6   18 1
    15    7    9 ar
    16    7   11 1
    17    8   10 2
    18    8   11 1
    19    8   12 1
    20   11   19 1
