@<TRIPOS>MOLECULE
*****
   28    29     0     0     0
SMALL
NO_CHARGES

@<TRIPOS>ATOM
      1 C1          1.6276   -4.1657    5.5665 C.ar      1 <0>         0.0000
      2 C2          2.6966   -3.7130    6.3446 C.ar      1 <0>         0.0000
      3 C3          0.9459   -3.2703    4.7442 C.ar      1 <0>         0.0000
      4 C4          3.0294   -2.3594    6.2540 C.ar      1 <0>         0.0000
      5 C5          1.3671   -1.9254    4.7351 C.ar      1 <0>         0.0000
      6 C6          0.5621    0.4060    0.7207 C.3       1 <0>         0.0000
      7 C7          1.2814   -0.9111    1.0454 C.3       1 <0>         0.0000
      8 C8         -0.0264    1.0426    1.9879 C.3       1 <0>         0.0000
      9 C9          0.3541   -1.8909    1.7794 C.3       1 <0>         0.0000
     10 C10        -0.9491    0.0632    2.7271 C.3       1 <0>         0.0000
     11 C11        -0.2526   -1.2628    3.0416 C.3       1 <0>         0.0000
     12 N1          2.3892   -1.4823    5.4726 N.ar      1 <0>         0.0000
     13 O1          0.7785   -0.9446    4.0043 O.3       1 <0>         0.0000
     14 H1          1.3231   -5.2091    5.5948 H         1 <0>         0.0000
     15 H2          3.2536   -4.3796    6.9955 H         1 <0>         0.0000
     16 H3          0.1174   -3.6133    4.1370 H         1 <0>         0.0000
     17 H4          3.8549   -1.9546    6.8385 H         1 <0>         0.0000
     18 H5         -0.2461    0.2104    0.0013 H         1 <0>         0.0000
     19 H6          1.2538    1.1031    0.2339 H         1 <0>         0.0000
     20 H7          1.6565   -1.3790    0.1280 H         1 <0>         0.0000
     21 H8          2.1532   -0.7037    1.6767 H         1 <0>         0.0000
     22 H9          0.7868    1.3410    2.6587 H         1 <0>         0.0000
     23 H10        -0.5834    1.9522    1.7353 H         1 <0>         0.0000
     24 H11        -0.4755   -2.1843    1.1221 H         1 <0>         0.0000
     25 H12         0.8949   -2.8082    2.0333 H         1 <0>         0.0000
     26 H13        -1.3139    0.5024    3.6614 H         1 <0>         0.0000
     27 H14        -1.8273   -0.1611    2.1077 H         1 <0>         0.0000
     28 H15        -0.9765   -1.9441    3.5049 H         1 <0>         0.0000
@<TRIPOS>BOND
     1    1    2 ar
     2    1    3 ar
     3    1   14 1
     4    2    4 ar
     5    2   15 1
     6    3    5 ar
     7    3   16 1
     8    4   12 ar
     9    4   17 1
    10    5   12 ar
    11    5   13 1
    12    6    8 1
    13    6    7 1
    14    6   18 1
    15    6   19 1
    16    7    9 1
    17    7   20 1
    18    7   21 1
    19    8   10 1
    20    8   22 1
    21    8   23 1
    22    9   11 1
    23    9   24 1
    24    9   25 1
    25   10   11 1
    26   10   26 1
    27   10   27 1
    28   11   13 1
    29   11   28 1
