@<TRIPOS>MOLECULE
*****
   22    22     0     0     0
SMALL
NO_CHARGES

@<TRIPOS>ATOM
      1 C1         -0.9865    3.9565    2.9767 C.ar      1 <0>         0.0000
      2 C2         -1.9397    3.6981    1.9888 C.ar      1 <0>         0.0000
      3 C3         -0.1460    2.9198    3.3916 C.ar      1 <0>         0.0000
      4 C4         -2.0144    2.4104    1.4466 C.ar      1 <0>         0.0000
      5 C5         -0.3281    1.6750    2.7894 C.ar      1 <0>         0.0000
      6 C6          0.5363   -1.1947    1.0429 C.3       1 <0>         0.0000
      7 C7          2.2618    0.5819    1.1506 C.3       1 <0>         0.0000
      8 N1         -1.2208    1.4055    1.8393 N.ar      1 <0>         0.0000
      9 N2          1.3833   -0.3355    1.8827 N.pl3     1 <0>         0.0000
     10 O1          1.8130    0.8587    4.0750 O.2       1 <0>         0.0000
     11 O2         -0.1419   -0.7704    3.8533 O.2       1 <0>         0.0000
     12 S1          0.7197    0.2699    3.2963 S.o2      1 <0>         0.0000
     13 H1         -0.8963    4.9463    3.4161 H         1 <0>         0.0000
     14 H2         -2.6121    4.4754    1.6379 H         1 <0>         0.0000
     15 H3          0.6212    3.0532    4.1465 H         1 <0>         0.0000
     16 H4         -2.7381    2.1756    0.6685 H         1 <0>         0.0000
     17 H5         -0.1119   -1.7952    1.6792 H         1 <0>         0.0000
     18 H6          1.1960   -1.8627    0.4804 H         1 <0>         0.0000
     19 H7         -0.0775   -0.6093    0.3483 H         1 <0>         0.0000
     20 H8          2.9008    1.1177    1.8526 H         1 <0>         0.0000
     21 H9          1.6946    1.2997    0.5396 H         1 <0>         0.0000
     22 H10         2.8979   -0.0141    0.4902 H         1 <0>         0.0000
@<TRIPOS>BOND
     1    1    2 ar
     2    1    3 ar
     3    1   13 1
     4    2    4 ar
     5    2   14 1
     6    3    5 ar
     7    3   15 1
     8    4    8 ar
     9    4   16 1
    10    5    8 ar
    11    5   12 1
    12    6    9 1
    13    6   17 1
    14    6   18 1
    15    6   19 1
    16    7    9 1
    17    7   20 1
    18    7   21 1
    19    7   22 1
    20    9   12 1
    21   10   12 2
    22   11   12 2
