@<TRIPOS>MOLECULE
*****
   22    23     0     0     0
SMALL
NO_CHARGES

@<TRIPOS>ATOM
      1 C1          1.9833   -1.0684   -0.1516 C.ar      1 <0>         0.0000
      2 C2          2.5374   -2.1543    0.5335 C.ar      1 <0>         0.0000
      3 C3          1.4375   -0.0013    0.5700 C.ar      1 <0>         0.0000
      4 C4          2.5428   -2.1703    1.9317 C.ar      1 <0>         0.0000
      5 C5          1.4400   -0.0206    1.9674 C.ar      1 <0>         0.0000
      6 C6          2.6271    2.1445    5.4597 C.2       1 <0>         0.0000
      7 C7          3.0680    1.0251    4.7875 C.2       1 <0>         0.0000
      8 C8          0.9895    0.7582    5.4862 C.2       1 <0>         0.0000
      9 C9          1.9905   -1.1080    2.6582 C.ar      1 <0>         0.0000
     10 C10         1.9606   -1.1709    4.1756 C.3       1 <0>         0.0000
     11 N1          1.3278    1.9680    5.8922 N.2       1 <0>         0.0000
     12 N2          2.0099    0.1347    4.8150 N.pl3     1 <0>         0.0000
     13 H1          1.9830   -1.0505   -1.2383 H         1 <0>         0.0000
     14 H2          2.9712   -2.9841   -0.0186 H         1 <0>         0.0000
     15 H3          1.0119    0.8496    0.0443 H         1 <0>         0.0000
     16 H4          2.9832   -3.0144    2.4594 H         1 <0>         0.0000
     17 H5          1.0257    0.8169    2.5222 H         1 <0>         0.0000
     18 H6          3.1699    3.0602    5.6570 H         1 <0>         0.0000
     19 H7          3.9997    0.7877    4.2935 H         1 <0>         0.0000
     20 H8          0.0332    0.2757    5.6493 H         1 <0>         0.0000
     21 H9          1.0381   -1.6562    4.5119 H         1 <0>         0.0000
     22 H10         2.7915   -1.7830    4.5413 H         1 <0>         0.0000
@<TRIPOS>BOND
     1    1    3 ar
     2    1    2 ar
     3    1   13 1
     4    2    4 ar
     5    2   14 1
     6    3    5 ar
     7    3   15 1
     8    4    9 ar
     9    4   16 1
    10    5    9 ar
    11    5   17 1
    12    6    7 2
    13    6   11 1
    14    6   18 1
    15    7   12 1
    16    7   19 1
    17    8   11 2
    18    8   12 1
    19    8   20 1
    20    9   10 1
    21   10   12 1
    22   10   21 1
    23   10   22 1
