@<TRIPOS>MOLECULE
*****
   19    20     0     0     0
SMALL
NO_CHARGES

@<TRIPOS>ATOM
      1 C1          1.2406    0.1126    1.5997 C.ar      1 <0>         0.0000
      2 C2          0.1093   -0.3960    0.9531 C.ar      1 <0>         0.0000
      3 C3          1.6295   -0.4050    2.8328 C.ar      1 <0>         0.0000
      4 C4         -0.5917   -1.4219    1.5898 C.ar      1 <0>         0.0000
      5 C5          3.3337   -1.9759    7.2584 C.2       1 <0>         0.0000
      6 C6          3.8499   -1.0029    6.4678 C.2       1 <0>         0.0000
      7 C7          0.8473   -1.4389    3.3821 C.ar      1 <0>         0.0000
      8 C8          2.0862   -1.8632    5.5384 C.2       1 <0>         0.0000
      9 N1         -0.2413   -1.9375    2.7730 N.ar      1 <0>         0.0000
     10 N2          2.2013   -2.5260    6.6586 N.2       1 <0>         0.0000
     11 N3          1.1060   -2.0602    4.6057 N.pl3     1 <0>         0.0000
     12 O1          3.0402   -0.9180    5.3336 O.3       1 <0>         0.0000
     13 H1          1.8227    0.9116    1.1475 H         1 <0>         0.0000
     14 H2         -0.2198   -0.0143   -0.0081 H         1 <0>         0.0000
     15 H3          2.5003   -0.0273    3.3498 H         1 <0>         0.0000
     16 H4         -1.4794   -1.8546    1.1311 H         1 <0>         0.0000
     17 H5          3.6909   -2.3249    8.2179 H         1 <0>         0.0000
     18 H6          4.6864   -0.3232    6.5086 H         1 <0>         0.0000
     19 H7          0.4400   -2.7852    4.8500 H         1 <0>         0.0000
@<TRIPOS>BOND
     1    1    2 ar
     2    1    3 ar
     3    1   13 1
     4    2    4 ar
     5    2   14 1
     6    3    7 ar
     7    3   15 1
     8    4    9 ar
     9    4   16 1
    10    5    6 2
    11    5   10 1
    12    5   17 1
    13    6   12 1
    14    6   18 1
    15    7    9 ar
    16    7   11 1
    17    8   10 2
    18    8   11 1
    19    8   12 1
    20   11   19 1
