@<TRIPOS>MOLECULE
*****
   22    23     0     0     0
SMALL
NO_CHARGES

@<TRIPOS>ATOM
      1 C1          1.6360   -1.3288   -0.2470 C.ar      1 <0>         0.0000
      2 C2          2.3983   -2.3058    0.4036 C.ar      1 <0>         0.0000
      3 C3          1.1029   -0.2578    0.4792 C.ar      1 <0>         0.0000
      4 C4          2.6236   -2.2134    1.7771 C.ar      1 <0>         0.0000
      5 C5          1.3472   -0.1504    1.8483 C.ar      1 <0>         0.0000
      6 C6          3.8614    2.9540    3.2409 C.2       1 <0>         0.0000
      7 C7          3.4262    3.4078    4.4428 C.2       1 <0>         0.0000
      8 C8          2.1122   -1.1270    2.5017 C.ar      1 <0>         0.0000
      9 C9          2.9278    1.3093    4.2107 C.2       1 <0>         0.0000
     10 C10         2.3297   -1.1156    3.9742 C.2       1 <0>         0.0000
     11 N1          3.5458    1.5994    3.1059 N.2       1 <0>         0.0000
     12 N2          2.3742    0.1192    4.6486 N.am      1 <0>         0.0000
     13 O1          2.4007   -2.1408    4.6411 O.2       1 <0>         0.0000
     14 O2          2.8059    2.3460    5.0885 O.3       1 <0>         0.0000
     15 H1          1.4532   -1.4044   -1.3159 H         1 <0>         0.0000
     16 H2          2.8086   -3.1407   -0.1581 H         1 <0>         0.0000
     17 H3          0.4997    0.4941   -0.0225 H         1 <0>         0.0000
     18 H4          3.1924   -2.9741    2.3027 H         1 <0>         0.0000
     19 H5          0.9311    0.6821    2.4059 H         1 <0>         0.0000
     20 H6          4.3892    3.4896    2.4635 H         1 <0>         0.0000
     21 H7          3.4604    4.3433    4.9792 H         1 <0>         0.0000
     22 H8          2.3754   -0.0006    5.6579 H         1 <0>         0.0000
@<TRIPOS>BOND
     1    1    3 ar
     2    1    2 ar
     3    1   15 1
     4    2    4 ar
     5    2   16 1
     6    3    5 ar
     7    3   17 1
     8    4    8 ar
     9    4   18 1
    10    5    8 ar
    11    5   19 1
    12    6    7 2
    13    6   11 1
    14    6   20 1
    15    7   14 1
    16    7   21 1
    17    8   10 1
    18    9   11 2
    19    9   12 1
    20    9   14 1
    21   10   12 am
    22   10   13 2
    23   12   22 1
