@<TRIPOS>MOLECULE
*****
   26    27     0     0     0
SMALL
NO_CHARGES

@<TRIPOS>ATOM
      1 C1         -0.9473   -3.3198    6.0728 C.ar      1 <0>         0.0000
      2 C2          2.1796   -1.2430   -0.2167 C.ar      1 <0>         0.0000
      3 C3         -0.3740   -2.1753    6.6423 C.ar      1 <0>         0.0000
      4 C4         -0.8126   -3.5400    4.6997 C.ar      1 <0>         0.0000
      5 C5          1.0842   -0.4317    0.0926 C.ar      1 <0>         0.0000
      6 C6          2.9253   -1.8314    0.8105 C.ar      1 <0>         0.0000
      7 C7          0.3280   -1.2656    5.8515 C.ar      1 <0>         0.0000
      8 C8         -0.1146   -2.6348    3.8917 C.ar      1 <0>         0.0000
      9 C9          0.7376   -0.2199    1.4305 C.ar      1 <0>         0.0000
     10 C10         2.5993   -1.6326    2.1591 C.ar      1 <0>         0.0000
     11 C11         0.4561   -1.4991    4.4766 C.ar      1 <0>         0.0000
     12 C12         1.4895   -0.8194    2.4394 C.ar      1 <0>         0.0000
     13 C13         3.3986   -2.2584    3.2744 C.3       1 <0>         0.0000
     14 O1          1.1567   -0.5446    3.7640 O.3       1 <0>         0.0000
     15 H1         -1.4911   -4.0278    6.6918 H         1 <0>         0.0000
     16 H2          2.4580   -1.4132   -1.2534 H         1 <0>         0.0000
     17 H3         -0.4711   -1.9907    7.7092 H         1 <0>         0.0000
     18 H4         -1.2545   -4.4226    4.2442 H         1 <0>         0.0000
     19 H5          0.5026    0.0337   -0.6986 H         1 <0>         0.0000
     20 H6          3.7828   -2.4535    0.5638 H         1 <0>         0.0000
     21 H7          0.7820   -0.3753    6.2769 H         1 <0>         0.0000
     22 H8         -0.0177   -2.8103    2.8255 H         1 <0>         0.0000
     23 H9         -0.1074    0.4044    1.7063 H         1 <0>         0.0000
     24 H10         3.6520   -1.5176    4.0388 H         1 <0>         0.0000
     25 H11         2.8298   -3.0496    3.7754 H         1 <0>         0.0000
     26 H12         4.3244   -2.6957    2.8919 H         1 <0>         0.0000
@<TRIPOS>BOND
     1    1    4 ar
     2    1    3 ar
     3    1   15 1
     4    2    5 ar
     5    2    6 ar
     6    2   16 1
     7    3    7 ar
     8    3   17 1
     9    4    8 ar
    10    4   18 1
    11    5    9 ar
    12    5   19 1
    13    6   10 ar
    14    6   20 1
    15    7   11 ar
    16    7   21 1
    17    8   11 ar
    18    8   22 1
    19    9   12 ar
    20    9   23 1
    21   10   12 ar
    22   10   13 1
    23   11   14 1
    24   12   14 1
    25   13   24 1
    26   13   25 1
    27   13   26 1
