@<TRIPOS>MOLECULE
*****
   30    32     0     0     0
SMALL
NO_CHARGES

@<TRIPOS>ATOM
      1 C1         -0.2861   -1.6811    1.3562 C.ar      1 <0>         0.0000
      2 C2          2.6342   -4.8516    4.7548 C.ar      1 <0>         0.0000
      3 C3          0.2406   -1.2319    0.1371 C.ar      1 <0>         0.0000
      4 C4          1.8844   -5.6801    5.5959 C.ar      1 <0>         0.0000
      5 C5         -0.0780   -3.0003    1.7435 C.ar      1 <0>         0.0000
      6 C6          2.2724   -4.7234    3.4145 C.ar      1 <0>         0.0000
      7 C7          0.9408   -2.1083   -0.6858 C.ar      1 <0>         0.0000
      8 C8          0.7784   -6.3685    5.0939 C.ar      1 <0>         0.0000
      9 C9          0.6265   -3.9074    0.9284 C.ar      1 <0>         0.0000
     10 C10         1.1807   -5.4264    2.8799 C.ar      1 <0>         0.0000
     11 C11         1.1317   -3.4502   -0.3104 C.ar      1 <0>         0.0000
     12 C12         0.4334   -6.2402    3.7451 C.ar      1 <0>         0.0000
     13 C13         0.8775   -5.2856    1.4198 C.2       1 <0>         0.0000
     14 C14         1.6309   -5.5937   -1.5123 C.2       1 <0>         0.0000
     15 C15         0.5328   -6.2654   -0.6981 C.3       1 <0>         0.0000
     16 N1          0.8831   -6.3550    0.7122 N.2       1 <0>         0.0000
     17 N2          1.8927   -4.2751   -1.1587 N.am      1 <0>         0.0000
     18 O1          2.2504   -6.1374   -2.4136 O.2       1 <0>         0.0000
     19 Cl1        -1.0040   -7.0797    3.1877 Cl        1 <0>         0.0000
     20 H1         -0.8424   -1.0040    1.9978 H         1 <0>         0.0000
     21 H2          3.4924   -4.3089    5.1409 H         1 <0>         0.0000
     22 H3          0.1001   -0.2003   -0.1740 H         1 <0>         0.0000
     23 H4          2.1509   -5.7872    6.6438 H         1 <0>         0.0000
     24 H5         -0.4576   -3.3496    2.6990 H         1 <0>         0.0000
     25 H6          2.8457   -4.0766    2.7556 H         1 <0>         0.0000
     26 H7          1.3418   -1.7627   -1.6359 H         1 <0>         0.0000
     27 H8          0.1773   -6.9994    5.7409 H         1 <0>         0.0000
     28 H9         -0.3989   -5.6980   -0.8454 H         1 <0>         0.0000
     29 H10         0.4041   -7.2698   -1.1000 H         1 <0>         0.0000
     30 H11         2.5124   -3.8097   -1.8147 H         1 <0>         0.0000
@<TRIPOS>BOND
     1    1    3 ar
     2    1    5 ar
     3    1   20 1
     4    2    4 ar
     5    2    6 ar
     6    2   21 1
     7    3    7 ar
     8    3   22 1
     9    4    8 ar
    10    4   23 1
    11    5    9 ar
    12    5   24 1
    13    6   10 ar
    14    6   25 1
    15    7   11 ar
    16    7   26 1
    17    8   12 ar
    18    8   27 1
    19    9   11 ar
    20    9   13 1
    21   10   12 ar
    22   10   13 1
    23   11   17 1
    24   12   19 1
    25   13   16 2
    26   14   15 1
    27   14   17 am
    28   14   18 2
    29   15   16 1
    30   15   28 1
    31   15   29 1
    32   17   30 1
