@<TRIPOS>MOLECULE
*****
   18    19     0     0     0
SMALL
NO_CHARGES

@<TRIPOS>ATOM
      1 C1          0.2021   -0.4270    0.9581 C.ar      1 <0>         0.0000
      2 C2          1.3842   -0.0339    1.5886 C.ar      1 <0>         0.0000
      3 C3          0.7699   -3.2841    6.5171 C.2       1 <0>         0.0000
      4 C4         -0.6169   -1.3386    1.6244 C.ar      1 <0>         0.0000
      5 C5          1.9751   -2.5277    6.5486 C.2       1 <0>         0.0000
      6 C6          0.1843   -2.9628    5.3132 C.2       1 <0>         0.0000
      7 C7          1.6924   -0.5593    2.8365 C.ar      1 <0>         0.0000
      8 C8          0.8070   -1.4758    3.4380 C.ar      1 <0>         0.0000
      9 N1         -0.3207   -1.8442    2.8251 N.ar      1 <0>         0.0000
     10 N2          2.1311   -1.7932    5.4542 N.2       1 <0>         0.0000
     11 N3          1.0258   -2.0656    4.6982 N.pl3     1 <0>         0.0000
     12 F1          2.8357   -0.1660    3.4235 F         1 <0>         0.0000
     13 H1         -0.0725   -0.0380   -0.0172 H         1 <0>         0.0000
     14 H2          2.0752    0.6714    1.1364 H         1 <0>         0.0000
     15 H3          0.3877   -3.9638    7.2663 H         1 <0>         0.0000
     16 H4         -1.5499   -1.6803    1.1810 H         1 <0>         0.0000
     17 H5          2.7313   -2.4906    7.3234 H         1 <0>         0.0000
     18 H6         -0.7319   -3.2760    4.8374 H         1 <0>         0.0000
@<TRIPOS>BOND
     1    1    2 ar
     2    1    4 ar
     3    1   13 1
     4    2    7 ar
     5    2   14 1
     6    3    5 1
     7    3    6 2
     8    3   15 1
     9    4    9 ar
    10    4   16 1
    11    5   10 2
    12    5   17 1
    13    6   11 1
    14    6   18 1
    15    7    8 ar
    16    7   12 1
    17    8    9 ar
    18    8   11 1
    19   10   11 1
