@<TRIPOS>MOLECULE
*****
   18    19     0     0     0
SMALL
NO_CHARGES

@<TRIPOS>ATOM
      1 C1          0.2010   -0.4229    0.9385 C.ar      1 <0>         0.0000
      2 C2          1.3802   -0.0337    1.5782 C.ar      1 <0>         0.0000
      3 C3          1.9838   -2.9307    6.4668 C.2       1 <0>         0.0000
      4 C4         -0.6329   -1.3304    1.5964 C.ar      1 <0>         0.0000
      5 C5          0.5644   -2.9420    6.5633 C.2       1 <0>         0.0000
      6 C6          2.2440   -2.3471    5.2468 C.2       1 <0>         0.0000
      7 C7          1.6510   -0.5706    2.8264 C.ar      1 <0>         0.0000
      8 C8          0.7652   -1.4894    3.4134 C.ar      1 <0>         0.0000
      9 N1         -0.3547   -1.8553    2.7938 N.ar      1 <0>         0.0000
     10 N2         -0.0149   -2.4188    5.4898 N.2       1 <0>         0.0000
     11 N3          1.0243   -2.0505    4.6839 N.pl3     1 <0>         0.0000
     12 F1          2.7771   -0.1818    3.4766 F         1 <0>         0.0000
     13 H1         -0.0627   -0.0315   -0.0390 H         1 <0>         0.0000
     14 H2          2.0747    0.6779    1.1416 H         1 <0>         0.0000
     15 H3          2.7082   -3.2952    7.1822 H         1 <0>         0.0000
     16 H4         -1.5643   -1.6589    1.1398 H         1 <0>         0.0000
     17 H5         -0.0544   -3.3039    7.3755 H         1 <0>         0.0000
     18 H6          3.1723   -2.1313    4.7407 H         1 <0>         0.0000
@<TRIPOS>BOND
     1    1    2 ar
     2    1    4 ar
     3    1   13 1
     4    2    7 ar
     5    2   14 1
     6    3    5 1
     7    3    6 2
     8    3   15 1
     9    4    9 ar
    10    4   16 1
    11    5   10 2
    12    5   17 1
    13    6   11 1
    14    6   18 1
    15    7    8 ar
    16    7   12 1
    17    8    9 ar
    18    8   11 1
    19   10   11 1
