@<TRIPOS>MOLECULE
*****
   18    18     0     0     0
SMALL
NO_CHARGES

@<TRIPOS>ATOM
      1 C1          1.9016   -1.0195   -0.1249 C.ar      1 <0>         0.0000
      2 C2          2.9301   -1.6265    0.6032 C.ar      1 <0>         0.0000
      3 C3          0.8124   -0.4591    0.5514 C.ar      1 <0>         0.0000
      4 C4          2.8670   -1.6704    1.9991 C.ar      1 <0>         0.0000
      5 C5          0.7540   -0.4968    1.9474 C.ar      1 <0>         0.0000
      6 C6          1.7829   -1.1025    2.6801 C.ar      1 <0>         0.0000
      7 C7          2.4172    0.1434    4.7896 C.3       1 <0>         0.0000
      8 C8          1.7646   -1.0966    4.1913 C.3       1 <0>         0.0000
      9 F1          0.4290   -1.1453    4.6503 F         1 <0>         0.0000
     10 H1          1.9451   -0.9898   -1.2105 H         1 <0>         0.0000
     11 H2          3.7754   -2.0723    0.0852 H         1 <0>         0.0000
     12 H3          0.0058    0.0061   -0.0097 H         1 <0>         0.0000
     13 H4          3.6651   -2.1539    2.5599 H         1 <0>         0.0000
     14 H5         -0.0961   -0.0717    2.4728 H         1 <0>         0.0000
     15 H6          1.9104    1.0448    4.4326 H         1 <0>         0.0000
     16 H7          2.3643    0.1119    5.8820 H         1 <0>         0.0000
     17 H8          3.4674    0.1971    4.4871 H         1 <0>         0.0000
     18 H9          2.2473   -2.0030    4.5732 H         1 <0>         0.0000
@<TRIPOS>BOND
     1    1    3 ar
     2    1    2 ar
     3    1   10 1
     4    2    4 ar
     5    2   11 1
     6    3    5 ar
     7    3   12 1
     8    4    6 ar
     9    4   13 1
    10    5    6 ar
    11    5   14 1
    12    6    8 1
    13    7    8 1
    14    7   15 1
    15    7   16 1
    16    7   17 1
    17    8    9 1
    18    8   18 1
