@<TRIPOS>MOLECULE
*****
   32    33     0     0     0
SMALL
NO_CHARGES

@<TRIPOS>ATOM
      1 C1         -6.5539   -2.4094    4.2587 C.ar      1 <0>         0.0000
      2 C2         -5.1578   -2.5052    4.2642 C.ar      1 <0>         0.0000
      3 C3         -7.2553   -2.5424    3.0551 C.ar      1 <0>         0.0000
      4 C4         -4.4661   -2.7107    3.0679 C.ar      1 <0>         0.0000
      5 C5         -6.5648   -2.7712    1.8624 C.ar      1 <0>         0.0000
      6 C6         -5.1657   -2.8381    1.8590 C.ar      1 <0>         0.0000
      7 C7         -4.4615   -3.1556    0.5672 C.2       1 <0>         0.0000
      8 C8         -0.9027   -1.0053   -0.4213 C.3       1 <0>         0.0000
      9 C9         -1.1306   -2.4731   -0.7995 C.3       1 <0>         0.0000
     10 C10        -1.7309   -0.6466    0.8189 C.3       1 <0>         0.0000
     11 C11        -2.6195   -2.7802   -0.9746 C.3       1 <0>         0.0000
     12 C12        -3.2225   -0.9791    0.6508 C.3       1 <0>         0.0000
     13 C13        -3.9544   -0.0240   -0.3070 C.3       1 <0>         0.0000
     14 N1         -3.3710   -2.3878    0.2254 N.am      1 <0>         0.0000
     15 O1         -4.8426   -4.1116   -0.1145 O.2       1 <0>         0.0000
     16 H1         -7.0922   -2.2418    5.1881 H         1 <0>         0.0000
     17 H2         -4.6092   -2.4224    5.1990 H         1 <0>         0.0000
     18 H3         -8.3404   -2.4792    3.0483 H         1 <0>         0.0000
     19 H4         -3.3819   -2.7918    3.0721 H         1 <0>         0.0000
     20 H5         -7.1016   -2.9101    0.9283 H         1 <0>         0.0000
     21 H6          0.1595   -0.8186   -0.2284 H         1 <0>         0.0000
     22 H7         -1.1847   -0.3596   -1.2625 H         1 <0>         0.0000
     23 H8         -0.6032   -2.7224   -1.7273 H         1 <0>         0.0000
     24 H9         -0.7264   -3.1216   -0.0121 H         1 <0>         0.0000
     25 H10        -1.3482   -1.2110    1.6786 H         1 <0>         0.0000
     26 H11        -1.6280    0.4172    1.0606 H         1 <0>         0.0000
     27 H12        -3.0153   -2.2593   -1.8576 H         1 <0>         0.0000
     28 H13        -2.7922   -3.8439   -1.1336 H         1 <0>         0.0000
     29 H14        -3.6987   -0.8806    1.6248 H         1 <0>         0.0000
     30 H15        -3.5447   -0.0487   -1.3202 H         1 <0>         0.0000
     31 H16        -3.8787    1.0050    0.0601 H         1 <0>         0.0000
     32 H17        -5.0151   -0.2876   -0.3647 H         1 <0>         0.0000
@<TRIPOS>BOND
     1    1    3 ar
     2    1    2 ar
     3    1   16 1
     4    2    4 ar
     5    2   17 1
     6    3    5 ar
     7    3   18 1
     8    4    6 ar
     9    4   19 1
    10    5    6 ar
    11    5   20 1
    12    6    7 1
    13    7   14 am
    14    7   15 2
    15    8    9 1
    16    8   10 1
    17    8   21 1
    18    8   22 1
    19    9   11 1
    20    9   23 1
    21    9   24 1
    22   10   12 1
    23   10   25 1
    24   10   26 1
    25   11   14 1
    26   11   27 1
    27   11   28 1
    28   12   13 1
    29   12   14 1
    30   12   29 1
    31   13   30 1
    32   13   31 1
    33   13   32 1
