@<TRIPOS>MOLECULE
*****
   20    21     0     0     0
SMALL
NO_CHARGES

@<TRIPOS>ATOM
      1 C1          1.8167   -1.1621   -0.1841 C.ar      1 <0>         0.0000
      2 C2          2.9896   -1.4445    0.5205 C.ar      1 <0>         0.0000
      3 C3          0.6779   -0.7687    0.5284 C.ar      1 <0>         0.0000
      4 C4          3.0450   -1.3417    1.9136 C.ar      1 <0>         0.0000
      5 C5          0.7158   -0.6614    1.9168 C.ar      1 <0>         0.0000
      6 C6          3.8234   -1.1812    6.8457 C.2       1 <0>         0.0000
      7 C7          4.7127   -1.5132    5.8777 C.2       1 <0>         0.0000
      8 C8          1.8990   -0.9465    2.6255 C.ar      1 <0>         0.0000
      9 C9          2.7940   -1.0186    4.9896 C.2       1 <0>         0.0000
     10 N1          2.5921   -0.8643    6.2732 N.2       1 <0>         0.0000
     11 N2          1.8501   -0.8117    4.0230 N.pl3     1 <0>         0.0000
     12 O1          4.0491   -1.4103    4.6528 O.3       1 <0>         0.0000
     13 H1          1.7885   -1.2462   -1.2666 H         1 <0>         0.0000
     14 H2          3.8834   -1.7513   -0.0167 H         1 <0>         0.0000
     15 H3         -0.2464   -0.5437    0.0028 H         1 <0>         0.0000
     16 H4          3.9653   -1.5657    2.4345 H         1 <0>         0.0000
     17 H5         -0.1757   -0.3547    2.4607 H         1 <0>         0.0000
     18 H6          3.9751   -1.1460    7.9162 H         1 <0>         0.0000
     19 H7          5.7461   -1.8192    5.8356 H         1 <0>         0.0000
     20 H8          0.9649   -0.5247    4.4214 H         1 <0>         0.0000
@<TRIPOS>BOND
     1    1    3 ar
     2    1    2 ar
     3    1   13 1
     4    2    4 ar
     5    2   14 1
     6    3    5 ar
     7    3   15 1
     8    4    8 ar
     9    4   16 1
    10    5    8 ar
    11    5   17 1
    12    6    7 2
    13    6   10 1
    14    6   18 1
    15    7   12 1
    16    7   19 1
    17    8   11 1
    18    9   10 2
    19    9   11 1
    20    9   12 1
    21   11   20 1
