@<TRIPOS>MOLECULE
*****
   15    16     0     0     0
SMALL
NO_CHARGES

@<TRIPOS>ATOM
      1 C1          1.4001   -0.0573    1.6462 C.ar      1 <0>         0.0000
      2 C2          0.2325   -0.4012    0.9479 C.ar      1 <0>         0.0000
      3 C3          1.6341   -0.6284    2.8898 C.ar      1 <0>         0.0000
      4 C4         -0.6349   -1.3112    1.5577 C.ar      1 <0>         0.0000
      5 C5          0.6947   -1.5433    3.4283 C.ar      1 <0>         0.0000
      6 C6          0.9538   -2.1371    4.7388 C.2       1 <0>         0.0000
      7 N1          2.0649   -1.8407    5.4562 N.2       1 <0>         0.0000
      8 N2         -0.4302   -1.8738    2.7540 N.ar      1 <0>         0.0000
      9 N3          0.1637   -3.0200    5.3875 N.2       1 <0>         0.0000
     10 N4          1.9499   -2.5632    6.5748 N.2       1 <0>         0.0000
     11 N5          0.8101   -3.2698    6.5331 N.2       1 <0>         0.0000
     12 H1          2.1138    0.6469    1.2212 H         1 <0>         0.0000
     13 H2          0.0019    0.0174   -0.0290 H         1 <0>         0.0000
     14 H3          2.5189   -0.4001    3.4745 H         1 <0>         0.0000
     15 H4         -1.5552   -1.6066    1.0492 H         1 <0>         0.0000
@<TRIPOS>BOND
     1    1    2 ar
     2    1    3 ar
     3    1   12 1
     4    2    4 ar
     5    2   13 1
     6    3    5 ar
     7    3   14 1
     8    4    8 ar
     9    4   15 1
    10    5    6 1
    11    5    8 ar
    12    6    7 1
    13    6    9 2
    14    7   10 1
    15    9   11 1
    16   10   11 2
