@<TRIPOS>MOLECULE
*****
   17    17     0     0     0
SMALL
NO_CHARGES

@<TRIPOS>ATOM
      1 C1          1.8747   -1.0418   -0.1162 C.ar      1 <0>         0.0000
      2 C2          2.8631   -1.7046    0.6221 C.ar      1 <0>         0.0000
      3 C3          0.8325   -0.3785    0.5406 C.ar      1 <0>         0.0000
      4 C4          2.8082   -1.7080    2.0190 C.ar      1 <0>         0.0000
      5 C5          0.7665   -0.3805    1.9382 C.ar      1 <0>         0.0000
      6 C6          1.7495   -1.0574    2.6581 C.ar      1 <0>         0.0000
      7 C7          0.9815   -2.7205    4.6662 C.3       1 <0>         0.0000
      8 O1          0.5089   -0.0842    4.8387 O.2       1 <0>         0.0000
      9 S1          1.6509   -1.0174    4.4797 S.o       1 <0>         0.0000
     10 H1          1.9239   -1.0349   -1.2018 H         1 <0>         0.0000
     11 H2          3.6792   -2.2097    0.1122 H         1 <0>         0.0000
     12 H3          0.0729    0.1447   -0.0343 H         1 <0>         0.0000
     13 H4          3.5841   -2.2068    2.5966 H         1 <0>         0.0000
     14 H5         -0.0203    0.1370    2.4812 H         1 <0>         0.0000
     15 H6          0.8141   -2.8777    5.7343 H         1 <0>         0.0000
     16 H7          1.6982   -3.4500    4.2808 H         1 <0>         0.0000
     17 H8          0.0370   -2.7750    4.1204 H         1 <0>         0.0000
@<TRIPOS>BOND
     1    1    3 ar
     2    1    2 ar
     3    1   10 1
     4    2    4 ar
     5    2   11 1
     6    3    5 ar
     7    3   12 1
     8    4    6 ar
     9    4   13 1
    10    5    6 ar
    11    5   14 1
    12    6    9 1
    13    7    9 1
    14    7   15 1
    15    7   16 1
    16    7   17 1
    17    8    9 2
