@<TRIPOS>MOLECULE
*****
   18    18     0     0     0
SMALL
NO_CHARGES

@<TRIPOS>ATOM
      1 C1          1.5279   -1.4349    0.3998 C.2       1 <0>         0.0000
      2 C2          0.6775   -0.5728   -0.3519 C.2       1 <0>         0.0000
      3 C3          2.7034   -1.8095   -0.1630 C.2       1 <0>         0.0000
      4 C4          1.0296   -0.1343   -1.6008 C.2       1 <0>         0.0000
      5 C5          2.2977   -0.5508   -2.1820 C.2       1 <0>         0.0000
      6 C6          0.0612    0.7765   -2.3179 C.2       1 <0>         0.0000
      7 C7         -0.4469    2.0810   -4.3188 C.3       1 <0>         0.0000
      8 N1          0.4204    1.1979   -3.5534 N.am      1 <0>         0.0000
      9 O1          2.7612   -0.2548   -3.2711 O.2       1 <0>         0.0000
     10 O2         -1.0013    1.1023   -1.7761 O.2       1 <0>         0.0000
     11 O3          3.0861   -1.4003   -1.3873 O.3       1 <0>         0.0000
     12 H1          1.2608   -1.7888    1.3886 H         1 <0>         0.0000
     13 H2         -0.2774   -0.2368    0.0435 H         1 <0>         0.0000
     14 H3          3.4417   -2.4593    0.2959 H         1 <0>         0.0000
     15 H4         -1.4264    1.6200   -4.4777 H         1 <0>         0.0000
     16 H5          0.0211    2.2774   -5.2851 H         1 <0>         0.0000
     17 H6         -0.6018    3.0283   -3.7925 H         1 <0>         0.0000
     18 H7          1.3145    0.8888   -3.9235 H         1 <0>         0.0000
@<TRIPOS>BOND
     1    1    2 1
     2    1    3 2
     3    1   12 1
     4    2    4 2
     5    2   13 1
     6    3   11 1
     7    3   14 1
     8    4    5 1
     9    4    6 1
    10    5    9 2
    11    5   11 1
    12    6    8 am
    13    6   10 2
    14    7    8 1
    15    7   15 1
    16    7   16 1
    17    7   17 1
    18    8   18 1
