@<TRIPOS>MOLECULE
*****
   29    30     0     0     0
SMALL
NO_CHARGES

@<TRIPOS>ATOM
      1 C1          0.1898    5.3312    3.6835 C.ar      1 <0>         0.0000
      2 C2         -1.0768    5.8215    3.3515 C.ar      1 <0>         0.0000
      3 C3          0.8064    4.3749    2.8715 C.ar      1 <0>         0.0000
      4 C4         -1.7334    5.3581    2.2058 C.ar      1 <0>         0.0000
      5 C5          0.1749    3.9000    1.7151 C.ar      1 <0>         0.0000
      6 C6         -1.0895    4.4150    1.4206 C.ar      1 <0>         0.0000
      7 C7         -0.1429    0.6872    1.2965 C.cat     1 <0>         0.0000
      8 C8         -0.6920   -1.4068    2.1089 C.3       1 <0>         0.0000
      9 C9          0.3385   -0.7130    3.0166 C.3       1 <0>         0.0000
     10 C10         1.3064    3.5083   -0.5351 C.3       1 <0>         0.0000
     11 C11         0.8576    2.9043    0.7992 C.3       1 <0>         0.0000
     12 N1         -1.0684   -0.2804    1.2359 N.pl3     1 <0>         0.0000
     13 N2         -0.0451    1.7460    0.5207 N.pl3     1 <0>         0.0000
     14 O1          0.7428    0.4834    2.2563 O.3       1 <0>         0.0000
     15 F1         -1.7289    3.9493    0.2973 F         1 <0>         0.0000
     16 H1          0.6972    5.6922    4.5728 H         1 <0>         0.0000
     17 H2         -1.5584    6.5645    3.9802 H         1 <0>         0.0000
     18 H3          1.7922    3.9971    3.1322 H         1 <0>         0.0000
     19 H4         -2.7164    5.7194    1.9205 H         1 <0>         0.0000
     20 H5         -0.2587   -2.2228    1.5236 H         1 <0>         0.0000
     21 H6         -1.5552   -1.7722    2.6665 H         1 <0>         0.0000
     22 H7         -0.0884   -0.3580    3.9554 H         1 <0>         0.0000
     23 H8          1.2395   -1.2947    3.1995 H         1 <0>         0.0000
     24 H9          0.4579    3.9048   -1.0989 H         1 <0>         0.0000
     25 H10         1.8254    2.7622   -1.1435 H         1 <0>         0.0000
     26 H11         1.9920    4.3352   -0.3372 H         1 <0>         0.0000
     27 H12         1.7254    2.4921    1.3146 H         1 <0>         0.0000
     28 H13        -1.7362   -0.3616    0.4780 H         1 <0>         0.0000
     29 H14        -0.7937    1.9165   -0.1447 H         1 <0>         0.0000
@<TRIPOS>BOND
     1    1    2 ar
     2    1    3 ar
     3    1   16 1
     4    2    4 ar
     5    2   17 1
     6    3    5 ar
     7    3   18 1
     8    4    6 ar
     9    4   19 1
    10    5    6 ar
    11    5   11 1
    12    6   15 1
    13    7   12 1
    14    7   13 2
    15    7   14 1
    16    8    9 1
    17    8   12 1
    18    8   20 1
    19    8   21 1
    20    9   14 1
    21    9   22 1
    22    9   23 1
    23   10   11 1
    24   10   24 1
    25   10   25 1
    26   10   26 1
    27   11   13 1
    28   11   27 1
    29   12   28 1
    30   13   29 1
