@<TRIPOS>MOLECULE
*****
   53    57     0     0     0
SMALL
NO_CHARGES

@<TRIPOS>ATOM
      1 C1          0.1984   -4.0457    1.1422 C.ar      1 <0>         0.0000
      2 C2         -0.7696   -4.9962    0.7928 C.ar      1 <0>         0.0000
      3 C3         -9.0232   -7.2009   -4.8229 C.ar      1 <0>         0.0000
      4 C4         -9.0178   -7.3022   -2.4060 C.ar      1 <0>         0.0000
      5 C5          0.4044   -2.9357    0.3241 C.ar      1 <0>         0.0000
      6 C6         -1.5161   -4.8146   -0.3700 C.ar      1 <0>         0.0000
      7 C7         -9.5350   -8.4974   -4.8799 C.ar      1 <0>         0.0000
      8 C8         -9.5283   -8.5979   -2.4516 C.ar      1 <0>         0.0000
      9 C9         -8.7642   -6.5850   -3.5880 C.ar      1 <0>         0.0000
     10 C10        -0.3409   -2.7433   -0.8511 C.ar      1 <0>         0.0000
     11 C11        -1.3119   -3.6990   -1.1979 C.ar      1 <0>         0.0000
     12 C12        -9.7888   -9.1856   -3.6922 C.ar      1 <0>         0.0000
     13 C13        -8.1955   -5.2357   -3.4888 C.2       1 <0>         0.0000
     14 C14        -7.6763   -3.0784   -3.9237 C.2       1 <0>         0.0000
     15 C15        -4.6435   -3.4237   -2.7487 C.2       1 <0>         0.0000
     16 C16        -0.0594   -1.5387   -1.7302 C.3       1 <0>         0.0000
     17 C17        -1.1928   -1.2347   -2.7145 C.3       1 <0>         0.0000
     18 C18        -1.6238   -2.5157   -3.4300 C.3       1 <0>         0.0000
     19 C19       -10.3531   -3.0225   -5.5249 C.3       1 <0>         0.0000
     20 C20       -10.7727   -4.4574   -5.3173 C.3       1 <0>         0.0000
     21 C21        -2.1841   -3.5376   -2.4317 C.3       1 <0>         0.0000
     22 C22        -9.3105   -4.1118   -5.4958 C.3       1 <0>         0.0000
     23 C23        -5.9671   -2.9388   -2.1256 C.3       1 <0>         0.0000
     24 N1         -7.3802   -4.8853   -2.5279 N.2       1 <0>         0.0000
     25 N2         -8.4370   -4.1772   -4.3594 N.am      1 <0>         0.0000
     26 N3         -7.0988   -3.5537   -2.7584 N.am      1 <0>         0.0000
     27 N4         -3.5414   -3.1661   -1.9923 N.am      1 <0>         0.0000
     28 O1         -7.5861   -1.9644   -4.4231 O.2       1 <0>         0.0000
     29 O2         -4.6026   -3.9665   -3.8481 O.2       1 <0>         0.0000
     30 Cl1       -10.4430  -10.8125   -3.7583 Cl        1 <0>         0.0000
     31 H1          0.7874   -4.1715    2.0472 H         1 <0>         0.0000
     32 H2         -0.9364   -5.8679    1.4201 H         1 <0>         0.0000
     33 H3         -8.8077   -6.6821   -5.7498 H         1 <0>         0.0000
     34 H4         -8.8121   -6.8320   -1.4498 H         1 <0>         0.0000
     35 H5          1.1566   -2.1982    0.5978 H         1 <0>         0.0000
     36 H6         -2.2718   -5.5458   -0.6505 H         1 <0>         0.0000
     37 H7         -9.7280   -8.9724   -5.8365 H         1 <0>         0.0000
     38 H8         -9.7286   -9.1460   -1.5364 H         1 <0>         0.0000
     39 H9          0.1522   -0.6675   -1.1002 H         1 <0>         0.0000
     40 H10         0.8609   -1.7343   -2.2980 H         1 <0>         0.0000
     41 H11        -2.0517   -0.8087   -2.1803 H         1 <0>         0.0000
     42 H12        -0.8672   -0.4801   -3.4380 H         1 <0>         0.0000
     43 H13        -2.3814   -2.3206   -4.1932 H         1 <0>         0.0000
     44 H14        -0.7598   -2.9631   -3.9380 H         1 <0>         0.0000
     45 H15       -10.5423   -2.5507   -6.4834 H         1 <0>         0.0000
     46 H16       -10.3809   -2.3507   -4.6747 H         1 <0>         0.0000
     47 H17       -11.0906   -4.7564   -4.3238 H         1 <0>         0.0000
     48 H18       -11.2595   -4.9906   -6.1280 H         1 <0>         0.0000
     49 H19        -2.2860   -4.5024   -2.9373 H         1 <0>         0.0000
     50 H20        -8.8363   -4.3669   -6.4403 H         1 <0>         0.0000
     51 H21        -6.0004   -3.1448   -1.0518 H         1 <0>         0.0000
     52 H22        -6.0532   -1.8597   -2.2810 H         1 <0>         0.0000
     53 H23        -3.6516   -2.7771   -1.0647 H         1 <0>         0.0000
@<TRIPOS>BOND
     1    1    2 ar
     2    1    5 ar
     3    1   31 1
     4    2    6 ar
     5    2   32 1
     6    3    7 ar
     7    3    9 ar
     8    3   33 1
     9    4    8 ar
    10    4    9 ar
    11    4   34 1
    12    5   10 ar
    13    5   35 1
    14    6   11 ar
    15    6   36 1
    16    7   12 ar
    17    7   37 1
    18    8   12 ar
    19    8   38 1
    20    9   13 1
    21   10   11 ar
    22   10   16 1
    23   11   21 1
    24   12   30 1
    25   13   24 2
    26   13   25 1
    27   14   25 am
    28   14   26 am
    29   14   28 2
    30   15   23 1
    31   15   27 am
    32   15   29 2
    33   16   17 1
    34   16   39 1
    35   16   40 1
    36   17   18 1
    37   17   41 1
    38   17   42 1
    39   18   21 1
    40   18   43 1
    41   18   44 1
    42   19   20 1
    43   19   22 1
    44   19   45 1
    45   19   46 1
    46   20   22 1
    47   20   47 1
    48   20   48 1
    49   21   27 1
    50   21   49 1
    51   22   25 1
    52   22   50 1
    53   23   26 1
    54   23   51 1
    55   23   52 1
    56   24   26 1
    57   27   53 1
