@<TRIPOS>MOLECULE
*****
   41    42     0     0     0
SMALL
NO_CHARGES

@<TRIPOS>ATOM
      1 C1         -0.0323   -3.3243   -8.6291 C.ar      1 <0>         0.0000
      2 C2         -1.0646   -2.4321   -8.3781 C.ar      1 <0>         0.0000
      3 C3          0.8402   -3.7366   -7.6081 C.ar      1 <0>         0.0000
      4 C4         -0.4279   -2.3272   -6.0296 C.ar      1 <0>         0.0000
      5 C5         -1.2775   -1.9502   -7.0832 C.ar      1 <0>         0.0000
      6 C6          0.6287   -3.2213   -6.3192 C.ar      1 <0>         0.0000
      7 C7          1.9079   -4.7211   -8.0570 C.2       1 <0>         0.0000
      8 C8         -2.1022   -1.4644   -0.2482 C.3       1 <0>         0.0000
      9 C9         -1.6471   -0.1110   -0.8728 C.3       1 <0>         0.0000
     10 C10        -2.1344   -2.4816   -1.4157 C.3       1 <0>         0.0000
     11 C11        -1.5186   -0.3681   -2.3892 C.3       1 <0>         0.0000
     12 C12        -1.2095   -1.8711   -2.4846 C.3       1 <0>         0.0000
     13 C13        -5.3875   -1.2533   -6.4931 C.3       1 <0>         0.0000
     14 C14        -1.4277   -2.4684   -3.8582 C.3       1 <0>         0.0000
     15 C15        -4.0808   -2.0144   -6.7068 C.3       1 <0>         0.0000
     16 O1          1.7482   -5.3844   -9.0584 O.2       1 <0>         0.0000
     17 O2         -2.5901   -0.0639   -5.6387 O.2       1 <0>         0.0000
     18 O3         -2.8761   -0.1496   -8.1741 O.2       1 <0>         0.0000
     19 O4          3.0580   -4.8169   -7.3590 O.3       1 <0>         0.0000
     20 O5         -0.5204   -1.8128   -4.7798 O.3       1 <0>         0.0000
     21 S1         -2.7019   -0.8337   -6.8828 S.o2      1 <0>         0.0000
     22 Cl1         1.6506   -3.6496   -4.9492 Cl        1 <0>         0.0000
     23 H1          0.1291   -3.7233   -9.6241 H         1 <0>         0.0000
     24 H2         -1.7037   -2.0877   -9.1848 H         1 <0>         0.0000
     25 H3         -1.3942   -1.7898    0.5205 H         1 <0>         0.0000
     26 H4         -3.0793   -1.3879    0.2377 H         1 <0>         0.0000
     27 H5         -2.3470    0.7016   -0.6578 H         1 <0>         0.0000
     28 H6         -0.6794    0.1887   -0.4572 H         1 <0>         0.0000
     29 H7         -1.8311   -3.4886   -1.1112 H         1 <0>         0.0000
     30 H8         -3.1523   -2.5572   -1.8205 H         1 <0>         0.0000
     31 H9         -2.4652   -0.1648   -2.9027 H         1 <0>         0.0000
     32 H10        -0.7593    0.2505   -2.8727 H         1 <0>         0.0000
     33 H11        -0.1634   -2.0446   -2.1992 H         1 <0>         0.0000
     34 H12        -5.3442   -0.6491   -5.5838 H         1 <0>         0.0000
     35 H13        -5.6009   -0.5970   -7.3402 H         1 <0>         0.0000
     36 H14        -6.2087   -1.9694   -6.3955 H         1 <0>         0.0000
     37 H15        -2.4579   -2.2897   -4.1855 H         1 <0>         0.0000
     38 H16        -1.2273   -3.5474   -3.8672 H         1 <0>         0.0000
     39 H17        -4.0897   -2.6084   -7.6243 H         1 <0>         0.0000
     40 H18        -3.8372   -2.6646   -5.8631 H         1 <0>         0.0000
     41 H19         3.0322   -4.2716   -6.5508 H         1 <0>         0.0000
@<TRIPOS>BOND
     1    1    2 ar
     2    1    3 ar
     3    1   23 1
     4    2    5 ar
     5    2   24 1
     6    3    6 ar
     7    3    7 1
     8    4    5 ar
     9    4    6 ar
    10    4   20 1
    11    5   21 1
    12    6   22 1
    13    7   16 2
    14    7   19 1
    15    8    9 1
    16    8   10 1
    17    8   25 1
    18    8   26 1
    19    9   11 1
    20    9   27 1
    21    9   28 1
    22   10   12 1
    23   10   29 1
    24   10   30 1
    25   11   12 1
    26   11   31 1
    27   11   32 1
    28   12   14 1
    29   12   33 1
    30   13   15 1
    31   13   34 1
    32   13   35 1
    33   13   36 1
    34   14   20 1
    35   14   37 1
    36   14   38 1
    37   15   21 1
    38   15   39 1
    39   15   40 1
    40   17   21 2
    41   18   21 2
    42   19   41 1
