@<TRIPOS>MOLECULE
*****
   27    28     0     0     0
SMALL
NO_CHARGES

@<TRIPOS>ATOM
      1 C1          2.1053   -1.0545   -0.1936 C.ar      1 <0>         0.0000
      2 C2          1.0563   -0.3330    0.3854 C.ar      1 <0>         0.0000
      3 C3          2.9578   -1.5051    2.0103 C.ar      1 <0>         0.0000
      4 C4          3.0696   -1.6591    0.6239 C.ar      1 <0>         0.0000
      5 C5          0.9351   -0.1901    1.7741 C.ar      1 <0>         0.0000
      6 C6          1.9150   -0.7791    2.6088 C.ar      1 <0>         0.0000
      7 C7          0.9401   -1.9030    4.6708 C.2       1 <0>         0.0000
      8 C8          4.5954   -3.7855    0.5781 C.3       1 <0>         0.0000
      9 C9          3.9291   -3.6945   -0.7817 C.3       1 <0>         0.0000
     10 C10         4.2030   -2.4360    0.0199 C.3       1 <0>         0.0000
     11 C11        -0.2339    0.5615    2.3697 C.3       1 <0>         0.0000
     12 C12         1.8278   -0.7089    4.1071 C.3       1 <0>         0.0000
     13 O1          1.5771   -2.9562    4.9249 O.co2     1 <0>         0.0000
     14 O2         -0.2916   -1.6495    4.7781 O.co2     1 <0>         0.0000
     15 H1          2.1664   -1.1652   -1.2753 H         1 <0>         0.0000
     16 H2          0.3009    0.1183   -0.2574 H         1 <0>         0.0000
     17 H3          3.6873   -1.9837    2.6594 H         1 <0>         0.0000
     18 H4          4.0022   -4.1708    1.4019 H         1 <0>         0.0000
     19 H5          5.6512   -4.0423    0.6169 H         1 <0>         0.0000
     20 H6          4.5308   -3.8876   -1.6671 H         1 <0>         0.0000
     21 H7          2.8942   -4.0169   -0.8528 H         1 <0>         0.0000
     22 H8          5.0314   -1.8315   -0.3504 H         1 <0>         0.0000
     23 H9         -0.7076   -0.0384    3.1544 H         1 <0>         0.0000
     24 H10         0.0953    1.5017    2.8343 H         1 <0>         0.0000
     25 H11        -0.9711    0.8108    1.5981 H         1 <0>         0.0000
     26 H12         2.8296   -0.7982    4.5373 H         1 <0>         0.0000
     27 H13         1.3856    0.2386    4.4278 H         1 <0>         0.0000
@<TRIPOS>BOND
     1    1    2 ar
     2    1    4 ar
     3    1   15 1
     4    2    5 ar
     5    2   16 1
     6    3    4 ar
     7    3    6 ar
     8    3   17 1
     9    4   10 1
    10    5    6 ar
    11    5   11 1
    12    6   12 1
    13    7   12 1
    14    7   13 1
    15    7   14 2
    16    8    9 1
    17    8   10 1
    18    8   18 1
    19    8   19 1
    20    9   10 1
    21    9   20 1
    22    9   21 1
    23   10   22 1
    24   11   23 1
    25   11   24 1
    26   11   25 1
    27   12   26 1
    28   12   27 1
