@<TRIPOS>MOLECULE
*****
   40    41     0     0     0
SMALL
NO_CHARGES

@<TRIPOS>ATOM
      1 C1          0.4004   -3.4227   -8.3911 C.ar      1 <0>         0.0000
      2 C2         -0.7591   -2.6710   -8.2678 C.ar      1 <0>         0.0000
      3 C3          1.3430   -3.5017   -7.3490 C.ar      1 <0>         0.0000
      4 C4         -0.1208   -2.0613   -5.9938 C.ar      1 <0>         0.0000
      5 C5         -1.0175   -1.9697   -7.0774 C.ar      1 <0>         0.0000
      6 C6          1.0439   -2.8287   -6.1595 C.ar      1 <0>         0.0000
      7 C7          2.6402   -4.3013   -7.5778 C.2       1 <0>         0.0000
      8 C8         -0.0416    1.8462   -1.3472 C.3       1 <0>         0.0000
      9 C9         -0.0315    0.3814   -0.8112 C.3       1 <0>         0.0000
     10 C10         0.1430    1.7353   -2.8801 C.3       1 <0>         0.0000
     11 C11         0.1998   -0.5171   -2.0465 C.3       1 <0>         0.0000
     12 C12        -0.3341    0.3143   -3.2237 C.3       1 <0>         0.0000
     13 C13        -2.8997    1.6244   -8.1312 C.3       1 <0>         0.0000
     14 C14         0.1266   -0.1631   -4.5857 C.3       1 <0>         0.0000
     15 C15        -1.8088    0.5651   -8.0027 C.3       1 <0>         0.0000
     16 O1          3.6175   -3.5816   -7.8967 O.co2     1 <0>         0.0000
     17 O2          2.5158   -5.5420   -7.4547 O.co2     1 <0>         0.0000
     18 O3         -3.4711   -1.5002   -7.9758 O.2       1 <0>         0.0000
     19 O4         -2.8324   -0.4319   -5.7547 O.2       1 <0>         0.0000
     20 O5         -0.4008   -1.4827   -4.7846 O.3       1 <0>         0.0000
     21 S1         -2.4465   -0.8926   -7.1005 S.o2      1 <0>         0.0000
     22 Cl1         2.1470   -2.9453   -4.7917 Cl        1 <0>         0.0000
     23 H1          0.5965   -3.9748   -9.3062 H         1 <0>         0.0000
     24 H2         -1.4842   -2.6274   -9.0753 H         1 <0>         0.0000
     25 H3         -0.9966    2.3299   -1.1152 H         1 <0>         0.0000
     26 H4          0.7415    2.4604   -0.8905 H         1 <0>         0.0000
     27 H5          0.7351    0.2264   -0.0450 H         1 <0>         0.0000
     28 H6         -0.9946    0.1444   -0.3462 H         1 <0>         0.0000
     29 H7         -0.3995    2.5121   -3.4296 H         1 <0>         0.0000
     30 H8          1.2055    1.8327   -3.1405 H         1 <0>         0.0000
     31 H9          1.2713   -0.6997   -2.1958 H         1 <0>         0.0000
     32 H10        -0.2841   -1.4933   -1.9707 H         1 <0>         0.0000
     33 H11        -1.4309    0.2863   -3.2198 H         1 <0>         0.0000
     34 H12        -3.7608    1.2294   -8.6768 H         1 <0>         0.0000
     35 H13        -3.2358    1.9565   -7.1454 H         1 <0>         0.0000
     36 H14        -2.5107    2.4908   -8.6767 H         1 <0>         0.0000
     37 H15         1.2230   -0.1898   -4.6456 H         1 <0>         0.0000
     38 H16        -0.2517    0.5059   -5.3692 H         1 <0>         0.0000
     39 H17        -0.9431    0.9261   -7.4422 H         1 <0>         0.0000
     40 H18        -1.4685    0.1948   -8.9728 H         1 <0>         0.0000
@<TRIPOS>BOND
     1    1    2 ar
     2    1    3 ar
     3    1   23 1
     4    2    5 ar
     5    2   24 1
     6    3    6 ar
     7    3    7 1
     8    4    5 ar
     9    4    6 ar
    10    4   20 1
    11    5   21 1
    12    6   22 1
    13    7   16 1
    14    7   17 2
    15    8    9 1
    16    8   10 1
    17    8   25 1
    18    8   26 1
    19    9   11 1
    20    9   27 1
    21    9   28 1
    22   10   12 1
    23   10   29 1
    24   10   30 1
    25   11   12 1
    26   11   31 1
    27   11   32 1
    28   12   14 1
    29   12   33 1
    30   13   15 1
    31   13   34 1
    32   13   35 1
    33   13   36 1
    34   14   20 1
    35   14   37 1
    36   14   38 1
    37   15   21 1
    38   15   39 1
    39   15   40 1
    40   18   21 2
    41   19   21 2
