@<TRIPOS>MOLECULE
*****
   28    29     0     0     0
SMALL
NO_CHARGES

@<TRIPOS>ATOM
      1 C1          1.8781   -1.1106   -0.0725 C.ar      1 <0>         0.0000
      2 C2          0.7782   -0.5806    0.6065 C.ar      1 <0>         0.0000
      3 C3          2.9306   -1.5760    2.0330 C.ar      1 <0>         0.0000
      4 C4          2.9748   -1.6199    0.6331 C.ar      1 <0>         0.0000
      5 C5          0.7304   -0.5380    2.0056 C.ar      1 <0>         0.0000
      6 C6          1.8349   -1.0442    2.7271 C.ar      1 <0>         0.0000
      7 C7          0.9308   -2.1165    4.8867 C.2       1 <0>         0.0000
      8 C8          4.9412   -1.4008   -1.0798 C.3       1 <0>         0.0000
      9 C9          5.5597   -1.7995    0.2445 C.3       1 <0>         0.0000
     10 C10         4.1444   -2.2203   -0.0863 C.3       1 <0>         0.0000
     11 C11        -0.4743    0.0335    2.7163 C.3       1 <0>         0.0000
     12 C12         1.8282   -1.0530    4.2387 C.3       1 <0>         0.0000
     13 O1          0.5350   -2.0396    6.0269 O.2       1 <0>         0.0000
     14 O2          0.6223   -3.1930    4.1157 O.3       1 <0>         0.0000
     15 H1          1.8892   -1.1253   -1.1598 H         1 <0>         0.0000
     16 H2         -0.0626   -0.1902    0.0375 H         1 <0>         0.0000
     17 H3          3.7781   -1.9627    2.5959 H         1 <0>         0.0000
     18 H4          4.6607   -0.3591   -1.2061 H         1 <0>         0.0000
     19 H5          5.2941   -1.8893   -1.9833 H         1 <0>         0.0000
     20 H6          6.3358   -2.5592    0.2447 H         1 <0>         0.0000
     21 H7          5.6902   -1.0182    0.9879 H         1 <0>         0.0000
     22 H8          4.0188   -3.2704   -0.3460 H         1 <0>         0.0000
     23 H9         -0.9496   -0.7048    3.3715 H         1 <0>         0.0000
     24 H10        -0.2033    0.8896    3.3448 H         1 <0>         0.0000
     25 H11        -1.2257    0.3721    1.9989 H         1 <0>         0.0000
     26 H12         1.5133   -0.0953    4.6587 H         1 <0>         0.0000
     27 H13         2.8376   -1.2421    4.6202 H         1 <0>         0.0000
     28 H14         0.9940   -3.0621    3.2224 H         1 <0>         0.0000
@<TRIPOS>BOND
     1    1    2 ar
     2    1    4 ar
     3    1   15 1
     4    2    5 ar
     5    2   16 1
     6    3    4 ar
     7    3    6 ar
     8    3   17 1
     9    4   10 1
    10    5    6 ar
    11    5   11 1
    12    6   12 1
    13    7   12 1
    14    7   13 2
    15    7   14 1
    16    8    9 1
    17    8   10 1
    18    8   18 1
    19    8   19 1
    20    9   10 1
    21    9   20 1
    22    9   21 1
    23   10   22 1
    24   11   23 1
    25   11   24 1
    26   11   25 1
    27   12   26 1
    28   12   27 1
    29   14   28 1
