@<TRIPOS>MOLECULE
*****
   22    22     0     0     0
SMALL
NO_CHARGES

@<TRIPOS>ATOM
      1 C1          7.7935   -1.7451    0.9210 C.ar      1 <0>         0.0000
      2 C2          8.5841   -2.5650    1.7262 C.ar      1 <0>         0.0000
      3 C3          6.8505   -2.5840    3.4090 C.ar      1 <0>         0.0000
      4 C4          6.5315   -1.3446    1.3598 C.ar      1 <0>         0.0000
      5 C5          6.0600   -1.7641    2.6037 C.ar      1 <0>         0.0000
      6 C6          8.1126   -2.9845    2.9702 C.ar      1 <0>         0.0000
      7 C7          5.4219    1.9959    0.9060 C.2       1 <0>         0.0000
      8 C8          6.1649    0.9678    0.4810 C.2       1 <0>         0.0000
      9 C9          5.7038   -0.4658    0.4806 C.3       1 <0>         0.0000
     10 C10         4.7130   -1.3467    3.0957 C.3       1 <0>         0.0000
     11 F1          8.8714   -3.7724    3.7433 F         1 <0>         0.0000
     12 F2          4.4059   -1.8415    4.3304 F         1 <0>         0.0000
     13 F3          4.5687    0.0062    3.2064 F         1 <0>         0.0000
     14 F4          3.7053   -1.7581    2.2735 F         1 <0>         0.0000
     15 H1          8.1701   -1.4224   -0.0462 H         1 <0>         0.0000
     16 H2          9.5670   -2.8752    1.3847 H         1 <0>         0.0000
     17 H3          6.4930   -2.9157    4.3801 H         1 <0>         0.0000
     18 H4          5.7972    3.0131    0.8872 H         1 <0>         0.0000
     19 H5          4.4178    1.8301    1.2806 H         1 <0>         0.0000
     20 H6          7.1644    1.1707    0.1043 H         1 <0>         0.0000
     21 H7          5.7277   -0.8337   -0.5583 H         1 <0>         0.0000
     22 H8          4.6437   -0.5307    0.7771 H         1 <0>         0.0000
@<TRIPOS>BOND
     1    1    2 ar
     2    1    4 ar
     3    1   15 1
     4    2    6 ar
     5    2   16 1
     6    3    5 ar
     7    3    6 ar
     8    3   17 1
     9    4    5 ar
    10    4    9 1
    11    5   10 1
    12    6   11 1
    13    7    8 2
    14    7   18 1
    15    7   19 1
    16    8    9 1
    17    8   20 1
    18    9   21 1
    19    9   22 1
    20   10   12 1
    21   10   13 1
    22   10   14 1
