@<TRIPOS>MOLECULE
*****
   23    24     0     0     0
SMALL
NO_CHARGES

@<TRIPOS>ATOM
      1 C1          1.7326   -1.2690   -0.0996 C.ar      1 <0>         0.0000
      2 C2          0.7156   -0.5618    0.5558 C.ar      1 <0>         0.0000
      3 C3          5.6385   -4.0580    2.9792 C.ar      1 <0>         0.0000
      4 C4          6.0679   -3.4626    4.1696 C.ar      1 <0>         0.0000
      5 C5          2.7594   -1.8233    0.6585 C.ar      1 <0>         0.0000
      6 C6          0.7518   -0.4085    1.9365 C.ar      1 <0>         0.0000
      7 C7          4.5650   -3.5006    2.2921 C.ar      1 <0>         0.0000
      8 C8          5.3727   -2.3394    4.6174 C.ar      1 <0>         0.0000
      9 C9          2.8189   -1.6996    2.0608 C.ar      1 <0>         0.0000
     10 C10         1.7960   -0.9535    2.7152 C.ar      1 <0>         0.0000
     11 C11         3.9353   -2.3422    2.7956 C.ar      1 <0>         0.0000
     12 N1          4.3415   -1.7923    3.9624 N.ar      1 <0>         0.0000
     13 N2          1.7557   -0.8098    4.0962 N.pl3     1 <0>         0.0000
     14 H1          1.7290   -1.3749   -1.1804 H         1 <0>         0.0000
     15 H2         -0.0997   -0.1199   -0.0117 H         1 <0>         0.0000
     16 H3          6.1253   -4.9530    2.5996 H         1 <0>         0.0000
     17 H4          6.8993   -3.8627    4.7422 H         1 <0>         0.0000
     18 H5          3.5626   -2.3436    0.1451 H         1 <0>         0.0000
     19 H6         -0.0375    0.1454    2.4413 H         1 <0>         0.0000
     20 H7          4.1957   -3.9723    1.3882 H         1 <0>         0.0000
     21 H8          5.6545   -1.8530    5.5504 H         1 <0>         0.0000
     22 H9          2.6693   -0.8623    4.5401 H         1 <0>         0.0000
     23 H10         1.1710   -0.0516    4.4251 H         1 <0>         0.0000
@<TRIPOS>BOND
     1    1    2 ar
     2    1    5 ar
     3    1   14 1
     4    2    6 ar
     5    2   15 1
     6    3    4 ar
     7    3    7 ar
     8    3   16 1
     9    4    8 ar
    10    4   17 1
    11    5    9 ar
    12    5   18 1
    13    6   10 ar
    14    6   19 1
    15    7   11 ar
    16    7   20 1
    17    8   12 ar
    18    8   21 1
    19    9   10 ar
    20    9   11 1
    21   10   13 1
    22   11   12 ar
    23   13   22 1
    24   13   23 1
