@<TRIPOS>MOLECULE
*****
   21    21     0     0     0
SMALL
NO_CHARGES

@<TRIPOS>ATOM
      1 C1          4.5794   -3.4737    6.0478 C.ar      1 <0>         0.0000
      2 C2          4.5731   -3.4127    4.6542 C.ar      1 <0>         0.0000
      3 C3          3.6452   -2.7432    6.7821 C.ar      1 <0>         0.0000
      4 C4          3.6324   -2.6214    3.9950 C.ar      1 <0>         0.0000
      5 C5          2.7045   -1.9519    6.1229 C.ar      1 <0>         0.0000
      6 C6          2.6981   -1.8909    4.7293 C.ar      1 <0>         0.0000
      7 C7          2.0050    0.1477    3.7855 C.2       1 <0>         0.0000
      8 C8          1.0503    1.0675    3.0795 C.3       1 <0>         0.0000
      9 C9          3.3429    0.6754    4.2058 C.3       1 <0>         0.0000
     10 O1          1.7572   -1.0997    4.0699 O.3       1 <0>         0.0000
     11 H1          5.3118   -4.0896    6.5614 H         1 <0>         0.0000
     12 H2          5.3003   -3.9815    4.0822 H         1 <0>         0.0000
     13 H3          3.6502   -2.7909    7.8671 H         1 <0>         0.0000
     14 H4          3.6275   -2.5739    2.9101 H         1 <0>         0.0000
     15 H5          1.9772   -1.3832    6.6947 H         1 <0>         0.0000
     16 H6          1.1921    1.0282    1.9979 H         1 <0>         0.0000
     17 H7          0.0250    0.7832    3.3289 H         1 <0>         0.0000
     18 H8          1.2118    2.0956    3.4155 H         1 <0>         0.0000
     19 H9          3.2692    1.0874    5.2154 H         1 <0>         0.0000
     20 H10         4.0823   -0.1283    4.1881 H         1 <0>         0.0000
     21 H11         3.6489    1.4702    3.5208 H         1 <0>         0.0000
@<TRIPOS>BOND
     1    1    3 ar
     2    1    2 ar
     3    1   11 1
     4    2    4 ar
     5    2   12 1
     6    3    5 ar
     7    3   13 1
     8    4    6 ar
     9    4   14 1
    10    5    6 ar
    11    5   15 1
    12    6   10 1
    13    7    8 1
    14    7    9 1
    15    7   10 2
    16    8   16 1
    17    8   17 1
    18    8   18 1
    19    9   19 1
    20    9   20 1
    21    9   21 1
