@<TRIPOS>MOLECULE
*****
   23    24     0     0     0
SMALL
NO_CHARGES

@<TRIPOS>ATOM
      1 C1          2.0534   -0.3093   -3.1170 C.2       1 <0>         0.0000
      2 C2          3.4023   -0.0373   -5.0155 C.2       1 <0>         0.0000
      3 C3          1.0582   -0.7070   -2.0665 C.2       1 <0>         0.0000
      4 C4          0.7977   -0.0086    1.5705 C.3       1 <0>         0.0000
      5 C5          0.3952   -1.3720    1.0492 C.3       1 <0>         0.0000
      6 C6          0.2422   -0.1526    0.1742 C.3       1 <0>         0.0000
      7 C7          5.8131   -0.7363   -5.9813 C.3       1 <0>         0.0000
      8 N1          2.9193    0.6643   -2.9765 N.2       1 <0>         0.0000
      9 N2          3.7029    0.8285   -4.0870 N.2       1 <0>         0.0000
     10 N3          1.1483    0.0266   -0.9261 N.am      1 <0>         0.0000
     11 O1          0.2651   -1.6233   -2.2708 O.2       1 <0>         0.0000
     12 O2          3.5530   -1.2256   -7.3857 O.2       1 <0>         0.0000
     13 S1          2.1092   -1.1388   -4.6449 S.3       1 <0>         0.0000
     14 S2          4.2230   -0.0917   -6.6416 S.o       1 <0>         0.0000
     15 H1          0.1713    0.4759    2.3129 H         1 <0>         0.0000
     16 H2          1.8600    0.1975    1.6664 H         1 <0>         0.0000
     17 H3          1.1859   -2.0660    0.7852 H         1 <0>         0.0000
     18 H4         -0.5126   -1.8309    1.4268 H         1 <0>         0.0000
     19 H5         -0.7701    0.2004   -0.0093 H         1 <0>         0.0000
     20 H6          6.4796   -0.8489   -6.8393 H         1 <0>         0.0000
     21 H7          5.6249   -1.7057   -5.5156 H         1 <0>         0.0000
     22 H8          6.2189   -0.0190   -5.2646 H         1 <0>         0.0000
     23 H9          1.7953    0.8086   -0.9287 H         1 <0>         0.0000
@<TRIPOS>BOND
     1    1    3 1
     2    1    8 2
     3    1   13 1
     4    2    9 2
     5    2   13 1
     6    2   14 1
     7    3   10 am
     8    3   11 2
     9    4    5 1
    10    4    6 1
    11    4   15 1
    12    4   16 1
    13    5    6 1
    14    5   17 1
    15    5   18 1
    16    6   10 1
    17    6   19 1
    18    7   14 1
    19    7   20 1
    20    7   21 1
    21    7   22 1
    22    8    9 1
    23   10   23 1
    24   12   14 2
