@<TRIPOS>MOLECULE
*****
   31    31     0     0     0
SMALL
NO_CHARGES

@<TRIPOS>ATOM
      1 C1         -1.0210    2.5673    2.7363 C.ar      1 <0>         0.0000
      2 C2          0.3681    2.0023    4.6069 C.ar      1 <0>         0.0000
      3 C3         -2.0480    2.9674    3.5997 C.ar      1 <0>         0.0000
      4 C4         -0.6394    2.3951    5.4846 C.ar      1 <0>         0.0000
      5 C5          0.1996    2.0780    3.2145 C.ar      1 <0>         0.0000
      6 C6         -1.8567    2.8782    4.9841 C.ar      1 <0>         0.0000
      7 C7          0.9925   -0.8794    2.7572 C.3       1 <0>         0.0000
      8 C8          1.2753    1.6061    2.2649 C.3       1 <0>         0.0000
      9 C9         -4.9043    3.9353    6.7176 C.3       1 <0>         0.0000
     10 C10        -4.0698    3.7030    5.4694 C.3       1 <0>         0.0000
     11 C11         1.0090    0.2040    1.6786 C.3       1 <0>         0.0000
     12 N1          2.0819   -0.0991    0.7136 N.3       1 <0>         0.0000
     13 O1         -5.1050    2.7338    7.4546 O.3       1 <0>         0.0000
     14 O2         -2.7908    3.2471    5.9219 O.3       1 <0>         0.0000
     15 H1         -1.1811    2.6460    1.6627 H         1 <0>         0.0000
     16 H2          1.3058    1.6278    5.0114 H         1 <0>         0.0000
     17 H3         -2.9751    3.3463    3.1843 H         1 <0>         0.0000
     18 H4         -0.5015    2.3383    6.5608 H         1 <0>         0.0000
     19 H5          1.9588   -0.9156    3.2719 H         1 <0>         0.0000
     20 H6          0.8077   -1.8654    2.3147 H         1 <0>         0.0000
     21 H7          0.2070   -0.6899    3.4935 H         1 <0>         0.0000
     22 H8          1.3656    2.3149    1.4313 H         1 <0>         0.0000
     23 H9          2.2496    1.5847    2.7645 H         1 <0>         0.0000
     24 H10        -5.8958    4.2955    6.4291 H         1 <0>         0.0000
     25 H11        -4.4245    4.7054    7.3387 H         1 <0>         0.0000
     26 H12        -3.9643    4.6341    4.8957 H         1 <0>         0.0000
     27 H13        -4.5387    2.9383    4.8374 H         1 <0>         0.0000
     28 H14         0.0124    0.2272    1.2037 H         1 <0>         0.0000
     29 H15         2.0504    0.5659   -0.0586 H         1 <0>         0.0000
     30 H16         1.9257   -1.0204    0.3063 H         1 <0>         0.0000
     31 H17        -4.2246    2.3591    7.6229 H         1 <0>         0.0000
@<TRIPOS>BOND
     1    1    3 ar
     2    1    5 ar
     3    1   15 1
     4    2    4 ar
     5    2    5 ar
     6    2   16 1
     7    3    6 ar
     8    3   17 1
     9    4    6 ar
    10    4   18 1
    11    5    8 1
    12    6   14 1
    13    7   11 1
    14    7   19 1
    15    7   20 1
    16    7   21 1
    17    8   11 1
    18    8   22 1
    19    8   23 1
    20    9   10 1
    21    9   13 1
    22    9   24 1
    23    9   25 1
    24   10   14 1
    25   10   26 1
    26   10   27 1
    27   11   12 1
    28   11   28 1
    29   12   29 1
    30   12   30 1
    31   13   31 1
