@<TRIPOS>MOLECULE
*****
   33    35     0     0     0
SMALL
NO_CHARGES

@<TRIPOS>ATOM
      1 C1         -5.1496   -0.4881   -4.4374 C.ar      1 <0>         0.0000
      2 C2         -7.0661   -1.8273   -4.9868 C.ar      1 <0>         0.0000
      3 C3         -4.6735   -1.5442   -3.6560 C.ar      1 <0>         0.0000
      4 C4         -6.3555   -0.6334   -5.1149 C.ar      1 <0>         0.0000
      5 C5         -5.4609   -2.7132   -3.5688 C.ar      1 <0>         0.0000
      6 C6         -2.5880   -1.3159   -6.2820 C.3       1 <0>         0.0000
      7 C7         -1.1155   -1.6038   -6.0821 C.3       1 <0>         0.0000
      8 C8         -5.1432   -5.2541   -3.2639 C.3       1 <0>         0.0000
      9 C9         -3.8063   -4.6288   -2.9245 C.3       1 <0>         0.0000
     10 C10        -1.9289   -1.0169   -4.9535 C.3       1 <0>         0.0000
     11 C11        -5.0932   -3.8669   -2.6732 C.3       1 <0>         0.0000
     12 C12        -5.5741   -3.6899   -1.2389 C.3       1 <0>         0.0000
     13 C13        -3.3263   -1.4040   -2.9766 C.3       1 <0>         0.0000
     14 N1         -6.6293   -2.8322   -4.2240 N.ar      1 <0>         0.0000
     15 N2         -2.2296   -1.8798   -3.8373 N.3       1 <0>         0.0000
     16 Cl1        -6.9761    0.6613   -6.1239 Cl        1 <0>         0.0000
     17 H1         -4.5784    0.4313   -4.5261 H         1 <0>         0.0000
     18 H2         -8.0107   -1.9690   -5.5086 H         1 <0>         0.0000
     19 H3         -2.8747   -0.4799   -6.9132 H         1 <0>         0.0000
     20 H4         -3.2641   -2.1638   -6.3044 H         1 <0>         0.0000
     21 H5         -0.8211   -2.6439   -5.9800 H         1 <0>         0.0000
     22 H6         -0.3888   -0.9642   -6.5741 H         1 <0>         0.0000
     23 H7         -5.4160   -5.3417   -4.3107 H         1 <0>         0.0000
     24 H8         -5.5166   -6.0555   -2.6321 H         1 <0>         0.0000
     25 H9         -3.2685   -5.0002   -2.0550 H         1 <0>         0.0000
     26 H10        -3.1721   -4.2912   -3.7371 H         1 <0>         0.0000
     27 H11        -1.7569    0.0417   -4.7292 H         1 <0>         0.0000
     28 H12        -5.2955   -4.5544   -0.6270 H         1 <0>         0.0000
     29 H13        -6.6645   -3.5892   -1.2114 H         1 <0>         0.0000
     30 H14        -5.1418   -2.7956   -0.7743 H         1 <0>         0.0000
     31 H15        -3.1910   -0.3485   -2.6830 H         1 <0>         0.0000
     32 H16        -3.3050   -2.0004   -2.0628 H         1 <0>         0.0000
     33 H17        -1.3945   -1.9986   -3.2674 H         1 <0>         0.0000
@<TRIPOS>BOND
     1    1    3 ar
     2    1    4 ar
     3    1   17 1
     4    2    4 ar
     5    2   14 ar
     6    2   18 1
     7    3    5 ar
     8    3   13 1
     9    4   16 1
    10    5   11 1
    11    5   14 ar
    12    6    7 1
    13    6   10 1
    14    6   19 1
    15    6   20 1
    16    7   10 1
    17    7   21 1
    18    7   22 1
    19    8    9 1
    20    8   11 1
    21    8   23 1
    22    8   24 1
    23    9   11 1
    24    9   25 1
    25    9   26 1
    26   10   15 1
    27   10   27 1
    28   11   12 1
    29   12   28 1
    30   12   29 1
    31   12   30 1
    32   13   15 1
    33   13   31 1
    34   13   32 1
    35   15   33 1
