@<TRIPOS>MOLECULE
*****
    9     8     0     0     0
SMALL
NO_CHARGES

@<TRIPOS>ATOM
      1 C1         -0.1985   -0.0589   -1.4133 C.2       1 <0>         0.0000
      2 C2         -0.4548    0.1603   -0.1141 C.2       1 <0>         0.0000
      3 C3          0.5005   -0.0899    1.0402 C.3       1 <0>         0.0000
      4 Cl1        -1.2771    0.2234   -2.7200 Cl        1 <0>         0.0000
      5 Cl2        -2.0236    0.7944    0.3551 Cl        1 <0>         0.0000
      6 Cl3         2.0627   -0.7354    0.4261 Cl        1 <0>         0.0000
      7 Cl4         0.8124    1.4405    1.9315 Cl        1 <0>         0.0000
      8 Cl5        -0.1080   -1.2757    2.2483 Cl        1 <0>         0.0000
      9 H1          0.7365   -0.4467   -1.7926 H         1 <0>         0.0000
@<TRIPOS>BOND
     1    1    2 2
     2    1    4 1
     3    1    9 1
     4    2    3 1
     5    2    5 1
     6    3    6 1
     7    3    7 1
     8    3    8 1
