@<TRIPOS>MOLECULE
*****
   30    31     0     0     0
SMALL
NO_CHARGES

@<TRIPOS>ATOM
      1 C1         -3.0374   -2.8966    8.6428 C.ar      1 <0>         0.0000
      2 C2         -3.8738   -2.6256    7.5599 C.ar      1 <0>         0.0000
      3 C3         -1.7051   -2.4844    8.6153 C.ar      1 <0>         0.0000
      4 C4         -3.3780   -1.9424    6.4495 C.ar      1 <0>         0.0000
      5 C5         -1.2093   -1.8012    7.5049 C.ar      1 <0>         0.0000
      6 C6         -2.0457   -1.5302    6.4220 C.ar      1 <0>         0.0000
      7 C7          0.7170   -1.8320    0.8368 C.2       1 <0>         0.0000
      8 C8         -0.3377   -1.5319    2.9194 C.2       1 <0>         0.0000
      9 C9          0.6077   -0.3290    0.8466 C.3       1 <0>         0.0000
     10 C10         1.3863   -4.3010    2.8819 C.3       1 <0>         0.0000
     11 C11         0.1519   -3.8357    2.1874 C.3       1 <0>         0.0000
     12 N1         -0.8665   -1.8565    4.0479 N.2       1 <0>         0.0000
     13 N2          0.1749   -2.3951    1.9850 N.am      1 <0>         0.0000
     14 O1          1.2339   -2.4414   -0.0954 O.2       1 <0>         0.0000
     15 O2         -2.5712   -0.0134    4.4161 O.2       1 <0>         0.0000
     16 O3         -0.2906    0.1324    5.4761 O.2       1 <0>         0.0000
     17 S1         -0.1907    0.1190    2.4014 S.3       1 <0>         0.0000
     18 S2         -1.4165   -0.6596    5.0136 S.o2      1 <0>         0.0000
     19 H1         -3.4243   -3.4281    9.5074 H         1 <0>         0.0000
     20 H2         -4.9112   -2.9461    7.5820 H         1 <0>         0.0000
     21 H3         -1.0539   -2.6942    9.4586 H         1 <0>         0.0000
     22 H4         -4.0388   -1.7355    5.6121 H         1 <0>         0.0000
     23 H5         -0.1700   -1.4837    7.4941 H         1 <0>         0.0000
     24 H6          1.6062    0.1119    0.7932 H         1 <0>         0.0000
     25 H7         -0.0000    0.0000    0.0001 H         1 <0>         0.0000
     26 H8          2.2789   -4.0642    2.2929 H         1 <0>         0.0000
     27 H9          1.4742   -3.8404    3.8719 H         1 <0>         0.0000
     28 H10         1.3490   -5.3887    3.0165 H         1 <0>         0.0000
     29 H11        -0.7355   -4.0753    2.7809 H         1 <0>         0.0000
     30 H12         0.0574   -4.3086    1.2055 H         1 <0>         0.0000
@<TRIPOS>BOND
     1    1    3 ar
     2    1    2 ar
     3    1   19 1
     4    2    4 ar
     5    2   20 1
     6    3    5 ar
     7    3   21 1
     8    4    6 ar
     9    4   22 1
    10    5    6 ar
    11    5   23 1
    12    6   18 1
    13    7    9 1
    14    7   13 am
    15    7   14 2
    16    8   12 2
    17    8   13 1
    18    8   17 1
    19    9   17 1
    20    9   24 1
    21    9   25 1
    22   10   11 1
    23   10   26 1
    24   10   27 1
    25   10   28 1
    26   11   13 1
    27   11   29 1
    28   11   30 1
    29   12   18 1
    30   15   18 2
    31   16   18 2
