@<TRIPOS>MOLECULE
*****
   65    67     0     0     0
SMALL
NO_CHARGES

@<TRIPOS>ATOM
      1 C1          2.7153  -10.0246    7.6870 C.1       1 <0>         0.0000
      2 C2          3.0000   -8.7562    5.6245 C.ar      1 <0>         0.0000
      3 C3          2.7112   -7.6720    4.8001 C.ar      1 <0>         0.0000
      4 C4          1.1891   -6.8121    6.4825 C.ar      1 <0>         0.0000
      5 C5          2.3859   -8.8821    6.8805 C.ar      1 <0>         0.0000
      6 C6          1.4699   -7.8978    7.3049 C.ar      1 <0>         0.0000
      7 C7          1.8115   -6.6979    5.2361 C.ar      1 <0>         0.0000
      8 C8          0.1863   -5.2235    4.0904 C.2       1 <0>         0.0000
      9 C9          2.4353   -4.6752    3.8599 C.2       1 <0>         0.0000
     10 C10         0.0550    3.5031    0.0965 C.2       1 <0>         0.0000
     11 C11         1.6185    1.6333   -0.2172 C.3       1 <0>         0.0000
     12 C12        -0.0024    1.4756    1.6023 C.3       1 <0>         0.0000
     13 C13         2.7111    1.1729    0.7440 C.3       1 <0>         0.0000
     14 C14         1.1211    1.0125    2.5313 C.3       1 <0>         0.0000
     15 C15         0.2778   -3.9876    3.1968 C.3       1 <0>         0.0000
     16 C16        -0.5024   -2.8261    3.8283 C.3       1 <0>         0.0000
     17 C17        -0.2660   -4.3360    1.8008 C.3       1 <0>         0.0000
     18 C18        -2.7101    6.0599    1.1378 C.3       1 <0>         0.0000
     19 C19        -1.1052    4.1096    0.8866 C.3       1 <0>         0.0000
     20 C20        -1.5490    5.4658    0.3336 C.3       1 <0>         0.0000
     21 C21         2.7398   -1.4751    3.4416 C.3       1 <0>         0.0000
     22 C22         2.3337   -2.6098    2.4935 C.3       1 <0>         0.0000
     23 C23         3.2009   -0.2431    2.6585 C.3       1 <0>         0.0000
     24 C24         0.7945   -8.0093    8.6540 C.3       1 <0>         0.0000
     25 N1          3.0115  -10.9668    8.3039 N.1       1 <0>         0.0000
     26 N2          1.4935   -5.5848    4.4098 N.am      1 <0>         0.0000
     27 N3          1.7277   -3.7490    3.1753 N.pl3     1 <0>         0.0000
     28 N4          0.5368    2.2844    0.5179 N.am      1 <0>         0.0000
     29 N5          2.1551    0.2973    1.7817 N.3       1 <0>         0.0000
     30 O1         -0.8295   -5.7890    4.4452 O.2       1 <0>         0.0000
     31 O2          0.5441    4.0863   -0.8726 O.2       1 <0>         0.0000
     32 F1         -0.0298   -6.9619    8.8892 F         1 <0>         0.0000
     33 F2          0.0492   -9.1346    8.7463 F         1 <0>         0.0000
     34 F3          1.6981   -8.0411    9.6613 F         1 <0>         0.0000
     35 S1          4.0818   -4.7554    4.0503 S.2       1 <0>         0.0000
     36 H1          3.7002   -9.5182    5.2992 H         1 <0>         0.0000
     37 H2          3.1853   -7.5784    3.8306 H         1 <0>         0.0000
     38 H3          0.4845   -6.0568    6.8062 H         1 <0>         0.0000
     39 H4          2.0097    2.3451   -0.9431 H         1 <0>         0.0000
     40 H5          1.2194    0.7636   -0.7579 H         1 <0>         0.0000
     41 H6         -0.5098    0.5923    1.1861 H         1 <0>         0.0000
     42 H7         -0.7332    2.0425    2.1762 H         1 <0>         0.0000
     43 H8          3.4674    0.6139    0.1834 H         1 <0>         0.0000
     44 H9          3.2041    2.0597    1.1842 H         1 <0>         0.0000
     45 H10         1.5423    1.8920    3.0556 H         1 <0>         0.0000
     46 H11         0.6949    0.3500    3.2902 H         1 <0>         0.0000
     47 H12        -0.4461   -1.9393    3.1904 H         1 <0>         0.0000
     48 H13        -0.1064   -2.5757    4.8163 H         1 <0>         0.0000
     49 H14        -1.5510   -3.1138    3.9355 H         1 <0>         0.0000
     50 H15        -0.2263   -3.4624    1.1442 H         1 <0>         0.0000
     51 H16        -1.3059   -4.6601    1.8877 H         1 <0>         0.0000
     52 H17         0.3170   -5.1416    1.3459 H         1 <0>         0.0000
     53 H18        -2.4327    6.2162    2.1872 H         1 <0>         0.0000
     54 H19        -3.5873    5.4019    1.1222 H         1 <0>         0.0000
     55 H20        -3.0161    7.0284    0.7290 H         1 <0>         0.0000
     56 H21        -0.8101    4.2178    1.9384 H         1 <0>         0.0000
     57 H22        -1.9523    3.4111    0.8805 H         1 <0>         0.0000
     58 H23        -1.8345    5.3489   -0.7162 H         1 <0>         0.0000
     59 H24        -0.6957    6.1506    0.3363 H         1 <0>         0.0000
     60 H25         3.5544   -1.8165    4.0861 H         1 <0>         0.0000
     61 H26         1.9021   -1.2253    4.0995 H         1 <0>         0.0000
     62 H27         1.6154   -2.2355    1.7627 H         1 <0>         0.0000
     63 H28         3.2110   -2.9678    1.9466 H         1 <0>         0.0000
     64 H29         4.0492   -0.5273    2.0256 H         1 <0>         0.0000
     65 H30         3.5761    0.5231    3.3608 H         1 <0>         0.0000
@<TRIPOS>BOND
     1    1    5 1
     2    1   25 3
     3    2    3 ar
     4    2    5 ar
     5    2   36 1
     6    3    7 ar
     7    3   37 1
     8    4    6 ar
     9    4    7 ar
    10    4   38 1
    11    5    6 ar
    12    6   24 1
    13    7   26 1
    14    8   15 1
    15    8   26 am
    16    8   30 2
    17    9   26 1
    18    9   27 1
    19    9   35 2
    20   10   19 1
    21   10   28 am
    22   10   31 2
    23   11   13 1
    24   11   28 1
    25   11   39 1
    26   11   40 1
    27   12   14 1
    28   12   28 1
    29   12   41 1
    30   12   42 1
    31   13   29 1
    32   13   43 1
    33   13   44 1
    34   14   29 1
    35   14   45 1
    36   14   46 1
    37   15   16 1
    38   15   17 1
    39   15   27 1
    40   16   47 1
    41   16   48 1
    42   16   49 1
    43   17   50 1
    44   17   51 1
    45   17   52 1
    46   18   20 1
    47   18   53 1
    48   18   54 1
    49   18   55 1
    50   19   20 1
    51   19   56 1
    52   19   57 1
    53   20   58 1
    54   20   59 1
    55   21   22 1
    56   21   23 1
    57   21   60 1
    58   21   61 1
    59   22   27 1
    60   22   62 1
    61   22   63 1
    62   23   29 1
    63   23   64 1
    64   23   65 1
    65   24   32 1
    66   24   33 1
    67   24   34 1
