@<TRIPOS>MOLECULE
*****
   67    69     0     0     0
SMALL
NO_CHARGES

@<TRIPOS>ATOM
      1 C1          0.1414    0.7266    1.7217 C.1       1 <0>         0.0000
      2 C2          4.4162   -4.0035    4.6481 C.ar      1 <0>         0.0000
      3 C3          3.6178   -4.0169    3.5024 C.ar      1 <0>         0.0000
      4 C4          1.4881   -1.9208   -0.5121 C.ar      1 <0>         0.0000
      5 C5          0.6423   -0.5412    1.2764 C.ar      1 <0>         0.0000
      6 C6          1.6671   -3.5712    4.9027 C.ar      1 <0>         0.0000
      7 C7          0.7739   -1.6104    2.1947 C.ar      1 <0>         0.0000
      8 C8          3.8768   -3.7791    5.9159 C.ar      1 <0>         0.0000
      9 C9          0.9946   -0.6878   -0.0800 C.ar      1 <0>         0.0000
     10 C10         2.2552   -3.8065    3.6521 C.ar      1 <0>         0.0000
     11 C11         1.2845   -2.8206    1.7350 C.ar      1 <0>         0.0000
     12 C12         1.6449   -2.9892    0.3802 C.ar      1 <0>         0.0000
     13 C13         2.4903   -3.5550    6.0465 C.ar      1 <0>         0.0000
     14 C14         0.1703   -3.4800    4.9198 C.2       1 <0>         0.0000
     15 C15         0.3938   -1.4089    3.6462 C.3       1 <0>         0.0000
     16 C16         0.8367    0.4602   -1.0465 C.3       1 <0>         0.0000
     17 C17         4.0537   -7.7284   -2.7461 C.3       1 <0>         0.0000
     18 C18         2.4072   -6.1900   -3.8862 C.3       1 <0>         0.0000
     19 C19         4.1705   -7.5315    8.2389 C.3       1 <0>         0.0000
     20 C20         3.3345   -5.4950    9.4747 C.3       1 <0>         0.0000
     21 C21         0.8957   -2.5226    7.5789 C.3       1 <0>         0.0000
     22 C22         2.9534   -5.9045   -1.4047 C.3       1 <0>         0.0000
     23 C23         5.0458   -5.2589    7.5997 C.3       1 <0>         0.0000
     24 C24         2.4709   -4.4641   -1.3235 C.3       1 <0>         0.0000
     25 C25         4.7812   -3.8150    7.1310 C.3       1 <0>         0.0000
     26 C26         3.4818   -6.3042   -2.7935 C.3       1 <0>         0.0000
     27 C27         3.8280   -6.0388    8.1259 C.3       1 <0>         0.0000
     28 N1         -0.2585    1.7663    2.0685 N.1       1 <0>         0.0000
     29 O1         -0.5420   -4.2556    5.5175 O.2       1 <0>         0.0000
     30 O2          1.4013   -3.9253    2.5560 O.3       1 <0>         0.0000
     31 O3         -0.4017   -2.4789    4.1921 O.3       1 <0>         0.0000
     32 O4          6.0206   -3.1878    6.7472 O.3       1 <0>         0.0000
     33 O5          2.0492   -3.3327    7.3193 O.3       1 <0>         0.0000
     34 O6          2.1428   -4.2034    0.0511 O.3       1 <0>         0.0000
     35 H1          5.4881   -4.1516    4.5667 H         1 <0>         0.0000
     36 H2          4.0253   -4.2114    2.5155 H         1 <0>         0.0000
     37 H3          1.7608   -2.0382   -1.5542 H         1 <0>         0.0000
     38 H4          1.2904   -1.2552    4.2537 H         1 <0>         0.0000
     39 H5         -0.2322   -0.5220    3.7442 H         1 <0>         0.0000
     40 H6         -0.2083    0.7810   -1.1095 H         1 <0>         0.0000
     41 H7          1.4171    1.3308   -0.7244 H         1 <0>         0.0000
     42 H8          1.1688    0.1778   -2.0481 H         1 <0>         0.0000
     43 H9          3.2705   -8.4546   -2.4973 H         1 <0>         0.0000
     44 H10         4.8433   -7.8174   -1.9920 H         1 <0>         0.0000
     45 H11         4.4783   -8.0148   -3.7141 H         1 <0>         0.0000
     46 H12         1.5349   -6.8076   -3.6397 H         1 <0>         0.0000
     47 H13         2.7959   -6.5338   -4.8507 H         1 <0>         0.0000
     48 H14         2.0599   -5.1607   -4.0236 H         1 <0>         0.0000
     49 H15         4.9988   -7.6929    8.9404 H         1 <0>         0.0000
     50 H16         3.3109   -8.1050    8.6025 H         1 <0>         0.0000
     51 H17         4.4664   -7.9474    7.2694 H         1 <0>         0.0000
     52 H18         4.1157   -5.5893   10.2400 H         1 <0>         0.0000
     53 H19         3.0436   -4.4441    9.4058 H         1 <0>         0.0000
     54 H20         2.4602   -6.0563    9.8217 H         1 <0>         0.0000
     55 H21         1.0452   -2.1126    8.5795 H         1 <0>         0.0000
     56 H22        -0.0178   -3.1181    7.5506 H         1 <0>         0.0000
     57 H23         0.8256   -1.6965    6.8624 H         1 <0>         0.0000
     58 H24         3.7467   -6.0373   -0.6601 H         1 <0>         0.0000
     59 H25         2.1321   -6.5699   -1.1118 H         1 <0>         0.0000
     60 H26         5.8074   -5.2271    8.3945 H         1 <0>         0.0000
     61 H27         5.4946   -5.7964    6.7555 H         1 <0>         0.0000
     62 H28         3.2571   -3.7706   -1.6521 H         1 <0>         0.0000
     63 H29         1.5814   -4.2995   -1.9419 H         1 <0>         0.0000
     64 H30         4.3162   -3.2396    7.9372 H         1 <0>         0.0000
     65 H31         4.3037   -5.6209   -3.0520 H         1 <0>         0.0000
     66 H32         3.0135   -5.9374    7.3988 H         1 <0>         0.0000
     67 H33         6.6438   -3.3058    7.4814 H         1 <0>         0.0000
@<TRIPOS>BOND
     1    1    5 1
     2    1   28 3
     3    2    3 ar
     4    2    8 ar
     5    2   35 1
     6    3   10 ar
     7    3   36 1
     8    4    9 ar
     9    4   12 ar
    10    4   37 1
    11    5    7 ar
    12    5    9 ar
    13    6   10 ar
    14    6   13 ar
    15    6   14 1
    16    7   11 ar
    17    7   15 1
    18    8   13 ar
    19    8   25 1
    20    9   16 1
    21   10   30 1
    22   11   12 ar
    23   11   30 1
    24   12   34 1
    25   13   33 1
    26   14   29 2
    27   14   31 1
    28   15   31 1
    29   15   38 1
    30   15   39 1
    31   16   40 1
    32   16   41 1
    33   16   42 1
    34   17   26 1
    35   17   43 1
    36   17   44 1
    37   17   45 1
    38   18   26 1
    39   18   46 1
    40   18   47 1
    41   18   48 1
    42   19   27 1
    43   19   49 1
    44   19   50 1
    45   19   51 1
    46   20   27 1
    47   20   52 1
    48   20   53 1
    49   20   54 1
    50   21   33 1
    51   21   55 1
    52   21   56 1
    53   21   57 1
    54   22   24 1
    55   22   26 1
    56   22   58 1
    57   22   59 1
    58   23   25 1
    59   23   27 1
    60   23   60 1
    61   23   61 1
    62   24   34 1
    63   24   62 1
    64   24   63 1
    65   25   32 1
    66   25   64 1
    67   26   65 1
    68   27   66 1
    69   32   67 1
