@<TRIPOS>MOLECULE
*****
   66    70     0     0     0
SMALL
NO_CHARGES

@<TRIPOS>ATOM
      1 C1          6.5332   -4.8661    0.9506 C.ar      1 <0>         0.0000
      2 C2          6.9004   -3.4507    2.8688 C.ar      1 <0>         0.0000
      3 C3          4.1291   -3.1051    0.4183 C.ar      1 <0>         0.0000
      4 C4         -0.1339    1.0072    3.4534 C.ar      1 <0>         0.0000
      5 C5          7.4357   -5.7994    1.4612 C.ar      1 <0>         0.0000
      6 C6          7.8047   -4.3754    3.3831 C.ar      1 <0>         0.0000
      7 C7          3.2028   -2.1940   -0.0971 C.ar      1 <0>         0.0000
      8 C8          0.1310    1.1617    2.0954 C.ar      1 <0>         0.0000
      9 C9          5.5182   -1.3058    1.2449 C.ar      1 <0>         0.0000
     10 C10         0.5741   -1.2235    1.9598 C.ar      1 <0>         0.0000
     11 C11         6.2462   -3.6773    1.6426 C.ar      1 <0>         0.0000
     12 C12         5.2865   -2.6884    1.0997 C.ar      1 <0>         0.0000
     13 C13        -0.0402   -0.2432    4.0875 C.ar      1 <0>         0.0000
     14 C14         4.6011   -0.3903    0.7491 C.ar      1 <0>         0.0000
     15 C15         0.3110   -1.3752    3.3270 C.ar      1 <0>         0.0000
     16 C16         8.0750   -5.5552    2.6786 C.ar      1 <0>         0.0000
     17 C17         3.4385   -0.8327    0.1037 C.ar      1 <0>         0.0000
     18 C18         0.4939    0.0302    1.3577 C.ar      1 <0>         0.0000
     19 C19        -0.5837   -5.1192    3.6724 C.2       1 <0>         0.0000
     20 C20        -0.2819   -0.3367    5.5812 C.3       1 <0>         0.0000
     21 C21        -0.5471   -1.7656    6.0628 C.3       1 <0>         0.0000
     22 C22         0.4837   -2.7276    5.4654 C.3       1 <0>         0.0000
     23 C23         3.2311    1.5041    0.3294 C.3       1 <0>         0.0000
     24 C24         0.3962   -2.7707    3.9306 C.3       1 <0>         0.0000
     25 C25         4.6931    1.1255    0.6829 C.3       1 <0>         0.0000
     26 C26         5.1331    1.7740    2.0014 C.3       1 <0>         0.0000
     27 C27         5.6429    1.5315   -0.4635 C.3       1 <0>         0.0000
     28 C28        -0.7898   -3.6265    3.4423 C.3       1 <0>         0.0000
     29 C29         9.0484   -6.5424    3.2602 C.3       1 <0>         0.0000
     30 N1          2.6657    0.2870   -0.3231 N.pl3     1 <0>         0.0000
     31 O1          0.4565   -5.6316    4.0123 O.2       1 <0>         0.0000
     32 O2          0.6154   -1.0226   -1.0691 O.2       1 <0>         0.0000
     33 O3          0.5290    1.5242   -0.8211 O.2       1 <0>         0.0000
     34 O4         -1.6813   -5.8983    3.4373 O.3       1 <0>         0.0000
     35 F1          9.2595   -7.6055    2.4487 F         1 <0>         0.0000
     36 F2         10.2627   -5.9755    3.4979 F         1 <0>         0.0000
     37 F3          8.6197   -7.0328    4.4550 F         1 <0>         0.0000
     38 S1          0.9643    0.2073   -0.3600 S.o2      1 <0>         0.0000
     39 H1          6.0663   -5.0531   -0.0119 H         1 <0>         0.0000
     40 H2          6.6759   -2.5536    3.4386 H         1 <0>         0.0000
     41 H3          3.9299   -4.1671    0.3064 H         1 <0>         0.0000
     42 H4         -0.4225    1.8765    4.0404 H         1 <0>         0.0000
     43 H5          7.6494   -6.7080    0.9081 H         1 <0>         0.0000
     44 H6          8.2926   -4.1869    4.3352 H         1 <0>         0.0000
     45 H7          2.3250   -2.5343   -0.6333 H         1 <0>         0.0000
     46 H8          0.0464    2.1261    1.6048 H         1 <0>         0.0000
     47 H9          6.4315   -0.9575    1.7204 H         1 <0>         0.0000
     48 H10         0.8427   -2.0892    1.3632 H         1 <0>         0.0000
     49 H11         0.6090    0.0523    6.0933 H         1 <0>         0.0000
     50 H12        -1.1062    0.3284    5.8614 H         1 <0>         0.0000
     51 H13        -0.5111   -1.8006    7.1564 H         1 <0>         0.0000
     52 H14        -1.5620   -2.0695    5.7774 H         1 <0>         0.0000
     53 H15         1.4890   -2.3941    5.7508 H         1 <0>         0.0000
     54 H16         0.3675   -3.7372    5.8677 H         1 <0>         0.0000
     55 H17         2.6745    1.7316    1.2468 H         1 <0>         0.0000
     56 H18         3.1544    2.3530   -0.3499 H         1 <0>         0.0000
     57 H19         1.3023   -3.2520    3.5495 H         1 <0>         0.0000
     58 H20         5.0848    2.8664    1.9318 H         1 <0>         0.0000
     59 H21         6.1669    1.5056    2.2423 H         1 <0>         0.0000
     60 H22         4.4955    1.4525    2.8309 H         1 <0>         0.0000
     61 H23         5.6825    2.6223   -0.5616 H         1 <0>         0.0000
     62 H24         5.3063    1.1114   -1.4161 H         1 <0>         0.0000
     63 H25         6.6572    1.1673   -0.2719 H         1 <0>         0.0000
     64 H26        -1.7227   -3.3035    3.9204 H         1 <0>         0.0000
     65 H27        -0.9404   -3.4838    2.3651 H         1 <0>         0.0000
     66 H28        -2.4315   -5.3429    3.1640 H         1 <0>         0.0000
@<TRIPOS>BOND
     1    1    5 ar
     2    1   11 ar
     3    1   39 1
     4    2    6 ar
     5    2   11 ar
     6    2   40 1
     7    3    7 ar
     8    3   12 ar
     9    3   41 1
    10    4    8 ar
    11    4   13 ar
    12    4   42 1
    13    5   16 ar
    14    5   43 1
    15    6   16 ar
    16    6   44 1
    17    7   17 ar
    18    7   45 1
    19    8   18 ar
    20    8   46 1
    21    9   12 ar
    22    9   14 ar
    23    9   47 1
    24   10   15 ar
    25   10   18 ar
    26   10   48 1
    27   11   12 1
    28   13   15 ar
    29   13   20 1
    30   14   17 ar
    31   14   25 1
    32   15   24 1
    33   16   29 1
    34   17   30 1
    35   18   38 1
    36   19   28 1
    37   19   31 2
    38   19   34 1
    39   20   21 1
    40   20   49 1
    41   20   50 1
    42   21   22 1
    43   21   51 1
    44   21   52 1
    45   22   24 1
    46   22   53 1
    47   22   54 1
    48   23   25 1
    49   23   30 1
    50   23   55 1
    51   23   56 1
    52   24   28 1
    53   24   57 1
    54   25   26 1
    55   25   27 1
    56   26   58 1
    57   26   59 1
    58   26   60 1
    59   27   61 1
    60   27   62 1
    61   27   63 1
    62   28   64 1
    63   28   65 1
    64   29   35 1
    65   29   36 1
    66   29   37 1
    67   30   38 1
    68   32   38 2
    69   33   38 2
    70   34   66 1
