@<TRIPOS>MOLECULE
*****
   20    20     0     0     0
SMALL
NO_CHARGES

@<TRIPOS>ATOM
      1 C1          4.7015   -5.1140   -0.9998 C.1       1 <0>         0.0000
      2 C2          1.6775   -1.2349   -0.0627 C.ar      1 <0>         0.0000
      3 C3          0.7112   -0.4583    0.5903 C.ar      1 <0>         0.0000
      4 C4          1.8324   -0.8442    2.7071 C.ar      1 <0>         0.0000
      5 C5          2.7244   -1.8236    0.6534 C.ar      1 <0>         0.0000
      6 C6          2.7767   -1.6082    2.0415 C.ar      1 <0>         0.0000
      7 C7          0.7940   -0.2690    1.9662 C.ar      1 <0>         0.0000
      8 C8          4.8623   -3.7771   -1.5879 C.3       1 <0>         0.0000
      9 C9          3.6862   -2.8522   -1.2741 C.3       1 <0>         0.0000
     10 N1          4.5593   -6.1778   -0.5539 N.1       1 <0>         0.0000
     11 O1          3.7179   -2.5960    0.1247 O.3       1 <0>         0.0000
     12 F1          3.7855   -2.1667    2.7425 F         1 <0>         0.0000
     13 Cl1        -0.4116    0.7008    2.7923 Cl        1 <0>         0.0000
     14 H1          1.5975   -1.3711   -1.1350 H         1 <0>         0.0000
     15 H2         -0.0972   -0.0079    0.0243 H         1 <0>         0.0000
     16 H3          1.9134   -0.7077    3.7802 H         1 <0>         0.0000
     17 H4          5.7888   -3.3324   -1.2127 H         1 <0>         0.0000
     18 H5          4.9572   -3.8843   -2.6734 H         1 <0>         0.0000
     19 H6          2.7388   -3.3243   -1.5600 H         1 <0>         0.0000
     20 H7          3.8022   -1.9167   -1.8368 H         1 <0>         0.0000
@<TRIPOS>BOND
     1    1    8 1
     2    1   10 3
     3    2    3 ar
     4    2    5 ar
     5    2   14 1
     6    3    7 ar
     7    3   15 1
     8    4    6 ar
     9    4    7 ar
    10    4   16 1
    11    5    6 ar
    12    5   11 1
    13    6   12 1
    14    7   13 1
    15    8    9 1
    16    8   17 1
    17    8   18 1
    18    9   11 1
    19    9   19 1
    20    9   20 1
