@<TRIPOS>MOLECULE
*****
   37    39     0     0     0
SMALL
NO_CHARGES

@<TRIPOS>ATOM
      1 C1          3.7035   -1.6987    1.7990 C.2       1 <0>         0.0000
      2 C2          2.6459   -2.5867    1.8052 C.2       1 <0>         0.0000
      3 C3          0.6840    6.4068   -0.8584 C.ar      1 <0>         0.0000
      4 C4          2.1978    0.1174    1.1188 C.2       1 <0>         0.0000
      5 C5          3.4521   -0.3510    1.4255 C.2       1 <0>         0.0000
      6 C6         -0.1955   -0.6507    0.8110 C.2       1 <0>         0.0000
      7 C7          1.5158    5.3349   -0.5127 C.ar      1 <0>         0.0000
      8 C8         -0.6934    6.1639   -0.9452 C.ar      1 <0>         0.0000
      9 C9         -0.7496   -1.9251    1.0143 C.2       1 <0>         0.0000
     10 C10         1.3468   -2.1465    1.4707 C.2       1 <0>         0.0000
     11 C11        -0.3084    3.9913   -0.3718 C.ar      1 <0>         0.0000
     12 C12        -0.8317    0.5685    0.3974 C.2       1 <0>         0.0000
     13 C13         3.0100    5.4835   -0.4168 C.3       1 <0>         0.0000
     14 C14        -1.6767    7.2423   -1.3145 C.3       1 <0>         0.0000
     15 C15        -2.1776   -2.3441    0.8461 C.3       1 <0>         0.0000
     16 N1          0.1961   -2.8246    1.4004 N.2       1 <0>         0.0000
     17 N2          1.0199    4.1115   -0.2656 N.ar      1 <0>         0.0000
     18 N3         -1.1978    4.9480   -0.6999 N.ar      1 <0>         0.0000
     19 N4         -0.1828    1.6785    0.2560 N.2       1 <0>         0.0000
     20 N5          1.1594   -0.7940    1.1155 N.pl3     1 <0>         0.0000
     21 N6         -0.8900    2.7607   -0.1392 N.pl3     1 <0>         0.0000
     22 I1          4.9915    1.2164    2.1645 I         1 <0>         0.0000
     23 H1          4.7060   -2.0277    2.0493 H         1 <0>         0.0000
     24 H2          2.7805   -3.6317    2.0646 H         1 <0>         0.0000
     25 H3          1.0928    7.3921   -1.0567 H         1 <0>         0.0000
     26 H4          1.9464    1.1418    0.8741 H         1 <0>         0.0000
     27 H5         -1.9094    0.5014    0.2052 H         1 <0>         0.0000
     28 H6          3.3632    5.1013    0.5453 H         1 <0>         0.0000
     29 H7          3.4919    4.8842   -1.1962 H         1 <0>         0.0000
     30 H8          3.3223    6.5246   -0.5281 H         1 <0>         0.0000
     31 H9         -2.2228    6.9564   -2.2191 H         1 <0>         0.0000
     32 H10        -2.4155    7.3643   -0.5162 H         1 <0>         0.0000
     33 H11        -1.1809    8.2002   -1.4883 H         1 <0>         0.0000
     34 H12        -2.2408   -3.1883    0.1524 H         1 <0>         0.0000
     35 H13        -2.5904   -2.6791    1.8035 H         1 <0>         0.0000
     36 H14        -2.8061   -1.5360    0.4656 H         1 <0>         0.0000
     37 H15        -1.9017    2.7213   -0.2572 H         1 <0>         0.0000
@<TRIPOS>BOND
     1    1    2 2
     2    1    5 1
     3    1   23 1
     4    2   10 1
     5    2   24 1
     6    3    8 ar
     7    3    7 ar
     8    3   25 1
     9    4    5 2
    10    4   20 1
    11    4   26 1
    12    5   22 1
    13    6    9 2
    14    6   12 1
    15    6   20 1
    16    7   13 1
    17    7   17 ar
    18    8   14 1
    19    8   18 ar
    20    9   15 1
    21    9   16 1
    22   10   16 2
    23   10   20 1
    24   11   18 ar
    25   11   17 ar
    26   11   21 1
    27   12   19 2
    28   12   27 1
    29   13   28 1
    30   13   29 1
    31   13   30 1
    32   14   31 1
    33   14   32 1
    34   14   33 1
    35   15   34 1
    36   15   35 1
    37   15   36 1
    38   19   21 1
    39   21   37 1
