@<TRIPOS>MOLECULE
*****
   49    52     0     0     0
SMALL
NO_CHARGES

@<TRIPOS>ATOM
      1 C1          1.8722    5.3265   -2.0367 C.2       1 <0>         0.0000
      2 C2         -0.1221    3.9726   -2.2168 C.2       1 <0>         0.0000
      3 C3         -3.1980   -2.0754   -0.5305 C.2       1 <0>         0.0000
      4 C4         -3.3324    2.2079   -2.8775 C.3       1 <0>         0.0000
      5 C5         -3.6434   -0.2998   -2.3273 C.3       1 <0>         0.0000
      6 C6         -2.2592    3.2702   -3.1098 C.3       1 <0>         0.0000
      7 C7         -0.9626   -3.2156   -0.2971 C.3       1 <0>         0.0000
      8 C8         -2.8014   -3.7411    1.2151 C.3       1 <0>         0.0000
      9 C9         -0.1107   -2.8028    0.9045 C.3       1 <0>         0.0000
     10 C10        -1.9280   -3.3221    2.3977 C.3       1 <0>         0.0000
     11 C11        -1.1666    1.9257   -1.2762 C.3       1 <0>         0.0000
     12 C12        -2.6416   -1.2745   -1.7189 C.3       1 <0>         0.0000
     13 C13        -2.7460    0.7909   -2.9393 C.3       1 <0>         0.0000
     14 C14        -1.4285    0.6795   -2.1222 C.3       1 <0>         0.0000
     15 C15         3.1784    5.9834   -1.7167 C.3       1 <0>         0.0000
     16 C16         0.3325   -3.2138    3.2412 C.3       1 <0>         0.0000
     17 N1          1.0675    5.7089   -2.9777 N.2       1 <0>         0.0000
     18 N2         -0.0732    4.9509   -3.0953 N.2       1 <0>         0.0000
     19 N3         -1.1641    3.1027   -2.1376 N.pl3     1 <0>         0.0000
     20 N4         -2.3818   -3.0304    0.0059 N.am      1 <0>         0.0000
     21 N5         -0.5116   -3.5471    2.0999 N.3       1 <0>         0.0000
     22 O1         -4.3419   -1.8661   -0.1182 O.2       1 <0>         0.0000
     23 O2         -1.5563   -0.4499   -1.2481 O.3       1 <0>         0.0000
     24 S1          1.2799    3.9173   -1.1380 S.3       1 <0>         0.0000
     25 H1         -3.8100    2.3716   -1.9052 H         1 <0>         0.0000
     26 H2         -4.1156    2.3294   -3.6323 H         1 <0>         0.0000
     27 H3         -4.2951   -0.7798   -3.0610 H         1 <0>         0.0000
     28 H4         -4.2747    0.0996   -1.5304 H         1 <0>         0.0000
     29 H5         -1.8518    3.1979   -4.1263 H         1 <0>         0.0000
     30 H6         -2.6711    4.2791   -3.0092 H         1 <0>         0.0000
     31 H7         -0.6740   -2.6275   -1.1646 H         1 <0>         0.0000
     32 H8         -0.7925   -4.2773   -0.5146 H         1 <0>         0.0000
     33 H9         -2.6928   -4.8184    1.0417 H         1 <0>         0.0000
     34 H10        -3.8494   -3.5107    1.4018 H         1 <0>         0.0000
     35 H11         0.9414   -3.0231    0.6910 H         1 <0>         0.0000
     36 H12        -0.2071   -1.7099    1.0450 H         1 <0>         0.0000
     37 H13        -2.1317   -2.2601    2.6349 H         1 <0>         0.0000
     38 H14        -2.2006   -3.9173    3.2762 H         1 <0>         0.0000
     39 H15        -1.9316    2.0039   -0.4939 H         1 <0>         0.0000
     40 H16        -0.2023    1.8317   -0.7749 H         1 <0>         0.0000
     41 H17        -2.2655   -1.9665   -2.4887 H         1 <0>         0.0000
     42 H18        -2.5251    0.5506   -3.9850 H         1 <0>         0.0000
     43 H19        -0.5718    0.5219   -2.7908 H         1 <0>         0.0000
     44 H20         3.1972    6.3591   -0.6880 H         1 <0>         0.0000
     45 H21         4.0166    5.2884   -1.8356 H         1 <0>         0.0000
     46 H22         3.3177    6.8231   -2.4008 H         1 <0>         0.0000
     47 H23         1.3776   -3.4397    3.0058 H         1 <0>         0.0000
     48 H24         0.0407   -3.8200    4.1049 H         1 <0>         0.0000
     49 H25         0.2671   -2.1479    3.5305 H         1 <0>         0.0000
@<TRIPOS>BOND
     1    1   15 1
     2    1   17 2
     3    1   24 1
     4    2   18 2
     5    2   19 1
     6    2   24 1
     7    3   12 1
     8    3   20 am
     9    3   22 2
    10    4    6 1
    11    4   13 1
    12    4   25 1
    13    4   26 1
    14    5   12 1
    15    5   13 1
    16    5   27 1
    17    5   28 1
    18    6   19 1
    19    6   29 1
    20    6   30 1
    21    7    9 1
    22    7   20 1
    23    7   31 1
    24    7   32 1
    25    8   10 1
    26    8   20 1
    27    8   33 1
    28    8   34 1
    29    9   21 1
    30    9   35 1
    31    9   36 1
    32   10   21 1
    33   10   37 1
    34   10   38 1
    35   11   14 1
    36   11   19 1
    37   11   39 1
    38   11   40 1
    39   12   23 1
    40   12   41 1
    41   13   14 1
    42   13   42 1
    43   14   23 1
    44   14   43 1
    45   15   44 1
    46   15   45 1
    47   15   46 1
    48   16   21 1
    49   16   47 1
    50   16   48 1
    51   16   49 1
    52   17   18 1
