@<TRIPOS>MOLECULE
*****
   31    33     0     0     0
SMALL
NO_CHARGES

@<TRIPOS>ATOM
      1 C1          9.0555    3.7530   -1.8190 C.ar      1 <0>         0.0000
      2 C2          8.5839    4.9669   -1.2630 C.ar      1 <0>         0.0000
      3 C3          8.7024    2.5436   -1.2498 C.ar      1 <0>         0.0000
      4 C4          9.2215   -0.1166    2.7193 C.ar      1 <0>         0.0000
      5 C5          7.7800    4.9586   -0.1400 C.ar      1 <0>         0.0000
      6 C6          9.8816    0.3309    3.8570 C.ar      1 <0>         0.0000
      7 C7          7.6359   -1.2900    4.1136 C.ar      1 <0>         0.0000
      8 C8          6.3364    2.5866    2.1167 C.ar      1 <0>         0.0000
      9 C9          7.8614    2.5102   -0.1093 C.ar      1 <0>         0.0000
     10 C10         8.0785   -0.9288    2.8340 C.ar      1 <0>         0.0000
     11 C11         7.4069    3.7318    0.4661 C.ar      1 <0>         0.0000
     12 C12         9.4129   -0.0044    5.1333 C.ar      1 <0>         0.0000
     13 C13         8.2812   -0.8220    5.2589 C.ar      1 <0>         0.0000
     14 C14         7.4194    1.3130    0.5598 C.ar      1 <0>         0.0000
     15 C15         7.3522   -1.4958    1.6832 C.2       1 <0>         0.0000
     16 N1          6.6301    3.7573    1.5972 N.ar      1 <0>         0.0000
     17 N2          6.6886    1.3564    1.6577 N.ar      1 <0>         0.0000
     18 N3          7.2437   -1.1340    0.4522 N.2       1 <0>         0.0000
     19 N4          7.8099    0.0791    0.0435 N.pl3     1 <0>         0.0000
     20 Cl1        10.2604    0.6035    6.5299 Cl        1 <0>         0.0000
     21 Cl2         7.6579   -1.2821    6.8239 Cl        1 <0>         0.0000
     22 H1          9.7038    3.7742   -2.6906 H         1 <0>         0.0000
     23 H2          8.8674    5.9111   -1.7206 H         1 <0>         0.0000
     24 H3          9.0989    1.6249   -1.6735 H         1 <0>         0.0000
     25 H4          9.6014    0.1567    1.7425 H         1 <0>         0.0000
     26 H5          7.4180    5.8774    0.3114 H         1 <0>         0.0000
     27 H6         10.7659    0.9542    3.7702 H         1 <0>         0.0000
     28 H7          6.7659   -1.9300    4.2282 H         1 <0>         0.0000
     29 H8          5.7325    2.5839    3.0228 H         1 <0>         0.0000
     30 H9          6.8280   -2.4308    1.8852 H         1 <0>         0.0000
     31 H10         7.8657    0.0772   -0.9681 H         1 <0>         0.0000
@<TRIPOS>BOND
     1    1    2 ar
     2    1    3 ar
     3    1   22 1
     4    2    5 ar
     5    2   23 1
     6    3    9 ar
     7    3   24 1
     8    4    6 ar
     9    4   10 ar
    10    4   25 1
    11    5   11 ar
    12    5   26 1
    13    6   12 ar
    14    6   27 1
    15    7   10 ar
    16    7   13 ar
    17    7   28 1
    18    8   16 ar
    19    8   17 ar
    20    8   29 1
    21    9   11 ar
    22    9   14 ar
    23   10   15 1
    24   11   16 ar
    25   12   13 ar
    26   12   20 1
    27   13   21 1
    28   14   17 ar
    29   14   19 1
    30   15   18 2
    31   15   30 1
    32   18   19 1
    33   19   31 1
