@<TRIPOS>MOLECULE
*****
   42    45     0     0     0
SMALL
NO_CHARGES

@<TRIPOS>ATOM
      1 C1          6.1467   11.0713   -4.1297 C.ar      1 <0>         0.0000
      2 C2          6.7305    9.7868   -4.0075 C.ar      1 <0>         0.0000
      3 C3          3.8790   -0.8734    0.6032 C.ar      1 <0>         0.0000
      4 C4          2.9216   -0.2441    1.4071 C.ar      1 <0>         0.0000
      5 C5          4.8062   11.2379   -3.8553 C.ar      1 <0>         0.0000
      6 C6          5.9675    8.6995   -3.6301 C.ar      1 <0>         0.0000
      7 C7          2.6193   10.3120   -3.1609 C.ar      1 <0>         0.0000
      8 C8          4.5332   -0.1751   -0.4197 C.ar      1 <0>         0.0000
      9 C9          1.8500    9.2421   -2.7701 C.ar      1 <0>         0.0000
     10 C10         2.5987    1.1046    1.2014 C.ar      1 <0>         0.0000
     11 C11         3.9970   10.1377   -3.4621 C.ar      1 <0>         0.0000
     12 C12         4.5751    8.8303   -3.3602 C.ar      1 <0>         0.0000
     13 C13         3.7546    7.7124   -2.9634 C.ar      1 <0>         0.0000
     14 C14         4.2090    1.1689   -0.6222 C.ar      1 <0>         0.0000
     15 C15         2.4103    7.9440   -2.6674 C.ar      1 <0>         0.0000
     16 C16         3.2459    1.8030    0.1864 C.ar      1 <0>         0.0000
     17 C17         4.2499    3.3051   -1.5659 C.2       1 <0>         0.0000
     18 C18         4.3345    6.3644   -2.9719 C.2       1 <0>         0.0000
     19 C19         5.7601    1.5920   -2.5415 C.3       1 <0>         0.0000
     20 C20         1.3551    6.7205   -0.9491 C.3       1 <0>         0.0000
     21 N1          4.6386    4.2278   -2.3864 N.2       1 <0>         0.0000
     22 N2          3.9790    5.4274   -2.1601 N.2       1 <0>         0.0000
     23 N3          4.7496    2.0199   -1.5838 N.pl3     1 <0>         0.0000
     24 O1          1.5561    6.9134   -2.3552 O.3       1 <0>         0.0000
     25 S1          3.0243    3.4950   -0.2805 S.3       1 <0>         0.0000
     26 H1          6.7575   11.9191   -4.4283 H         1 <0>         0.0000
     27 H2          7.7916    9.6573   -4.2042 H         1 <0>         0.0000
     28 H3          4.1217   -1.9189    0.7710 H         1 <0>         0.0000
     29 H4          2.4237   -0.8006    2.1958 H         1 <0>         0.0000
     30 H5          4.3465   12.2208   -3.9316 H         1 <0>         0.0000
     31 H6          6.4517    7.7356   -3.5175 H         1 <0>         0.0000
     32 H7          2.1797   11.3028   -3.2493 H         1 <0>         0.0000
     33 H8          5.2745   -0.6700   -1.0390 H         1 <0>         0.0000
     34 H9          0.7907    9.3558   -2.5569 H         1 <0>         0.0000
     35 H10         1.8556    1.5960    1.8234 H         1 <0>         0.0000
     36 H11         5.1003    6.1463   -3.7210 H         1 <0>         0.0000
     37 H12         5.3777    0.7664   -3.1508 H         1 <0>         0.0000
     38 H13         6.6645    1.2648   -2.0177 H         1 <0>         0.0000
     39 H14         5.9986    2.4371   -3.1844 H         1 <0>         0.0000
     40 H15         0.6944    5.8573   -0.8517 H         1 <0>         0.0000
     41 H16         0.8807    7.6025   -0.4981 H         1 <0>         0.0000
     42 H17         2.3060    6.5091   -0.4520 H         1 <0>         0.0000
@<TRIPOS>BOND
     1    1    2 ar
     2    1    5 ar
     3    1   26 1
     4    2    6 ar
     5    2   27 1
     6    3    4 ar
     7    3    8 ar
     8    3   28 1
     9    4   10 ar
    10    4   29 1
    11    5   11 ar
    12    5   30 1
    13    6   12 ar
    14    6   31 1
    15    7    9 ar
    16    7   11 ar
    17    7   32 1
    18    8   14 ar
    19    8   33 1
    20    9   15 ar
    21    9   34 1
    22   10   16 ar
    23   10   35 1
    24   11   12 ar
    25   12   13 ar
    26   13   15 ar
    27   13   18 1
    28   14   16 ar
    29   14   23 1
    30   15   24 1
    31   16   25 1
    32   17   21 2
    33   17   23 1
    34   17   25 1
    35   18   22 2
    36   18   36 1
    37   19   23 1
    38   19   37 1
    39   19   38 1
    40   19   39 1
    41   20   24 1
    42   20   40 1
    43   20   41 1
    44   20   42 1
    45   21   22 1
