@<TRIPOS>MOLECULE
*****
   49    52     0     0     0
SMALL
NO_CHARGES

@<TRIPOS>ATOM
      1 C1         -1.1099    3.2098    2.5700 C.2       1 <0>         0.0000
      2 C2         -0.9131    2.3435    0.3269 C.2       1 <0>         0.0000
      3 C3         -2.5337   -0.5248   -0.0695 C.2       1 <0>         0.0000
      4 C4         -2.1053    1.8783   -3.1920 C.3       1 <0>         0.0000
      5 C5         -2.7269   -0.5891   -2.6308 C.3       1 <0>         0.0000
      6 C6         -2.1954    2.4208   -1.7625 C.3       1 <0>         0.0000
      7 C7         -2.3139   -0.2197    2.3444 C.3       1 <0>         0.0000
      8 C8         -0.6261   -1.5700    1.2266 C.3       1 <0>         0.0000
      9 C9         -2.5868   -1.3724    3.3083 C.3       1 <0>         0.0000
     10 C10        -0.9064   -2.7015    2.2169 C.3       1 <0>         0.0000
     11 C11         0.0741    1.3343   -1.6607 C.3       1 <0>         0.0000
     12 C12        -2.0286   -1.1644   -1.3908 C.3       1 <0>         0.0000
     13 C13        -1.7073    0.3957   -3.2565 C.3       1 <0>         0.0000
     14 C14        -0.3886    0.1290   -2.4799 C.3       1 <0>         0.0000
     15 C15        -1.4881    3.8268    3.8801 C.3       1 <0>         0.0000
     16 C16        -1.6005   -3.2521    4.4611 C.3       1 <0>         0.0000
     17 N1         -0.0105    2.5488    2.3633 N.2       1 <0>         0.0000
     18 N2          0.1215    2.0544    1.0897 N.2       1 <0>         0.0000
     19 N3         -1.0523    1.9568   -0.9690 N.pl3     1 <0>         0.0000
     20 N4         -1.8221   -0.7411    1.0672 N.am      1 <0>         0.0000
     21 N5         -1.3823   -2.1818    3.4973 N.3       1 <0>         0.0000
     22 O1         -3.5986    0.1117   -0.0700 O.2       1 <0>         0.0000
     23 O2         -0.6247   -1.0072   -1.6354 O.3       1 <0>         0.0000
     24 S1         -2.1560    3.2886    1.1492 S.3       1 <0>         0.0000
     25 H1         -3.0728    2.0306   -3.6806 H         1 <0>         0.0000
     26 H2         -1.3751    2.4640   -3.7626 H         1 <0>         0.0000
     27 H3         -2.9428   -1.3982   -3.3325 H         1 <0>         0.0000
     28 H4         -3.6680   -0.1127   -2.3575 H         1 <0>         0.0000
     29 H5         -2.2240    3.5202   -1.7860 H         1 <0>         0.0000
     30 H6         -3.1120    2.0660   -1.2807 H         1 <0>         0.0000
     31 H7         -3.2189    0.3546    2.1553 H         1 <0>         0.0000
     32 H8         -1.5463    0.4345    2.7699 H         1 <0>         0.0000
     33 H9          0.1794   -0.9307    1.6062 H         1 <0>         0.0000
     34 H10        -0.3070   -1.9732    0.2707 H         1 <0>         0.0000
     35 H11        -2.8906   -0.9642    4.2788 H         1 <0>         0.0000
     36 H12        -3.4293   -1.9789    2.9208 H         1 <0>         0.0000
     37 H13        -1.6403   -3.4007    1.7659 H         1 <0>         0.0000
     38 H14         0.0204   -3.2609    2.3873 H         1 <0>         0.0000
     39 H15         0.7959    1.0132   -0.9118 H         1 <0>         0.0000
     40 H16         0.5737    2.0626   -2.3175 H         1 <0>         0.0000
     41 H17        -2.2051   -2.2427   -1.3013 H         1 <0>         0.0000
     42 H18        -1.5613    0.1376   -4.3087 H         1 <0>         0.0000
     43 H19         0.4285   -0.1585   -3.1498 H         1 <0>         0.0000
     44 H20        -1.6358    4.9082    3.7887 H         1 <0>         0.0000
     45 H21        -2.4148    3.3945    4.2734 H         1 <0>         0.0000
     46 H22        -0.6826    3.6407    4.5937 H         1 <0>         0.0000
     47 H23        -1.9081   -2.8263    5.4218 H         1 <0>         0.0000
     48 H24        -0.6679   -3.8040    4.6181 H         1 <0>         0.0000
     49 H25        -2.3772   -3.9727    4.1398 H         1 <0>         0.0000
@<TRIPOS>BOND
     1    1   15 1
     2    1   17 2
     3    1   24 1
     4    2   18 2
     5    2   19 1
     6    2   24 1
     7    3   12 1
     8    3   20 am
     9    3   22 2
    10    4    6 1
    11    4   13 1
    12    4   25 1
    13    4   26 1
    14    5   12 1
    15    5   13 1
    16    5   27 1
    17    5   28 1
    18    6   19 1
    19    6   29 1
    20    6   30 1
    21    7    9 1
    22    7   20 1
    23    7   31 1
    24    7   32 1
    25    8   10 1
    26    8   20 1
    27    8   33 1
    28    8   34 1
    29    9   21 1
    30    9   35 1
    31    9   36 1
    32   10   21 1
    33   10   37 1
    34   10   38 1
    35   11   14 1
    36   11   19 1
    37   11   39 1
    38   11   40 1
    39   12   23 1
    40   12   41 1
    41   13   14 1
    42   13   42 1
    43   14   23 1
    44   14   43 1
    45   15   44 1
    46   15   45 1
    47   15   46 1
    48   16   21 1
    49   16   47 1
    50   16   48 1
    51   16   49 1
    52   17   18 1
