@<TRIPOS>MOLECULE
*****
   49    52     0     0     0
SMALL
NO_CHARGES

@<TRIPOS>ATOM
      1 C1          0.2907   -6.5297   -0.4272 C.2       1 <0>         0.0000
      2 C2          0.2909   -4.2350    0.3376 C.2       1 <0>         0.0000
      3 C3         -2.2145   -2.2347    3.5972 C.2       1 <0>         0.0000
      4 C4          0.7232   -0.8722    1.8706 C.3       1 <0>         0.0000
      5 C5         -1.6355    0.0381    2.5655 C.3       1 <0>         0.0000
      6 C6          0.6725   -2.3990    1.8587 C.3       1 <0>         0.0000
      7 C7         -3.8056   -3.8764    2.5226 C.3       1 <0>         0.0000
      8 C8         -2.4534   -4.5139    4.4544 C.3       1 <0>         0.0000
      9 C9         -3.2985   -5.1130    1.7807 C.3       1 <0>         0.0000
     10 C10        -1.9698   -5.7415    3.6832 C.3       1 <0>         0.0000
     11 C11        -0.5191   -2.0116   -0.3436 C.3       1 <0>         0.0000
     12 C12        -2.5430   -1.1970    2.4970 C.3       1 <0>         0.0000
     13 C13        -0.5904   -0.1770    1.4532 C.3       1 <0>         0.0000
     14 C14        -1.3768   -1.0217    0.4364 C.3       1 <0>         0.0000
     15 C15         0.1475   -7.8473   -1.1220 C.3       1 <0>         0.0000
     16 C16        -2.5953   -7.4110    2.0461 C.3       1 <0>         0.0000
     17 N1          0.7613   -6.3802    0.7718 N.2       1 <0>         0.0000
     18 N2          0.7689   -5.0838    1.2251 N.2       1 <0>         0.0000
     19 N3          0.2201   -2.8972    0.5475 N.pl3     1 <0>         0.0000
     20 N4         -2.8208   -3.4485    3.5169 N.am      1 <0>         0.0000
     21 N5         -2.9945   -6.1841    2.7297 N.3       1 <0>         0.0000
     22 O1         -1.4285   -1.9418    4.5077 O.2       1 <0>         0.0000
     23 O2         -2.3523   -1.7658    1.1838 O.3       1 <0>         0.0000
     24 S1         -0.2150   -5.0065   -1.1744 S.3       1 <0>         0.0000
     25 H1          1.0162   -0.5519    2.8742 H         1 <0>         0.0000
     26 H2          1.5193   -0.5494    1.1892 H         1 <0>         0.0000
     27 H3         -2.2238    0.9345    2.3474 H         1 <0>         0.0000
     28 H4         -1.1923    0.1425    3.5555 H         1 <0>         0.0000
     29 H5          1.6676   -2.8090    2.0506 H         1 <0>         0.0000
     30 H6          0.0217   -2.7842    2.6458 H         1 <0>         0.0000
     31 H7         -4.0101   -3.0801    1.8128 H         1 <0>         0.0000
     32 H8         -4.7343   -4.1325    3.0495 H         1 <0>         0.0000
     33 H9         -3.3348   -4.7753    5.0537 H         1 <0>         0.0000
     34 H10        -1.6762   -4.1329    5.1153 H         1 <0>         0.0000
     35 H11        -4.0797   -5.4612    1.0952 H         1 <0>         0.0000
     36 H12        -2.4187   -4.8294    1.1756 H         1 <0>         0.0000
     37 H13        -1.0167   -5.5066    3.1794 H         1 <0>         0.0000
     38 H14        -1.7818   -6.5540    4.3939 H         1 <0>         0.0000
     39 H15        -1.1769   -2.6086   -0.9799 H         1 <0>         0.0000
     40 H16         0.1585   -1.4516   -1.0048 H         1 <0>         0.0000
     41 H17        -3.5993   -0.9160    2.5945 H         1 <0>         0.0000
     42 H18        -0.3339    0.7881    1.0067 H         1 <0>         0.0000
     43 H19        -1.8988   -0.3762   -0.2841 H         1 <0>         0.0000
     44 H20        -0.9018   -8.0674   -1.3472 H         1 <0>         0.0000
     45 H21         0.7055   -7.8693   -2.0641 H         1 <0>         0.0000
     46 H22         0.5362   -8.6269   -0.4635 H         1 <0>         0.0000
     47 H23        -3.3984   -7.7309    1.3731 H         1 <0>         0.0000
     48 H24        -2.4370   -8.2044    2.7841 H         1 <0>         0.0000
     49 H25        -1.6671   -7.2989    1.4617 H         1 <0>         0.0000
@<TRIPOS>BOND
     1    1   15 1
     2    1   17 2
     3    1   24 1
     4    2   18 2
     5    2   19 1
     6    2   24 1
     7    3   12 1
     8    3   20 am
     9    3   22 2
    10    4    6 1
    11    4   13 1
    12    4   25 1
    13    4   26 1
    14    5   12 1
    15    5   13 1
    16    5   27 1
    17    5   28 1
    18    6   19 1
    19    6   29 1
    20    6   30 1
    21    7    9 1
    22    7   20 1
    23    7   31 1
    24    7   32 1
    25    8   10 1
    26    8   20 1
    27    8   33 1
    28    8   34 1
    29    9   21 1
    30    9   35 1
    31    9   36 1
    32   10   21 1
    33   10   37 1
    34   10   38 1
    35   11   14 1
    36   11   19 1
    37   11   39 1
    38   11   40 1
    39   12   23 1
    40   12   41 1
    41   13   14 1
    42   13   42 1
    43   14   23 1
    44   14   43 1
    45   15   44 1
    46   15   45 1
    47   15   46 1
    48   16   21 1
    49   16   47 1
    50   16   48 1
    51   16   49 1
    52   17   18 1
