@<TRIPOS>MOLECULE
*****
   44    47     0     0     0
SMALL
NO_CHARGES

@<TRIPOS>ATOM
      1 C1         -2.2573    2.3825    0.4068 C.ar      1 <0>         0.0000
      2 C2         -2.8627    1.6776    2.6330 C.ar      1 <0>         0.0000
      3 C3         -3.5358    2.0687   -0.0536 C.ar      1 <0>         0.0000
      4 C4         -4.1530    1.3635    2.1927 C.ar      1 <0>         0.0000
      5 C5         -1.8996    2.1843    1.7519 C.ar      1 <0>         0.0000
      6 C6         -4.4632    1.5603    0.8526 C.ar      1 <0>         0.0000
      7 C7          1.3590   -2.5462    0.3918 C.2       1 <0>         0.0000
      8 C8          0.5756    1.8683    1.2843 C.2       1 <0>         0.0000
      9 C9         -1.0637   -1.5274   -0.6876 C.3       1 <0>         0.0000
     10 C10         0.2271   -0.8143   -1.1165 C.3       1 <0>         0.0000
     11 C11        -1.5236   -1.2838    0.7562 C.3       1 <0>         0.0000
     12 C12        -0.1833    3.9127    2.6248 C.3       1 <0>         0.0000
     13 C13        -0.1330    2.7785    3.6197 C.3       1 <0>         0.0000
     14 C14         1.9262   -0.0687    0.6741 C.3       1 <0>         0.0000
     15 C15         0.2046   -0.3313    2.4347 C.3       1 <0>         0.0000
     16 C16         1.4935   -1.1883   -0.2944 C.3       1 <0>         0.0000
     17 C17        -0.4733   -1.5912    1.8565 C.3       1 <0>         0.0000
     18 C18        -0.4926    2.5019    2.1727 C.3       1 <0>         0.0000
     19 N1          0.5024   -2.6140    1.4632 N.am      1 <0>         0.0000
     20 N2          0.8350    0.5280    1.4443 N.am      1 <0>         0.0000
     21 O1          1.9970   -3.5319    0.0232 O.2       1 <0>         0.0000
     22 O2          1.1663    2.5503    0.4428 O.2       1 <0>         0.0000
     23 F1         -5.7096    1.2479    0.4126 F         1 <0>         0.0000
     24 H1         -1.5179    2.7777   -0.2844 H         1 <0>         0.0000
     25 H2         -2.6105    1.5073    3.6756 H         1 <0>         0.0000
     26 H3         -3.8185    2.2125   -1.0920 H         1 <0>         0.0000
     27 H4         -4.9048    0.9669    2.8681 H         1 <0>         0.0000
     28 H5         -1.8737   -1.2090   -1.3537 H         1 <0>         0.0000
     29 H6         -0.9446   -2.6047   -0.8517 H         1 <0>         0.0000
     30 H7          0.4120   -1.0652   -2.1654 H         1 <0>         0.0000
     31 H8          0.0850    0.2703   -1.0751 H         1 <0>         0.0000
     32 H9         -1.8529   -0.2498    0.8654 H         1 <0>         0.0000
     33 H10        -2.4066   -1.9068    0.9348 H         1 <0>         0.0000
     34 H11        -1.0228    4.5980    2.6847 H         1 <0>         0.0000
     35 H12         0.7479    4.3454    2.2752 H         1 <0>         0.0000
     36 H13         0.8433    2.4449    3.9601 H         1 <0>         0.0000
     37 H14        -0.9115    2.7195    4.3746 H         1 <0>         0.0000
     38 H15         2.6815   -0.4521    1.3731 H         1 <0>         0.0000
     39 H16         2.3754    0.7382    0.0973 H         1 <0>         0.0000
     40 H17        -0.5492    0.2395    2.9699 H         1 <0>         0.0000
     41 H18         0.9592   -0.6575    3.1639 H         1 <0>         0.0000
     42 H19         2.3313   -1.3305   -0.9801 H         1 <0>         0.0000
     43 H20        -0.9974   -2.0249    2.7135 H         1 <0>         0.0000
     44 H21         0.3813   -3.5544    1.8218 H         1 <0>         0.0000
@<TRIPOS>BOND
     1    1    3 ar
     2    1    5 ar
     3    1   24 1
     4    2    4 ar
     5    2    5 ar
     6    2   25 1
     7    3    6 ar
     8    3   26 1
     9    4    6 ar
    10    4   27 1
    11    5   18 1
    12    6   23 1
    13    7   16 1
    14    7   19 am
    15    7   21 2
    16    8   18 1
    17    8   20 am
    18    8   22 2
    19    9   10 1
    20    9   11 1
    21    9   28 1
    22    9   29 1
    23   10   16 1
    24   10   30 1
    25   10   31 1
    26   11   17 1
    27   11   32 1
    28   11   33 1
    29   12   13 1
    30   12   18 1
    31   12   34 1
    32   12   35 1
    33   13   18 1
    34   13   36 1
    35   13   37 1
    36   14   16 1
    37   14   20 1
    38   14   38 1
    39   14   39 1
    40   15   17 1
    41   15   20 1
    42   15   40 1
    43   15   41 1
    44   16   42 1
    45   17   19 1
    46   17   43 1
    47   19   44 1
