@<TRIPOS>MOLECULE
*****
   49    52     0     0     0
SMALL
NO_CHARGES

@<TRIPOS>ATOM
      1 C1          3.3470   -3.7523   -0.8704 C.2       1 <0>         0.0000
      2 C2          1.9131   -5.2465    0.3628 C.2       1 <0>         0.0000
      3 C3          0.0859   -3.4828    2.5705 C.2       1 <0>         0.0000
      4 C4         -0.4716   -7.7767    1.7102 C.3       1 <0>         0.0000
      5 C5         -1.4543   -5.5881    2.6958 C.3       1 <0>         0.0000
      6 C6          0.2660   -6.9885    0.6221 C.3       1 <0>         0.0000
      7 C7         -2.1286   -2.6486    1.7015 C.3       1 <0>         0.0000
      8 C8         -0.0098   -1.9155    0.6917 C.3       1 <0>         0.0000
      9 C9         -2.7125   -2.8259    0.2884 C.3       1 <0>         0.0000
     10 C10        -0.6405   -2.1214   -0.6937 C.3       1 <0>         0.0000
     11 C11         1.7553   -6.3849    2.5566 C.3       1 <0>         0.0000
     12 C12        -0.6353   -4.5187    3.4703 C.3       1 <0>         0.0000
     13 C13        -0.7154   -6.9231    2.9580 C.3       1 <0>         0.0000
     14 C14         0.6157   -6.4762    3.5948 C.3       1 <0>         0.0000
     15 C15         4.3820   -2.8046   -1.3925 C.3       1 <0>         0.0000
     16 C16        -2.5373   -0.5649   -0.6279 C.3       1 <0>         0.0000
     17 N1          2.2652   -4.0764   -1.5144 N.2       1 <0>         0.0000
     18 N2          1.4451   -4.9404   -0.8297 N.2       1 <0>         0.0000
     19 N3          1.2490   -6.0730    1.2231 N.pl3     1 <0>         0.0000
     20 N4         -0.6733   -2.7957    1.6623 N.am      1 <0>         0.0000
     21 N5         -2.0999   -1.9554   -0.7126 N.3       1 <0>         0.0000
     22 O1          1.3024   -3.3236    2.6614 O.2       1 <0>         0.0000
     23 O2          0.3219   -5.2364    4.2408 O.3       1 <0>         0.0000
     24 S1          3.4726   -4.5081    0.7154 S.3       1 <0>         0.0000
     25 H1         -1.4154   -8.1470    1.2970 H         1 <0>         0.0000
     26 H2          0.1080   -8.6617    1.9981 H         1 <0>         0.0000
     27 H3         -2.4839   -5.6367    3.0598 H         1 <0>         0.0000
     28 H4         -1.4930   -5.3564    1.6315 H         1 <0>         0.0000
     29 H5          0.7647   -7.6680   -0.0824 H         1 <0>         0.0000
     30 H6         -0.4289   -6.3900    0.0296 H         1 <0>         0.0000
     31 H7         -2.3752   -1.6493    2.0893 H         1 <0>         0.0000
     32 H8         -2.5730   -3.3727    2.3826 H         1 <0>         0.0000
     33 H9          1.0490   -2.1700    0.6755 H         1 <0>         0.0000
     34 H10        -0.0980   -0.8710    1.0227 H         1 <0>         0.0000
     35 H11        -2.5532   -3.8653   -0.0255 H         1 <0>         0.0000
     36 H12        -3.7929   -2.6455    0.3109 H         1 <0>         0.0000
     37 H13        -0.1934   -1.4241   -1.4090 H         1 <0>         0.0000
     38 H14        -0.4023   -3.1348   -1.0315 H         1 <0>         0.0000
     39 H15         2.4262   -5.5896    2.8801 H         1 <0>         0.0000
     40 H16         2.3168   -7.3325    2.5460 H         1 <0>         0.0000
     41 H17        -1.2600   -3.9737    4.1868 H         1 <0>         0.0000
     42 H18        -1.2738   -7.5054    3.6960 H         1 <0>         0.0000
     43 H19         0.9399   -7.1536    4.3903 H         1 <0>         0.0000
     44 H20         4.4898   -1.9323   -0.7389 H         1 <0>         0.0000
     45 H21         5.3629   -3.2849   -1.4740 H         1 <0>         0.0000
     46 H22         4.0725   -2.4673   -2.3841 H         1 <0>         0.0000
     47 H23        -3.6271   -0.5224   -0.7298 H         1 <0>         0.0000
     48 H24        -2.1019   -0.0036   -1.4608 H         1 <0>         0.0000
     49 H25        -2.2667   -0.0403    0.3052 H         1 <0>         0.0000
@<TRIPOS>BOND
     1    1   15 1
     2    1   17 2
     3    1   24 1
     4    2   18 2
     5    2   19 1
     6    2   24 1
     7    3   12 1
     8    3   20 am
     9    3   22 2
    10    4    6 1
    11    4   13 1
    12    4   25 1
    13    4   26 1
    14    5   12 1
    15    5   13 1
    16    5   27 1
    17    5   28 1
    18    6   19 1
    19    6   29 1
    20    6   30 1
    21    7    9 1
    22    7   20 1
    23    7   31 1
    24    7   32 1
    25    8   10 1
    26    8   20 1
    27    8   33 1
    28    8   34 1
    29    9   21 1
    30    9   35 1
    31    9   36 1
    32   10   21 1
    33   10   37 1
    34   10   38 1
    35   11   14 1
    36   11   19 1
    37   11   39 1
    38   11   40 1
    39   12   23 1
    40   12   41 1
    41   13   14 1
    42   13   42 1
    43   14   23 1
    44   14   43 1
    45   15   44 1
    46   15   45 1
    47   15   46 1
    48   16   21 1
    49   16   47 1
    50   16   48 1
    51   16   49 1
    52   17   18 1
