@<TRIPOS>MOLECULE
*****
   49    52     0     0     0
SMALL
NO_CHARGES

@<TRIPOS>ATOM
      1 C1         -4.2425    5.4960   -2.8106 C.2       1 <0>         0.0000
      2 C2         -4.1553    3.1174   -2.3854 C.2       1 <0>         0.0000
      3 C3         -2.3090   -0.7477    1.2899 C.2       1 <0>         0.0000
      4 C4         -4.6640   -0.4573   -1.5282 C.3       1 <0>         0.0000
      5 C5         -2.7629   -2.0833   -0.8528 C.3       1 <0>         0.0000
      6 C6         -4.9533    0.8258   -2.3050 C.3       1 <0>         0.0000
      7 C7         -0.0466    0.2413    1.8278 C.3       1 <0>         0.0000
      8 C8         -1.9808    0.6932    3.2389 C.3       1 <0>         0.0000
      9 C9          0.1395    1.7451    1.6201 C.3       1 <0>         0.0000
     10 C10        -1.7819    2.1908    3.0064 C.3       1 <0>         0.0000
     11 C11        -2.7641    1.4425   -1.2182 C.3       1 <0>         0.0000
     12 C12        -1.7133   -1.3708    0.0047 C.3       1 <0>         0.0000
     13 C13        -3.2606   -0.9982   -1.8379 C.3       1 <0>         0.0000
     14 C14        -2.1858    0.1174   -1.7346 C.3       1 <0>         0.0000
     15 C15        -4.0478    6.9745   -2.9384 C.3       1 <0>         0.0000
     16 C16        -0.1586    3.9295    2.5968 C.3       1 <0>         0.0000
     17 N1         -5.2386    4.8395   -3.3170 N.2       1 <0>         0.0000
     18 N2         -5.2084    3.4856   -3.0826 N.2       1 <0>         0.0000
     19 N3         -3.9049    1.8282   -2.0367 N.pl3     1 <0>         0.0000
     20 N4         -1.4529   -0.0597    2.0992 N.am      1 <0>         0.0000
     21 N5         -0.3700    2.4967    2.7680 N.3       1 <0>         0.0000
     22 O1         -3.5109   -0.8723    1.5550 O.2       1 <0>         0.0000
     23 O2         -1.1569   -0.3552   -0.8505 O.3       1 <0>         0.0000
     24 S1         -3.0965    4.4644   -1.9355 S.3       1 <0>         0.0000
     25 H1         -4.7669   -0.2849   -0.4537 H         1 <0>         0.0000
     26 H2         -5.4167   -1.2043   -1.8002 H         1 <0>         0.0000
     27 H3         -2.2803   -2.9001   -1.3954 H         1 <0>         0.0000
     28 H4         -3.5694   -2.4918   -0.2434 H         1 <0>         0.0000
     29 H5         -4.9942    0.6324   -3.3845 H         1 <0>         0.0000
     30 H6         -5.9229    1.2472   -2.0232 H         1 <0>         0.0000
     31 H7          0.3033   -0.2922    0.9487 H         1 <0>         0.0000
     32 H8          0.5447   -0.0791    2.6946 H         1 <0>         0.0000
     33 H9         -1.4413    0.3865    4.1429 H         1 <0>         0.0000
     34 H10        -3.0362    0.4501    3.3521 H         1 <0>         0.0000
     35 H11         1.2077    1.9607    1.5059 H         1 <0>         0.0000
     36 H12        -0.3639    2.0374    0.6800 H         1 <0>         0.0000
     37 H13        -2.4173    2.5110    2.1576 H         1 <0>         0.0000
     38 H14        -2.1153    2.7410    3.8931 H         1 <0>         0.0000
     39 H15        -3.0414    1.3517   -0.1606 H         1 <0>         0.0000
     40 H16        -1.9897    2.2089   -1.2870 H         1 <0>         0.0000
     41 H17        -0.8888   -2.0367    0.2772 H         1 <0>         0.0000
     42 H18        -3.2611   -1.3946   -2.8579 H         1 <0>         0.0000
     43 H19        -1.7050    0.3017   -2.6995 H         1 <0>         0.0000
     44 H20        -4.0198    7.4623   -1.9581 H         1 <0>         0.0000
     45 H21        -3.1138    7.2126   -3.4587 H         1 <0>         0.0000
     46 H22        -4.8833    7.3829   -3.5109 H         1 <0>         0.0000
     47 H23         0.9098    4.1329    2.4716 H         1 <0>         0.0000
     48 H24        -0.5037    4.4627    3.4884 H         1 <0>         0.0000
     49 H25        -0.6934    4.3417    1.7200 H         1 <0>         0.0000
@<TRIPOS>BOND
     1    1   15 1
     2    1   17 2
     3    1   24 1
     4    2   18 2
     5    2   19 1
     6    2   24 1
     7    3   12 1
     8    3   20 am
     9    3   22 2
    10    4    6 1
    11    4   13 1
    12    4   25 1
    13    4   26 1
    14    5   12 1
    15    5   13 1
    16    5   27 1
    17    5   28 1
    18    6   19 1
    19    6   29 1
    20    6   30 1
    21    7    9 1
    22    7   20 1
    23    7   31 1
    24    7   32 1
    25    8   10 1
    26    8   20 1
    27    8   33 1
    28    8   34 1
    29    9   21 1
    30    9   35 1
    31    9   36 1
    32   10   21 1
    33   10   37 1
    34   10   38 1
    35   11   14 1
    36   11   19 1
    37   11   39 1
    38   11   40 1
    39   12   23 1
    40   12   41 1
    41   13   14 1
    42   13   42 1
    43   14   23 1
    44   14   43 1
    45   15   44 1
    46   15   45 1
    47   15   46 1
    48   16   21 1
    49   16   47 1
    50   16   48 1
    51   16   49 1
    52   17   18 1
