@<TRIPOS>MOLECULE
*****
   44    47     0     0     0
SMALL
NO_CHARGES

@<TRIPOS>ATOM
      1 C1          0.1392   -1.5269   -3.2692 C.ar      1 <0>         0.0000
      2 C2          2.1846   -0.2492   -3.2629 C.ar      1 <0>         0.0000
      3 C3          0.8619   -2.7094   -3.4261 C.ar      1 <0>         0.0000
      4 C4          2.9294   -1.4224   -3.4273 C.ar      1 <0>         0.0000
      5 C5          0.7868   -0.2829   -3.1827 C.ar      1 <0>         0.0000
      6 C6          2.2502   -2.6337   -3.5072 C.ar      1 <0>         0.0000
      7 C7         -0.4088   -1.8559    0.2018 C.2       1 <0>         0.0000
      8 C8         -1.0345    0.8445   -1.8185 C.2       1 <0>         0.0000
      9 C9          0.7785    0.0235    2.7248 C.3       1 <0>         0.0000
     10 C10        -0.4414   -0.8948    2.5845 C.3       1 <0>         0.0000
     11 C11         1.9502   -0.2901    1.7889 C.3       1 <0>         0.0000
     12 C12         0.4457    2.3310   -3.3606 C.3       1 <0>         0.0000
     13 C13        -0.5971    1.6478   -4.2094 C.3       1 <0>         0.0000
     14 C14        -1.4029    0.4533    0.5633 C.3       1 <0>         0.0000
     15 C15         0.9051    0.9444   -0.2410 C.3       1 <0>         0.0000
     16 C16        -1.1250   -0.9423    1.1985 C.3       1 <0>         0.0000
     17 C17         1.6147   -0.3497    0.2875 C.3       1 <0>         0.0000
     18 C18        -0.0543    0.9469   -2.9839 C.3       1 <0>         0.0000
     19 N1          0.9022   -1.5704   -0.0748 N.am      1 <0>         0.0000
     20 N2         -0.5053    0.7774   -0.5479 N.am      1 <0>         0.0000
     21 O1         -0.9753   -2.8179   -0.3174 O.2       1 <0>         0.0000
     22 O2         -2.2483    0.7971   -2.0207 O.2       1 <0>         0.0000
     23 F1          2.9663   -3.7778   -3.6616 F         1 <0>         0.0000
     24 H1         -0.9419   -1.5752   -3.1796 H         1 <0>         0.0000
     25 H2          2.7116    0.6977   -3.1866 H         1 <0>         0.0000
     26 H3          0.3655   -3.6733   -3.4678 H         1 <0>         0.0000
     27 H4          4.0131   -1.4056   -3.4931 H         1 <0>         0.0000
     28 H5          0.4673    1.0651    2.5843 H         1 <0>         0.0000
     29 H6          1.1371   -0.0335    3.7590 H         1 <0>         0.0000
     30 H7         -0.1699   -1.9182    2.8708 H         1 <0>         0.0000
     31 H8         -1.1948   -0.5656    3.3104 H         1 <0>         0.0000
     32 H9          2.7255    0.4735    1.9320 H         1 <0>         0.0000
     33 H10         2.3996   -1.2515    2.0625 H         1 <0>         0.0000
     34 H11         1.4511    2.4311   -3.7593 H         1 <0>         0.0000
     35 H12         0.1277    3.1603   -2.7349 H         1 <0>         0.0000
     36 H13        -1.6240    1.9922   -4.1544 H         1 <0>         0.0000
     37 H14        -0.2839    1.2539   -5.1709 H         1 <0>         0.0000
     38 H15        -2.4098    0.4728    0.1522 H         1 <0>         0.0000
     39 H16        -1.3358    1.2415    1.3217 H         1 <0>         0.0000
     40 H17         1.0079    1.7407    0.5061 H         1 <0>         0.0000
     41 H18         1.4105    1.2935   -1.1357 H         1 <0>         0.0000
     42 H19        -2.0906   -1.4314    1.3383 H         1 <0>         0.0000
     43 H20         2.5689   -0.4204   -0.2399 H         1 <0>         0.0000
     44 H21         1.2837   -2.1292   -0.8296 H         1 <0>         0.0000
@<TRIPOS>BOND
     1    1    3 ar
     2    1    5 ar
     3    1   24 1
     4    2    4 ar
     5    2    5 ar
     6    2   25 1
     7    3    6 ar
     8    3   26 1
     9    4    6 ar
    10    4   27 1
    11    5   18 1
    12    6   23 1
    13    7   16 1
    14    7   19 am
    15    7   21 2
    16    8   18 1
    17    8   20 am
    18    8   22 2
    19    9   10 1
    20    9   11 1
    21    9   28 1
    22    9   29 1
    23   10   16 1
    24   10   30 1
    25   10   31 1
    26   11   17 1
    27   11   32 1
    28   11   33 1
    29   12   13 1
    30   12   18 1
    31   12   34 1
    32   12   35 1
    33   13   18 1
    34   13   36 1
    35   13   37 1
    36   14   16 1
    37   14   20 1
    38   14   38 1
    39   14   39 1
    40   15   17 1
    41   15   20 1
    42   15   40 1
    43   15   41 1
    44   16   42 1
    45   17   19 1
    46   17   43 1
    47   19   44 1
