@<TRIPOS>MOLECULE
*****
   49    52     0     0     0
SMALL
NO_CHARGES

@<TRIPOS>ATOM
      1 C1          5.2427    1.1893    1.1287 C.2       1 <0>         0.0000
      2 C2          3.3103    1.1133   -0.3180 C.2       1 <0>         0.0000
      3 C3         -2.6391   -0.0357    0.2909 C.2       1 <0>         0.0000
      4 C4          0.4657    1.8245   -2.5489 C.3       1 <0>         0.0000
      5 C5         -1.8194    0.7388   -1.9824 C.3       1 <0>         0.0000
      6 C6          1.9470    1.5648   -2.2752 C.3       1 <0>         0.0000
      7 C7         -4.5258    0.6815    1.6740 C.3       1 <0>         0.0000
      8 C8         -4.9654    0.1819   -0.6672 C.3       1 <0>         0.0000
      9 C9         -5.0427    2.1026    1.4537 C.3       1 <0>         0.0000
     10 C10        -5.4804    1.6108   -0.8616 C.3       1 <0>         0.0000
     11 C11         0.9809    0.2698   -0.3258 C.3       1 <0>         0.0000
     12 C12        -2.1125   -0.4913   -1.0838 C.3       1 <0>         0.0000
     13 C13        -0.3691    0.5327   -2.4669 C.3       1 <0>         0.0000
     14 C14         0.2091   -0.4538   -1.4343 C.3       1 <0>         0.0000
     15 C15         6.2753    1.0956    2.2086 C.3       1 <0>         0.0000
     16 C16        -6.6024    3.4629    0.2030 C.3       1 <0>         0.0000
     17 N1          5.4499    1.7085   -0.0415 N.2       1 <0>         0.0000
     18 N2          4.3616    1.6731   -0.8801 N.2       1 <0>         0.0000
     19 N3          2.1099    0.9754   -0.9378 N.pl3     1 <0>         0.0000
     20 N4         -3.9934    0.1354    0.4235 N.am      1 <0>         0.0000
     21 N5         -6.0430    2.1282    0.3834 N.3       1 <0>         0.0000
     22 O1         -1.8525    0.1801    1.2131 O.2       1 <0>         0.0000
     23 O2         -0.8905   -1.2042   -0.9280 O.3       1 <0>         0.0000
     24 S1          3.5945    0.5766    1.3433 S.3       1 <0>         0.0000
     25 H1          0.1016    2.5502   -1.8130 H         1 <0>         0.0000
     26 H2          0.3603    2.2933   -3.5321 H         1 <0>         0.0000
     27 H3         -2.5277    0.8158   -2.8111 H         1 <0>         0.0000
     28 H4         -1.8967    1.6613   -1.3997 H         1 <0>         0.0000
     29 H5          2.3780    0.9006   -3.0376 H         1 <0>         0.0000
     30 H6          2.5195    2.4942   -2.3092 H         1 <0>         0.0000
     31 H7         -3.7308    0.6666    2.4181 H         1 <0>         0.0000
     32 H8         -5.3488    0.0396    2.0098 H         1 <0>         0.0000
     33 H9         -5.8088   -0.4717   -0.4130 H         1 <0>         0.0000
     34 H10        -4.5291   -0.1801   -1.5962 H         1 <0>         0.0000
     35 H11        -5.5078    2.4659    2.3764 H         1 <0>         0.0000
     36 H12        -4.1862    2.7664    1.2264 H         1 <0>         0.0000
     37 H13        -4.6496    2.2455   -1.2307 H         1 <0>         0.0000
     38 H14        -6.2627    1.6097   -1.6290 H         1 <0>         0.0000
     39 H15         0.3205    0.9432    0.2319 H         1 <0>         0.0000
     40 H16         1.3496   -0.4766    0.3814 H         1 <0>         0.0000
     41 H17        -2.8118   -1.1864   -1.5567 H         1 <0>         0.0000
     42 H18        -0.3788    0.0368   -3.4430 H         1 <0>         0.0000
     43 H19         0.8880   -1.1715   -1.9063 H         1 <0>         0.0000
     44 H20         5.9596    1.6260    3.1134 H         1 <0>         0.0000
     45 H21         6.4749    0.0541    2.4832 H         1 <0>         0.0000
     46 H22         7.1998    1.5457    1.8408 H         1 <0>         0.0000
     47 H23        -7.0600    3.7992    1.1386 H         1 <0>         0.0000
     48 H24        -7.3818    3.4363   -0.5654 H         1 <0>         0.0000
     49 H25        -5.8453    4.2111   -0.0986 H         1 <0>         0.0000
@<TRIPOS>BOND
     1    1   15 1
     2    1   17 2
     3    1   24 1
     4    2   18 2
     5    2   19 1
     6    2   24 1
     7    3   12 1
     8    3   20 am
     9    3   22 2
    10    4    6 1
    11    4   13 1
    12    4   25 1
    13    4   26 1
    14    5   12 1
    15    5   13 1
    16    5   27 1
    17    5   28 1
    18    6   19 1
    19    6   29 1
    20    6   30 1
    21    7    9 1
    22    7   20 1
    23    7   31 1
    24    7   32 1
    25    8   10 1
    26    8   20 1
    27    8   33 1
    28    8   34 1
    29    9   21 1
    30    9   35 1
    31    9   36 1
    32   10   21 1
    33   10   37 1
    34   10   38 1
    35   11   14 1
    36   11   19 1
    37   11   39 1
    38   11   40 1
    39   12   23 1
    40   12   41 1
    41   13   14 1
    42   13   42 1
    43   14   23 1
    44   14   43 1
    45   15   44 1
    46   15   45 1
    47   15   46 1
    48   16   21 1
    49   16   47 1
    50   16   48 1
    51   16   49 1
    52   17   18 1
