@<TRIPOS>MOLECULE
*****
   50    52     0     0     0
SMALL
NO_CHARGES

@<TRIPOS>ATOM
      1 C1         -0.1698   -0.2279   -3.1270 C.2       1 <0>         0.0000
      2 C2         -3.6529    1.3324   -4.3971 C.2       1 <0>         0.0000
      3 C3          1.6617    3.7259   -3.5673 C.3       1 <0>         0.0000
      4 C4          2.5094    2.5303   -4.0216 C.3       1 <0>         0.0000
      5 C5          0.9355    3.4219   -2.2504 C.3       1 <0>         0.0000
      6 C6          1.6550    1.2608   -4.1676 C.3       1 <0>         0.0000
      7 C7          0.0621    2.1639   -2.3659 C.3       1 <0>         0.0000
      8 C8         -4.3427   -1.3830   -5.6386 C.3       1 <0>         0.0000
      9 C9         -4.8781   -0.7948   -6.9540 C.3       1 <0>         0.0000
     10 C10        -2.0999   -1.2623   -4.2088 C.3       1 <0>         0.0000
     11 C11        -1.3372    0.8456   -5.1760 C.3       1 <0>         0.0000
     12 C12        -3.3175    1.0791   -6.8913 C.3       1 <0>         0.0000
     13 C13        -2.9146   -0.8910   -5.4460 C.3       1 <0>         0.0000
     14 C14         0.8408    0.9219   -2.8897 C.3       1 <0>         0.0000
     15 C15        -2.8285    0.6453   -5.5059 C.3       1 <0>         0.0000
     16 C16         1.8140    0.4406   -1.7946 C.3       1 <0>         0.0000
     17 C17        -5.3141    1.2039   -8.2456 C.3       1 <0>         0.0000
     18 N1         -1.0943   -0.1727   -4.1439 N.am      1 <0>         0.0000
     19 N2         -4.7134    0.6667   -7.0303 N.3       1 <0>         0.0000
     20 O1         -0.1872   -1.2088   -2.3777 O.2       1 <0>         0.0000
     21 O2         -4.1839    0.7758   -3.4667 O.2       1 <0>         0.0000
     22 O3         -3.6942    2.6983   -4.4625 O.3       1 <0>         0.0000
     23 H1          0.9196    3.9606   -4.3450 H         1 <0>         0.0000
     24 H2          2.2902    4.6174   -3.4580 H         1 <0>         0.0000
     25 H3          2.9920    2.7499   -4.9815 H         1 <0>         0.0000
     26 H4          3.3193    2.3645   -3.3020 H         1 <0>         0.0000
     27 H5          1.6734    3.2978   -1.4493 H         1 <0>         0.0000
     28 H6          0.3047    4.2699   -1.9593 H         1 <0>         0.0000
     29 H7          0.9971    1.4071   -5.0260 H         1 <0>         0.0000
     30 H8          2.2918    0.4033   -4.4157 H         1 <0>         0.0000
     31 H9         -0.3751    1.9136   -1.3932 H         1 <0>         0.0000
     32 H10        -0.7851    2.3966   -3.0180 H         1 <0>         0.0000
     33 H11        -4.9698   -1.0769   -4.8000 H         1 <0>         0.0000
     34 H12        -4.3714   -2.4766   -5.7020 H         1 <0>         0.0000
     35 H13        -4.3660   -1.2843   -7.8068 H         1 <0>         0.0000
     36 H14        -5.9457   -1.0133   -7.0524 H         1 <0>         0.0000
     37 H15        -2.6957   -1.2693   -3.2944 H         1 <0>         0.0000
     38 H16        -1.6045   -2.2314   -4.3038 H         1 <0>         0.0000
     39 H17        -0.7389    0.6569   -6.0787 H         1 <0>         0.0000
     40 H18        -1.1060    1.8499   -4.8250 H         1 <0>         0.0000
     41 H19        -3.2629    2.1641   -7.0526 H         1 <0>         0.0000
     42 H20        -2.6606    0.6255   -7.6595 H         1 <0>         0.0000
     43 H21        -2.3371   -1.2340   -6.3176 H         1 <0>         0.0000
     44 H22         2.5532    1.2105   -1.5631 H         1 <0>         0.0000
     45 H23         2.3452   -0.4587   -2.1166 H         1 <0>         0.0000
     46 H24         1.2758    0.1903   -0.8788 H         1 <0>         0.0000
     47 H25        -5.2418    2.2963   -8.2439 H         1 <0>         0.0000
     48 H26        -6.3744    0.9375   -8.2794 H         1 <0>         0.0000
     49 H27        -4.8349    0.8260   -9.1683 H         1 <0>         0.0000
     50 H28        -3.2812    3.0072   -5.2854 H         1 <0>         0.0000
@<TRIPOS>BOND
     1    1   14 1
     2    1   18 am
     3    1   20 2
     4    2   15 1
     5    2   21 2
     6    2   22 1
     7    3    5 1
     8    3    4 1
     9    3   23 1
    10    3   24 1
    11    4    6 1
    12    4   25 1
    13    4   26 1
    14    5    7 1
    15    5   27 1
    16    5   28 1
    17    6   14 1
    18    6   29 1
    19    6   30 1
    20    7   14 1
    21    7   31 1
    22    7   32 1
    23    8    9 1
    24    8   13 1
    25    8   33 1
    26    8   34 1
    27    9   19 1
    28    9   35 1
    29    9   36 1
    30   10   13 1
    31   10   18 1
    32   10   37 1
    33   10   38 1
    34   11   15 1
    35   11   18 1
    36   11   39 1
    37   11   40 1
    38   12   15 1
    39   12   19 1
    40   12   41 1
    41   12   42 1
    42   13   15 1
    43   13   43 1
    44   14   16 1
    45   16   44 1
    46   16   45 1
    47   16   46 1
    48   17   19 1
    49   17   47 1
    50   17   48 1
    51   17   49 1
    52   22   50 1
