@<TRIPOS>MOLECULE
*****
   40    43     0     0     0
SMALL
NO_CHARGES

@<TRIPOS>ATOM
      1 C1          0.3875   -2.5637    0.1153 C.ar      1 <0>         0.0000
      2 C2          0.4345   -1.2903   -0.4609 C.ar      1 <0>         0.0000
      3 C3          1.5568   -3.3257    0.2233 C.ar      1 <0>         0.0000
      4 C4          1.6501   -0.7794   -0.9304 C.ar      1 <0>         0.0000
      5 C5          8.2167   -4.0408   -6.6366 C.ar      1 <0>         0.0000
      6 C6          7.4175   -3.9519   -5.4989 C.ar      1 <0>         0.0000
      7 C7          7.3896   -1.4984   -5.5652 C.ar      1 <0>         0.0000
      8 C8          2.7730   -2.8118   -0.2331 C.ar      1 <0>         0.0000
      9 C9          2.8191   -1.5347   -0.8145 C.ar      1 <0>         0.0000
     10 C10         8.6090   -2.8462   -7.2465 C.ar      1 <0>         0.0000
     11 C11         7.0025   -2.7069   -4.9601 C.ar      1 <0>         0.0000
     12 C12         8.1858   -1.6300   -6.6937 C.ar      1 <0>         0.0000
     13 C13         9.4139   -1.2868   -8.4668 C.2       1 <0>         0.0000
     14 C14         5.6242   -1.7150   -3.1032 C.2       1 <0>         0.0000
     15 C15         4.0813   -3.5562   -0.1673 C.3       1 <0>         0.0000
     16 C16         4.1658   -1.0343   -1.2749 C.3       1 <0>         0.0000
     17 C17         4.8113   -3.4752   -1.5159 C.3       1 <0>         0.0000
     18 C18        10.0942   -0.4370   -9.4799 C.3       1 <0>         0.0000
     19 N1          9.3919   -2.5805   -8.3790 N.2       1 <0>         0.0000
     20 N2          4.9103   -2.0897   -1.9817 N.am      1 <0>         0.0000
     21 N3          6.2017   -2.7693   -3.8000 N.am      1 <0>         0.0000
     22 O1          5.7376   -0.5367   -3.4512 O.2       1 <0>         0.0000
     23 O2          8.7034   -0.6215   -7.4786 O.3       1 <0>         0.0000
     24 H1         -0.5569   -2.9649    0.4738 H         1 <0>         0.0000
     25 H2         -0.4737   -0.7003   -0.5528 H         1 <0>         0.0000
     26 H3          1.5201   -4.3195    0.6649 H         1 <0>         0.0000
     27 H4          1.6863    0.2055   -1.3907 H         1 <0>         0.0000
     28 H5          8.5229   -5.0034   -7.0344 H         1 <0>         0.0000
     29 H6          7.0995   -4.8681   -5.0050 H         1 <0>         0.0000
     30 H7          7.0742   -0.5444   -5.1678 H         1 <0>         0.0000
     31 H8          4.7228   -3.1188    0.6090 H         1 <0>         0.0000
     32 H9          3.9332   -4.6080    0.0932 H         1 <0>         0.0000
     33 H10         4.0728   -0.1890   -1.9548 H         1 <0>         0.0000
     34 H11         4.7512   -0.6860   -0.4107 H         1 <0>         0.0000
     35 H12         5.8149   -3.9051   -1.4012 H         1 <0>         0.0000
     36 H13         4.2562   -4.0860   -2.2442 H         1 <0>         0.0000
     37 H14         9.3679    0.1847  -10.0135 H         1 <0>         0.0000
     38 H15        10.8159    0.2329   -9.0010 H         1 <0>         0.0000
     39 H16        10.6136   -1.0782  -10.1924 H         1 <0>         0.0000
     40 H17         5.9809   -3.7073   -3.5007 H         1 <0>         0.0000
@<TRIPOS>BOND
     1    1    2 ar
     2    1    3 ar
     3    1   24 1
     4    2    4 ar
     5    2   25 1
     6    3    8 ar
     7    3   26 1
     8    4    9 ar
     9    4   27 1
    10    5    6 ar
    11    5   10 ar
    12    5   28 1
    13    6   11 ar
    14    6   29 1
    15    7   11 ar
    16    7   12 ar
    17    7   30 1
    18    8    9 ar
    19    8   15 1
    20    9   16 1
    21   10   12 ar
    22   10   19 1
    23   11   21 1
    24   12   23 1
    25   13   18 1
    26   13   19 2
    27   13   23 1
    28   14   20 am
    29   14   21 am
    30   14   22 2
    31   15   17 1
    32   15   31 1
    33   15   32 1
    34   16   20 1
    35   16   33 1
    36   16   34 1
    37   17   20 1
    38   17   35 1
    39   17   36 1
    40   18   37 1
    41   18   38 1
    42   18   39 1
    43   21   40 1
