@<TRIPOS>MOLECULE
*****
   18    18     0     0     0
SMALL
NO_CHARGES

@<TRIPOS>ATOM
      1 C1          1.8965   -1.8200   -0.5440 C.ar      1 <0>         0.0000
      2 C2          0.6659   -1.7461    0.1077 C.ar      1 <0>         0.0000
      3 C3          3.0086   -2.2016    1.5766 C.ar      1 <0>         0.0000
      4 C4          3.0779   -2.0429    0.1829 C.ar      1 <0>         0.0000
      5 C5          0.6152   -1.9113    1.4880 C.ar      1 <0>         0.0000
      6 C6          1.7778   -2.1444    2.2262 C.ar      1 <0>         0.0000
      7 C7          4.3694   -2.1526   -0.5433 C.2       1 <0>         0.0000
      8 N1          5.5338   -1.7326   -0.1732 N.2       1 <0>         0.0000
      9 N2          4.2922   -2.7237   -1.8249 N.pl3     1 <0>         0.0000
     10 O1          5.4968   -0.9976    1.0397 O.3       1 <0>         0.0000
     11 F1         -0.5782   -1.8442    2.1107 F         1 <0>         0.0000
     12 Br1         1.6717   -2.3838    4.1147 Br        1 <0>         0.0000
     13 H1          1.9498   -1.6885   -1.6195 H         1 <0>         0.0000
     14 H2         -0.2568   -1.5616   -0.4339 H         1 <0>         0.0000
     15 H3          3.9107   -2.3701    2.1504 H         1 <0>         0.0000
     16 H4          3.7855   -3.6048   -1.8412 H         1 <0>         0.0000
     17 H5          5.2154   -2.8233   -2.2402 H         1 <0>         0.0000
     18 H6          6.4201   -0.7118    1.1246 H         1 <0>         0.0000
@<TRIPOS>BOND
     1    1    2 ar
     2    1    4 ar
     3    1   13 1
     4    2    5 ar
     5    2   14 1
     6    3    4 ar
     7    3    6 ar
     8    3   15 1
     9    4    7 1
    10    5    6 ar
    11    5   11 1
    12    6   12 1
    13    7    8 2
    14    7    9 1
    15    8   10 1
    16    9   16 1
    17    9   17 1
    18   10   18 1
