@<TRIPOS>MOLECULE
*****
   41    43     0     0     0
SMALL
NO_CHARGES

@<TRIPOS>ATOM
      1 C1         -4.3908    1.1992   -3.2130 C.ar      1 <0>         0.0000
      2 C2         -4.2852    2.1562   -4.2239 C.ar      1 <0>         0.0000
      3 C3         -0.5410    0.4651   -1.4594 C.ar      1 <0>         0.0000
      4 C4         -0.0304   -0.7767   -1.8281 C.ar      1 <0>         0.0000
      5 C5         -0.9213    2.1618   -4.7593 C.2       1 <0>         0.0000
      6 C6         -0.0236   -0.0982   -4.1640 C.ar      1 <0>         0.0000
      7 C7         -3.4216    0.4450   -5.6902 C.ar      1 <0>         0.0000
      8 C8         -0.5460    1.1576   -3.8007 C.ar      1 <0>         0.0000
      9 C9         -1.5523    3.3013   -4.3758 C.2       1 <0>         0.0000
     10 C10        -4.0177   -0.1372   -3.4161 C.ar      1 <0>         0.0000
     11 C11        -3.5504   -0.5251   -4.6890 C.ar      1 <0>         0.0000
     12 C12        -3.7610    1.7822   -5.4638 C.ar      1 <0>         0.0000
     13 C13        -0.8028    1.4197   -2.4443 C.ar      1 <0>         0.0000
     14 C14         0.2188   -1.0472   -3.1825 C.ar      1 <0>         0.0000
     15 C15        -1.7809    3.5707   -2.9475 C.2       1 <0>         0.0000
     16 C16        -2.1091    4.2725   -5.3614 C.2       1 <0>         0.0000
     17 C17        -4.0878   -1.1325   -2.2833 C.3       1 <0>         0.0000
     18 C18        -3.1294   -1.9498   -4.9564 C.3       1 <0>         0.0000
     19 C19        -1.6096    5.6951   -5.2947 C.3       1 <0>         0.0000
     20 N1         -2.9618    3.9956   -6.2931 N.2       1 <0>         0.0000
     21 N2         -3.4837    2.7373   -6.5035 N.pl3     1 <0>         0.0000
     22 O1         -2.3378    4.5464   -2.4885 O.2       1 <0>         0.0000
     23 O2         -1.3303    2.6126   -2.0436 O.3       1 <0>         0.0000
     24 Br1         0.8728   -2.7779   -3.6837 Br        1 <0>         0.0000
     25 H1         -4.7591    1.5046   -2.2364 H         1 <0>         0.0000
     26 H2         -4.5536    3.1906   -4.0314 H         1 <0>         0.0000
     27 H3         -0.7544    0.6999   -0.4213 H         1 <0>         0.0000
     28 H4          0.1657   -1.5326   -1.0751 H         1 <0>         0.0000
     29 H5         -0.7672    1.9624   -5.8163 H         1 <0>         0.0000
     30 H6          0.1555   -0.3220   -5.2108 H         1 <0>         0.0000
     31 H7         -3.0023    0.1743   -6.6566 H         1 <0>         0.0000
     32 H8         -4.7296   -1.9860   -2.5308 H         1 <0>         0.0000
     33 H9         -3.0951   -1.5357   -2.0510 H         1 <0>         0.0000
     34 H10        -4.4807   -0.6687   -1.3750 H         1 <0>         0.0000
     35 H11        -2.3049   -2.2532   -4.3018 H         1 <0>         0.0000
     36 H12        -3.9520   -2.6521   -4.7782 H         1 <0>         0.0000
     37 H13        -2.7981   -2.0779   -5.9901 H         1 <0>         0.0000
     38 H14        -0.5173    5.7254   -5.3928 H         1 <0>         0.0000
     39 H15        -2.0571    6.2781   -6.1020 H         1 <0>         0.0000
     40 H16        -1.8654    6.1482   -4.3327 H         1 <0>         0.0000
     41 H17        -4.2174    2.8106   -7.1984 H         1 <0>         0.0000
@<TRIPOS>BOND
     1    1    2 ar
     2    1   10 ar
     3    1   25 1
     4    2   12 ar
     5    2   26 1
     6    3    4 ar
     7    3   13 ar
     8    3   27 1
     9    4   14 ar
    10    4   28 1
    11    5    8 1
    12    5    9 2
    13    5   29 1
    14    6    8 ar
    15    6   14 ar
    16    6   30 1
    17    7   11 ar
    18    7   12 ar
    19    7   31 1
    20    8   13 ar
    21    9   15 1
    22    9   16 1
    23   10   11 ar
    24   10   17 1
    25   11   18 1
    26   12   21 1
    27   13   23 1
    28   14   24 1
    29   15   22 2
    30   15   23 1
    31   16   19 1
    32   16   20 2
    33   17   32 1
    34   17   33 1
    35   17   34 1
    36   18   35 1
    37   18   36 1
    38   18   37 1
    39   19   38 1
    40   19   39 1
    41   19   40 1
    42   20   21 1
    43   21   41 1
