@<TRIPOS>MOLECULE
*****
   40    43     0     0     0
SMALL
NO_CHARGES

@<TRIPOS>ATOM
      1 C1          1.3875   -1.2910   -1.0595 C.ar      1 <0>         0.0000
      2 C2          0.1608   -1.5711   -1.6711 C.ar      1 <0>         0.0000
      3 C3          2.0385   -2.2835   -0.3247 C.ar      1 <0>         0.0000
      4 C4         -0.4009   -2.8411   -1.5330 C.ar      1 <0>         0.0000
      5 C5         -0.1430   -4.2743   -4.9409 C.ar      1 <0>         0.0000
      6 C6         -0.2008   -5.4850   -4.2471 C.ar      1 <0>         0.0000
      7 C7          1.9591   -5.0850   -3.1657 C.ar      1 <0>         0.0000
      8 C8          1.4865   -3.5646   -0.1867 C.ar      1 <0>         0.0000
      9 C9          0.2531   -3.8389   -0.8024 C.ar      1 <0>         0.0000
     10 C10         0.9644   -3.4513   -4.7146 C.ar      1 <0>         0.0000
     11 C11         0.8217   -5.8822   -3.3604 C.ar      1 <0>         0.0000
     12 C12         1.9800   -3.8801   -3.8484 C.ar      1 <0>         0.0000
     13 C13         2.4221   -1.8895   -4.6168 C.2       1 <0>         0.0000
     14 C14         1.1370   -7.1786   -1.2869 C.2       1 <0>         0.0000
     15 C15         2.2573   -4.6462    0.5531 C.3       1 <0>         0.0000
     16 C16        -0.3512   -5.2271   -0.6994 C.3       1 <0>         0.0000
     17 C17         1.4312   -5.9191    0.7918 C.3       1 <0>         0.0000
     18 C18         3.2310   -0.6479   -4.7262 C.3       1 <0>         0.0000
     19 N1          1.2885   -2.1705   -5.1827 N.2       1 <0>         0.0000
     20 N2          0.6624   -6.2322   -0.4092 N.am      1 <0>         0.0000
     21 N3          0.6515   -7.0982   -2.6108 N.am      1 <0>         0.0000
     22 O1          1.9034   -8.0812   -0.9445 O.2       1 <0>         0.0000
     23 O2          2.9256   -2.8821   -3.7924 O.3       1 <0>         0.0000
     24 H1          1.8365   -0.3059   -1.1593 H         1 <0>         0.0000
     25 H2         -0.3449   -0.8135   -2.2634 H         1 <0>         0.0000
     26 H3          2.9987   -2.0675    0.1401 H         1 <0>         0.0000
     27 H4         -1.3416   -3.0717   -2.0280 H         1 <0>         0.0000
     28 H5         -0.9416   -3.9670   -5.6092 H         1 <0>         0.0000
     29 H6         -1.0640   -6.1357   -4.3544 H         1 <0>         0.0000
     30 H7          2.7558   -5.3868   -2.4951 H         1 <0>         0.0000
     31 H8          3.1460   -4.9102   -0.0346 H         1 <0>         0.0000
     32 H9          2.6261   -4.2580    1.5098 H         1 <0>         0.0000
     33 H10        -1.0846   -5.2514    0.1199 H         1 <0>         0.0000
     34 H11        -0.8894   -5.4878   -1.6074 H         1 <0>         0.0000
     35 H12         2.0662   -6.7703    1.0337 H         1 <0>         0.0000
     36 H13         0.7256   -5.7698    1.6178 H         1 <0>         0.0000
     37 H14         3.3356   -0.1764   -3.7436 H         1 <0>         0.0000
     38 H15         4.2364   -0.8707   -5.0973 H         1 <0>         0.0000
     39 H16         2.7366    0.0428   -5.4096 H         1 <0>         0.0000
     40 H17         0.9502   -7.9307   -3.1115 H         1 <0>         0.0000
@<TRIPOS>BOND
     1    1    2 ar
     2    1    3 ar
     3    1   24 1
     4    2    4 ar
     5    2   25 1
     6    3    8 ar
     7    3   26 1
     8    4    9 ar
     9    4   27 1
    10    5    6 ar
    11    5   10 ar
    12    5   28 1
    13    6   11 ar
    14    6   29 1
    15    7   11 ar
    16    7   12 ar
    17    7   30 1
    18    8    9 ar
    19    8   15 1
    20    9   16 1
    21   10   12 ar
    22   10   19 1
    23   11   21 1
    24   12   23 1
    25   13   18 1
    26   13   19 2
    27   13   23 1
    28   14   20 am
    29   14   21 am
    30   14   22 2
    31   15   17 1
    32   15   31 1
    33   15   32 1
    34   16   20 1
    35   16   33 1
    36   16   34 1
    37   17   20 1
    38   17   35 1
    39   17   36 1
    40   18   37 1
    41   18   38 1
    42   18   39 1
    43   21   40 1
