@<TRIPOS>MOLECULE
*****
   41    44     0     0     0
SMALL
NO_CHARGES

@<TRIPOS>ATOM
      1 C1          0.7310   -9.5512    4.2938 C.ar      1 <0>         0.0000
      2 C2          0.0028   -8.7108    5.1587 C.ar      1 <0>         0.0000
      3 C3          0.7085   -1.9263   -0.1609 C.ar      1 <0>         0.0000
      4 C4          1.2392   -9.0832    3.0784 C.ar      1 <0>         0.0000
      5 C5         -0.2431   -7.3712    4.8342 C.ar      1 <0>         0.0000
      6 C6         -0.2238   -0.8905   -0.1003 C.ar      1 <0>         0.0000
      7 C7         -1.3175   -1.8102   -2.0680 C.ar      1 <0>         0.0000
      8 C8          0.6541   -2.9215   -1.1527 C.ar      1 <0>         0.0000
      9 C9          1.0064   -7.7459    2.7371 C.ar      1 <0>         0.0000
     10 C10         0.2729   -6.9140    3.6218 C.ar      1 <0>         0.0000
     11 C11        -0.3637   -2.8351   -2.1237 C.ar      1 <0>         0.0000
     12 C12        -1.2413   -0.8563   -1.0569 C.ar      1 <0>         0.0000
     13 C13         0.9008   -5.8298    1.7901 C.2       1 <0>         0.0000
     14 C14         1.6385   -4.0430   -1.1471 C.2       1 <0>         0.0000
     15 C15         2.4924   -4.2723   -2.3689 C.3       1 <0>         0.0000
     16 C16         1.6853   -4.8418   -3.5477 C.3       1 <0>         0.0000
     17 C17         0.5760   -3.9259   -4.0505 C.3       1 <0>         0.0000
     18 C18        -0.3450   -4.4516    3.5343 C.3       1 <0>         0.0000
     19 N1          1.3756   -7.0363    1.5954 N.2       1 <0>         0.0000
     20 N2          1.7974   -4.8658   -0.1680 N.2       1 <0>         0.0000
     21 N3          0.2325   -5.6684    2.9970 N.pl3     1 <0>         0.0000
     22 N4          1.0171   -4.7249    0.9503 N.pl3     1 <0>         0.0000
     23 O1         -0.5194   -3.7650   -3.1194 O.3       1 <0>         0.0000
     24 Br1        -2.5548    0.5371   -0.9876 Br        1 <0>         0.0000
     25 H1          0.8976  -10.5866    4.5792 H         1 <0>         0.0000
     26 H2         -0.3793   -9.1094    6.0946 H         1 <0>         0.0000
     27 H3          1.5023   -1.9710    0.5802 H         1 <0>         0.0000
     28 H4          1.7987   -9.7304    2.4090 H         1 <0>         0.0000
     29 H5         -0.8134   -6.7299    5.5013 H         1 <0>         0.0000
     30 H6         -0.1619   -0.1309    0.6716 H         1 <0>         0.0000
     31 H7         -2.0991   -1.7833   -2.8194 H         1 <0>         0.0000
     32 H8          2.9629   -3.3275   -2.6720 H         1 <0>         0.0000
     33 H9          3.2836   -4.9745   -2.0956 H         1 <0>         0.0000
     34 H10         2.3650   -5.0266   -4.3892 H         1 <0>         0.0000
     35 H11         1.2517   -5.8061   -3.2623 H         1 <0>         0.0000
     36 H12         0.9692   -2.9341   -4.3090 H         1 <0>         0.0000
     37 H13         0.1091   -4.3526   -4.9413 H         1 <0>         0.0000
     38 H14         0.1989   -3.5855    3.1498 H         1 <0>         0.0000
     39 H15        -1.4070   -4.3525    3.2788 H         1 <0>         0.0000
     40 H16        -0.2471   -4.4559    4.6227 H         1 <0>         0.0000
     41 H17         0.1772   -4.1529    0.8601 H         1 <0>         0.0000
@<TRIPOS>BOND
     1    1    2 ar
     2    1    4 ar
     3    1   25 1
     4    2    5 ar
     5    2   26 1
     6    3    6 ar
     7    3    8 ar
     8    3   27 1
     9    4    9 ar
    10    4   28 1
    11    5   10 ar
    12    5   29 1
    13    6   12 ar
    14    6   30 1
    15    7   11 ar
    16    7   12 ar
    17    7   31 1
    18    8   11 ar
    19    8   14 1
    20    9   10 ar
    21    9   19 1
    22   10   21 1
    23   11   23 1
    24   12   24 1
    25   13   19 2
    26   13   21 1
    27   13   22 1
    28   14   15 1
    29   14   20 2
    30   15   16 1
    31   15   32 1
    32   15   33 1
    33   16   17 1
    34   16   34 1
    35   16   35 1
    36   17   23 1
    37   17   36 1
    38   17   37 1
    39   18   21 1
    40   18   38 1
    41   18   39 1
    42   18   40 1
    43   20   22 1
    44   22   41 1
