@<TRIPOS>MOLECULE
*****
   32    33     0     0     0
SMALL
NO_CHARGES

@<TRIPOS>ATOM
      1 C1          2.2472   -0.0974   -3.5386 C.ar      1 <0>         0.0000
      2 C2          2.4564    2.1552   -2.6280 C.ar      1 <0>         0.0000
      3 C3          3.5920   -0.0711   -3.9056 C.ar      1 <0>         0.0000
      4 C4          3.8050    2.1797   -2.9873 C.ar      1 <0>         0.0000
      5 C5          1.6976    1.0129   -2.8939 C.ar      1 <0>         0.0000
      6 C6          4.3581    1.0629   -3.6189 C.ar      1 <0>         0.0000
      7 C7          0.1700   -1.1454   -0.6654 C.2       1 <0>         0.0000
      8 C8          0.0233    1.1618    1.6811 C.3       1 <0>         0.0000
      9 C9         -0.1145   -0.2123    2.3503 C.3       1 <0>         0.0000
     10 C10         0.6378    1.1706    0.2720 C.3       1 <0>         0.0000
     11 C11        -0.9960   -1.2083    1.5817 C.3       1 <0>         0.0000
     12 C12        -0.1749    0.3405   -0.7374 C.3       1 <0>         0.0000
     13 N1         -0.3480   -1.8051    0.4113 N.am      1 <0>         0.0000
     14 O1          0.8908   -1.7070   -1.4865 O.2       1 <0>         0.0000
     15 O2         -0.4444    2.4299   -2.3067 O.2       1 <0>         0.0000
     16 O3         -0.7769    0.1204   -3.3535 O.2       1 <0>         0.0000
     17 S1         -0.0437    1.0169   -2.4520 S.o2      1 <0>         0.0000
     18 Cl1         6.0510    1.0894   -4.0723 Cl        1 <0>         0.0000
     19 H1          1.6308   -0.9648   -3.7394 H         1 <0>         0.0000
     20 H2          1.9910    3.0220   -2.1707 H         1 <0>         0.0000
     21 H3          4.0428   -0.9207   -4.4079 H         1 <0>         0.0000
     22 H4          4.4144    3.0563   -2.7932 H         1 <0>         0.0000
     23 H5         -0.9677    1.6314    1.6275 H         1 <0>         0.0000
     24 H6          0.6337    1.8074    2.3222 H         1 <0>         0.0000
     25 H7          0.8733   -0.6640    2.5039 H         1 <0>         0.0000
     26 H8         -0.5550   -0.0671    3.3440 H         1 <0>         0.0000
     27 H9          0.6600    2.2070   -0.0742 H         1 <0>         0.0000
     28 H10         1.6705    0.8066    0.2918 H         1 <0>         0.0000
     29 H11        -1.2685   -2.0401    2.2355 H         1 <0>         0.0000
     30 H12        -1.9374   -0.7308    1.2830 H         1 <0>         0.0000
     31 H13        -1.2463    0.4946   -0.5632 H         1 <0>         0.0000
     32 H14        -0.0223   -2.7629    0.4836 H         1 <0>         0.0000
@<TRIPOS>BOND
     1    1    3 ar
     2    1    5 ar
     3    1   19 1
     4    2    4 ar
     5    2    5 ar
     6    2   20 1
     7    3    6 ar
     8    3   21 1
     9    4    6 ar
    10    4   22 1
    11    5   17 1
    12    6   18 1
    13    7   12 1
    14    7   13 am
    15    7   14 2
    16    8    9 1
    17    8   10 1
    18    8   23 1
    19    8   24 1
    20    9   11 1
    21    9   25 1
    22    9   26 1
    23   10   12 1
    24   10   27 1
    25   10   28 1
    26   11   13 1
    27   11   29 1
    28   11   30 1
    29   12   17 1
    30   12   31 1
    31   13   32 1
    32   15   17 2
    33   16   17 2
