@<TRIPOS>MOLECULE
*****
   26    27     0     0     0
SMALL
NO_CHARGES

@<TRIPOS>ATOM
      1 C1         -1.7920   -6.8921   -0.0695 C.ar      1 <0>         0.0000
      2 C2         -0.5722   -6.5517   -0.6541 C.ar      1 <0>         0.0000
      3 C3         -2.4629   -5.9687    0.7324 C.ar      1 <0>         0.0000
      4 C4         -0.0232   -5.2879   -0.4370 C.ar      1 <0>         0.0000
      5 C5         -1.9139   -4.7049    0.9495 C.ar      1 <0>         0.0000
      6 C6         -0.6941   -4.3645    0.3648 C.ar      1 <0>         0.0000
      7 C7          0.5787    1.5309   -0.8109 C.2       1 <0>         0.0000
      8 C8         -0.1781    0.7136   -1.5505 C.2       1 <0>         0.0000
      9 C9         -0.4439   -0.7686    0.2972 C.2       1 <0>         0.0000
     10 C10         0.8680    1.1884    0.6273 C.3       1 <0>         0.0000
     11 C11        -1.0556   -2.0537    0.7952 C.3       1 <0>         0.0000
     12 N1          0.2702   -0.0740    1.1281 N.2       1 <0>         0.0000
     13 N2         -0.6933   -0.4308   -1.0165 N.pl3     1 <0>         0.0000
     14 O1         -0.1535   -3.1187    0.5771 O.3       1 <0>         0.0000
     15 H1         -2.2189   -7.8764   -0.2382 H         1 <0>         0.0000
     16 H2         -0.0503   -7.2714   -1.2783 H         1 <0>         0.0000
     17 H3         -3.4128   -6.2335    1.1876 H         1 <0>         0.0000
     18 H4          0.9264   -5.0276   -0.8965 H         1 <0>         0.0000
     19 H5         -2.4422   -3.9897    1.5740 H         1 <0>         0.0000
     20 H6          0.9890    2.4416   -1.2328 H         1 <0>         0.0000
     21 H7         -0.4258    0.8967   -2.5873 H         1 <0>         0.0000
     22 H8          1.9534    1.1236    0.7609 H         1 <0>         0.0000
     23 H9          0.5084    2.0067    1.2609 H         1 <0>         0.0000
     24 H10        -1.9836   -2.2466    0.2649 H         1 <0>         0.0000
     25 H11        -1.2523   -1.9632    1.8594 H         1 <0>         0.0000
     26 H12        -1.2601   -1.0155   -1.6211 H         1 <0>         0.0000
@<TRIPOS>BOND
     1    1    3 ar
     2    1    2 ar
     3    1   15 1
     4    2    4 ar
     5    2   16 1
     6    3    5 ar
     7    3   17 1
     8    4    6 ar
     9    4   18 1
    10    5    6 ar
    11    5   19 1
    12    6   14 1
    13    7    8 2
    14    7   10 1
    15    7   20 1
    16    8   13 1
    17    8   21 1
    18    9   11 1
    19    9   12 2
    20    9   13 1
    21   10   12 1
    22   10   22 1
    23   10   23 1
    24   11   14 1
    25   11   24 1
    26   11   25 1
    27   13   26 1
