@<TRIPOS>MOLECULE
*****
   35    37     0     0     0
SMALL
NO_CHARGES

@<TRIPOS>ATOM
      1 C1          1.0090   -3.6510   -0.2010 C.ar      1 <0>         0.0000
      2 C2          2.2700   -3.5650   -0.7830 C.ar      1 <0>         0.0000
      3 C3          0.6100   -2.6980    0.7310 C.ar      1 <0>         0.0000
      4 C4          5.8320    0.1920    1.6900 C.ar      1 <0>         0.0000
      5 C5          5.4800    1.5310    1.5600 C.ar      1 <0>         0.0000
      6 C6         -0.2080    2.2220    0.7350 C.ar      1 <0>         0.0000
      7 C7         -0.5570    2.1270   -0.6070 C.ar      1 <0>         0.0000
      8 C8          3.1280   -2.5270   -0.4340 C.ar      1 <0>         0.0000
      9 C9          1.4680   -1.6620    1.0810 C.ar      1 <0>         0.0000
     10 C10         4.9230   -0.7990    1.3430 C.ar      1 <0>         0.0000
     11 C11         4.2210    1.8730    1.0840 C.ar      1 <0>         0.0000
     12 C12         1.0540    1.8170    1.1520 C.ar      1 <0>         0.0000
     13 C13         0.3600    1.6330   -1.5300 C.ar      1 <0>         0.0000
     14 C14         2.7370   -1.5580    0.4990 C.ar      1 <0>         0.0000
     15 C15         3.6510   -0.4750    0.8590 C.ar      1 <0>         0.0000
     16 C16         3.2940    0.8880    0.7280 C.ar      1 <0>         0.0000
     17 C17         1.9840    1.3090    0.2370 C.ar      1 <0>         0.0000
     18 C18         1.6300    1.2310   -1.1230 C.ar      1 <0>         0.0000
     19 C19         2.5990    0.7010   -2.1640 C.3       1 <0>         0.0000
     20 H1          0.3540   -4.4400   -0.4680 H         1 <0>         0.0000
     21 H2          2.5760   -4.2900   -1.4930 H         1 <0>         0.0000
     22 H3         -0.3510   -2.7610    1.1750 H         1 <0>         0.0000
     23 H4          6.7910   -0.0710    2.0560 H         1 <0>         0.0000
     24 H5          6.1720    2.2900    1.8240 H         1 <0>         0.0000
     25 H6         -0.9040    2.6010    1.4380 H         1 <0>         0.0000
     26 H7         -1.5210    2.4310   -0.9280 H         1 <0>         0.0000
     27 H8          4.0850   -2.4630   -0.8830 H         1 <0>         0.0000
     28 H9          1.1590   -0.9420    1.7930 H         1 <0>         0.0000
     29 H10         5.1950   -1.8180    1.4510 H         1 <0>         0.0000
     30 H11         3.9560    2.8940    0.9840 H         1 <0>         0.0000
     31 H12         1.3180    1.8880    2.1750 H         1 <0>         0.0000
     32 H13         0.0840    1.5640   -2.5500 H         1 <0>         0.0000
     33 H14         3.6130    1.0000   -1.9020 H         1 <0>         0.0000
     34 H15         2.3380    1.1180   -3.1370 H         1 <0>         0.0000
     35 H16         2.5090   -0.3840   -2.1840 H         1 <0>         0.0000
@<TRIPOS>BOND
     1    1    2 ar
     2    1    3 ar
     3    1   20 1
     4    2    8 ar
     5    2   21 1
     6    3    9 ar
     7    3   22 1
     8    4    5 ar
     9    4   10 ar
    10    4   23 1
    11    5   11 ar
    12    5   24 1
    13    6    7 ar
    14    6   12 ar
    15    6   25 1
    16    7   13 ar
    17    7   26 1
    18    8   14 ar
    19    8   27 1
    20    9   14 ar
    21    9   28 1
    22   10   15 ar
    23   10   29 1
    24   11   16 ar
    25   11   30 1
    26   12   17 ar
    27   12   31 1
    28   13   18 ar
    29   13   32 1
    30   14   15 1
    31   15   16 ar
    32   16   17 1
    33   17   18 ar
    34   18   19 1
    35   19   33 1
    36   19   34 1
    37   19   35 1
