@<TRIPOS>MOLECULE
*****
   25    26     0     0     0
SMALL
NO_CHARGES

@<TRIPOS>ATOM
      1 C1          1.8891   -1.0362   -0.1123 C.ar      1 <0>         0.0000
      2 C2          2.8511   -0.6448    8.7242 C.ar      1 <0>         0.0000
      3 C3          3.2343   -0.5446    7.3914 C.ar      1 <0>         0.0000
      4 C4          2.3932    0.0399    0.6181 C.ar      1 <0>         0.0000
      5 C5          1.3404   -2.1336    0.5512 C.ar      1 <0>         0.0000
      6 C6          1.6823   -1.3305    9.0131 C.ar      1 <0>         0.0000
      7 C7          1.2975   -1.7893    6.7951 C.ar      1 <0>         0.0000
      8 C8          2.4481   -1.1250    6.4022 C.ar      1 <0>         0.0000
      9 C9          1.7997   -1.0786    2.6757 C.ar      1 <0>         0.0000
     10 C10         2.3485    0.0187    2.0121 C.ar      1 <0>         0.0000
     11 C11         1.2957   -2.1548    1.9452 C.ar      1 <0>         0.0000
     12 C12         2.8287   -1.0347    4.9821 C.2       1 <0>         0.0000
     13 N1          0.8928   -1.9074    8.0796 N.ar      1 <0>         0.0000
     14 N2          1.7558   -1.1009    4.0760 N.am      1 <0>         0.0000
     15 O1          4.0080   -0.9439    4.6478 O.2       1 <0>         0.0000
     16 Cl1         2.9876    1.3752    2.8720 Cl        1 <0>         0.0000
     17 Cl2         0.6060   -3.5368    2.7206 Cl        1 <0>         0.0000
     18 H1          1.9244   -1.0198   -1.1978 H         1 <0>         0.0000
     19 H2          3.4485   -0.2008    9.5122 H         1 <0>         0.0000
     20 H3          4.1461   -0.0119    7.1347 H         1 <0>         0.0000
     21 H4          2.8172    0.8875    0.0853 H         1 <0>         0.0000
     22 H5          0.9508   -2.9633   -0.0333 H         1 <0>         0.0000
     23 H6          1.3397   -1.4365   10.0372 H         1 <0>         0.0000
     24 H7          0.6440   -2.2631    6.0687 H         1 <0>         0.0000
     25 H8          0.8233   -1.1747    4.4925 H         1 <0>         0.0000
@<TRIPOS>BOND
     1    1    5 ar
     2    1    4 ar
     3    1   18 1
     4    2    3 ar
     5    2    6 ar
     6    2   19 1
     7    3    8 ar
     8    3   20 1
     9    4   10 ar
    10    4   21 1
    11    5   11 ar
    12    5   22 1
    13    6   13 ar
    14    6   23 1
    15    7    8 ar
    16    7   13 ar
    17    7   24 1
    18    8   12 1
    19    9   11 ar
    20    9   10 ar
    21    9   14 1
    22   10   16 1
    23   11   17 1
    24   12   14 am
    25   12   15 2
    26   14   25 1
