@<TRIPOS>MOLECULE
*****
   13    13     0     0     0
SMALL
NO_CHARGES

@<TRIPOS>ATOM
      1 C1         -0.2303   -1.3824   -1.7538 C.2       1 <0>         0.0000
      2 C2          0.0707   -2.7221   -1.7863 C.2       1 <0>         0.0000
      3 C3          0.0890   -0.9817   -0.4426 C.2       1 <0>         0.0000
      4 C4         -0.5257    1.2997   -0.7135 C.3       1 <0>         0.0000
      5 N1          0.5568   -1.9856    0.3039 N.2       1 <0>         0.0000
      6 N2          0.5336   -3.0305   -0.5409 N.pl3     1 <0>         0.0000
      7 O1         -0.0203    0.2351    0.1080 O.3       1 <0>         0.0000
      8 H1         -0.6238   -0.7854   -2.5634 H         1 <0>         0.0000
      9 H2         -0.0016   -3.4670   -2.5657 H         1 <0>         0.0000
     10 H3         -0.5579    2.2249   -0.1331 H         1 <0>         0.0000
     11 H4         -1.5276    1.0438   -1.0673 H         1 <0>         0.0000
     12 H5          0.1383    1.4330   -1.5708 H         1 <0>         0.0000
     13 H6          0.8497   -3.9300   -0.2005 H         1 <0>         0.0000
@<TRIPOS>BOND
     1    1    2 2
     2    1    3 1
     3    1    8 1
     4    2    6 1
     5    2    9 1
     6    3    5 2
     7    3    7 1
     8    4    7 1
     9    4   10 1
    10    4   11 1
    11    4   12 1
    12    5    6 1
    13    6   13 1
