@<TRIPOS>MOLECULE
*****
   66    68     0     0     0
SMALL
NO_CHARGES

@<TRIPOS>ATOM
      1 C1          3.7143   -5.5924    2.9857 C.ar      1 <0>         0.0000
      2 C2          2.4257   -5.2582    2.5665 C.ar      1 <0>         0.0000
      3 C3         -0.3742   -1.0266    2.9625 C.ar      1 <0>         0.0000
      4 C4         -0.9738   -2.0616    0.8683 C.ar      1 <0>         0.0000
      5 C5          1.8103   -4.8599    4.8962 C.ar      1 <0>         0.0000
      6 C6         -0.0020   -2.2728    3.4929 C.ar      1 <0>         0.0000
      7 C7          4.0766   -5.5692    4.3342 C.ar      1 <0>         0.0000
      8 C8         -0.8580   -0.9066    1.6593 C.ar      1 <0>         0.0000
      9 C9          1.4918   -4.9062    3.5314 C.ar      1 <0>         0.0000
     10 C10        -0.1266   -3.4085    2.6954 C.ar      1 <0>         0.0000
     11 C11        -0.6108   -3.3123    1.3752 C.ar      1 <0>         0.0000
     12 C12         3.1192   -5.1936    5.2986 C.ar      1 <0>         0.0000
     13 C13         0.6739   -4.5797    5.8362 C.2       1 <0>         0.0000
     14 C14         0.5831   -2.3322    4.8850 C.3       1 <0>         0.0000
     15 C15        -1.2686    0.4350    1.0964 C.3       1 <0>         0.0000
     16 C16         1.6924   -5.6436   -1.4930 C.3       1 <0>         0.0000
     17 C17         4.7516   -9.7359    5.6436 C.3       1 <0>         0.0000
     18 C18         5.2823   -7.9197    7.3150 C.3       1 <0>         0.0000
     19 C19        -1.9886   -6.7671   -0.6937 C.3       1 <0>         0.0000
     20 C20         3.0066   -4.2887    7.5612 C.3       1 <0>         0.0000
     21 C21         0.5099   -6.4816   -0.9938 C.3       1 <0>         0.0000
     22 C22         5.6119   -7.5176    4.8191 C.3       1 <0>         0.0000
     23 C23        -0.9974   -4.4440   -0.7079 C.3       1 <0>         0.0000
     24 C24         5.4752   -5.9846    4.7414 C.3       1 <0>         0.0000
     25 C25         4.7712   -8.2218    5.8987 C.3       1 <0>         0.0000
     26 C26        -0.8784   -5.8666   -1.2546 C.3       1 <0>         0.0000
     27 O1          0.2889   -5.3705    6.6700 O.2       1 <0>         0.0000
     28 O2          0.1670   -4.6764    3.1757 O.3       1 <0>         0.0000
     29 O3          0.0423   -3.3789    5.7197 O.3       1 <0>         0.0000
     30 O4          6.3756   -5.4608    3.7449 O.3       1 <0>         0.0000
     31 O5          3.5594   -5.1879    6.5930 O.3       1 <0>         0.0000
     32 O6         -0.6688   -4.4819    0.6846 O.3       1 <0>         0.0000
     33 H1          4.4714   -5.8617    2.2564 H         1 <0>         0.0000
     34 H2          2.1319   -5.2879    1.5227 H         1 <0>         0.0000
     35 H3         -0.2862   -0.1395    3.5859 H         1 <0>         0.0000
     36 H4         -1.3511   -1.9733   -0.1450 H         1 <0>         0.0000
     37 H5          1.6726   -2.4244    4.8392 H         1 <0>         0.0000
     38 H6          0.3454   -1.4082    5.4155 H         1 <0>         0.0000
     39 H7         -0.7202    0.6637    0.1758 H         1 <0>         0.0000
     40 H8         -2.3368    0.4514    0.8522 H         1 <0>         0.0000
     41 H9         -1.0770    1.2413    1.8094 H         1 <0>         0.0000
     42 H10         1.5962   -5.4072   -2.5596 H         1 <0>         0.0000
     43 H11         1.7800   -4.6974   -0.9487 H         1 <0>         0.0000
     44 H12         2.6352   -6.1847   -1.3589 H         1 <0>         0.0000
     45 H13         5.7652  -10.1547    5.6833 H         1 <0>         0.0000
     46 H14         4.1487  -10.2531    6.3980 H         1 <0>         0.0000
     47 H15         4.3307   -9.9691    4.6593 H         1 <0>         0.0000
     48 H16         6.3108   -8.2820    7.4417 H         1 <0>         0.0000
     49 H17         5.2635   -6.8491    7.5321 H         1 <0>         0.0000
     50 H18         4.6595   -8.4185    8.0655 H         1 <0>         0.0000
     51 H19        -1.9114   -6.8419    0.3953 H         1 <0>         0.0000
     52 H20        -1.9167   -7.7778   -1.1092 H         1 <0>         0.0000
     53 H21        -2.9823   -6.3741   -0.9367 H         1 <0>         0.0000
     54 H22         3.7987   -4.1231    8.2943 H         1 <0>         0.0000
     55 H23         2.1316   -4.7224    8.0474 H         1 <0>         0.0000
     56 H24         2.7407   -3.3301    7.1013 H         1 <0>         0.0000
     57 H25         0.6156   -6.6621    0.0814 H         1 <0>         0.0000
     58 H26         0.5368   -7.4665   -1.4758 H         1 <0>         0.0000
     59 H27         6.6723   -7.7600    4.9919 H         1 <0>         0.0000
     60 H28         5.3550   -7.9161    3.8300 H         1 <0>         0.0000
     61 H29        -2.0213   -4.0688   -0.8400 H         1 <0>         0.0000
     62 H30        -0.3128   -3.7612   -1.2265 H         1 <0>         0.0000
     63 H31         5.7099   -5.5395    5.7130 H         1 <0>         0.0000
     64 H32         3.7399   -7.8572    5.8236 H         1 <0>         0.0000
     65 H33        -1.0165   -5.7765   -2.3420 H         1 <0>         0.0000
     66 H34         7.2550   -5.8265    3.9300 H         1 <0>         0.0000
@<TRIPOS>BOND
     1    1    2 ar
     2    1    7 ar
     3    1   33 1
     4    2    9 ar
     5    2   34 1
     6    3    6 ar
     7    3    8 ar
     8    3   35 1
     9    4    8 ar
    10    4   11 ar
    11    4   36 1
    12    5    9 ar
    13    5   12 ar
    14    5   13 1
    15    6   10 ar
    16    6   14 1
    17    7   12 ar
    18    7   24 1
    19    8   15 1
    20    9   28 1
    21   10   11 ar
    22   10   28 1
    23   11   32 1
    24   12   31 1
    25   13   27 2
    26   13   29 1
    27   14   29 1
    28   14   37 1
    29   14   38 1
    30   15   39 1
    31   15   40 1
    32   15   41 1
    33   16   21 1
    34   16   42 1
    35   16   43 1
    36   16   44 1
    37   17   25 1
    38   17   45 1
    39   17   46 1
    40   17   47 1
    41   18   25 1
    42   18   48 1
    43   18   49 1
    44   18   50 1
    45   19   26 1
    46   19   51 1
    47   19   52 1
    48   19   53 1
    49   20   31 1
    50   20   54 1
    51   20   55 1
    52   20   56 1
    53   21   26 1
    54   21   57 1
    55   21   58 1
    56   22   24 1
    57   22   25 1
    58   22   59 1
    59   22   60 1
    60   23   26 1
    61   23   32 1
    62   23   61 1
    63   23   62 1
    64   24   30 1
    65   24   63 1
    66   25   64 1
    67   26   65 1
    68   30   66 1
