@<TRIPOS>MOLECULE
*****
   56    59     0     0     0
SMALL
NO_CHARGES

@<TRIPOS>ATOM
      1 C1          1.6228   -4.2540   -0.2302 C.ar      1 <0>         0.0000
      2 C2          2.2317   -3.1244    1.8216 C.ar      1 <0>         0.0000
      3 C3         -0.7315    4.4352   -5.3628 C.ar      1 <0>         0.0000
      4 C4          0.0520    3.4017   -5.8779 C.ar      1 <0>         0.0000
      5 C5          0.8550   -5.1691    0.4920 C.ar      1 <0>         0.0000
      6 C6          1.4702   -4.0265    2.5593 C.ar      1 <0>         0.0000
      7 C7          1.9425    4.1289   -4.5251 C.ar      1 <0>         0.0000
      8 C8          2.3195   -3.2220    0.4213 C.ar      1 <0>         0.0000
      9 C9         -0.1866    5.3145   -4.4231 C.ar      1 <0>         0.0000
     10 C10         1.1412    5.1537   -4.0143 C.ar      1 <0>         0.0000
     11 C11         1.3860    3.2441   -5.4618 C.ar      1 <0>         0.0000
     12 C12         0.7936   -5.0355    1.8758 C.ar      1 <0>         0.0000
     13 C13         3.1591   -2.2101   -0.3024 C.2       1 <0>         0.0000
     14 C14        -0.8150    6.5117   -3.7386 C.3       1 <0>         0.0000
     15 C15         1.5211    6.2312   -3.0188 C.3       1 <0>         0.0000
     16 C16         0.1469    6.7747   -2.5519 C.3       1 <0>         0.0000
     17 C17         4.3777   -1.4598   -2.3971 C.3       1 <0>         0.0000
     18 C18         1.8715   -1.5523   -2.3590 C.3       1 <0>         0.0000
     19 C19         4.3006   -1.3970   -3.9228 C.3       1 <0>         0.0000
     20 C20         1.8911   -1.4882   -3.8868 C.3       1 <0>         0.0000
     21 C21         3.1674   -2.2049   -1.8259 C.3       1 <0>         0.0000
     22 C22         3.8620    0.6527   -6.2667 C.3       1 <0>         0.0000
     23 C23         3.0274   -0.5545   -5.8191 C.3       1 <0>         0.0000
     24 C24         3.4071    1.9458   -5.6062 C.3       1 <0>         0.0000
     25 N1          3.0617   -0.7588   -4.3698 N.3       1 <0>         0.0000
     26 O1          3.7978   -1.3767    0.3327 O.2       1 <0>         0.0000
     27 O2          2.0615    2.1942   -6.0276 O.3       1 <0>         0.0000
     28 F1          0.0495   -5.9183    2.5840 F         1 <0>         0.0000
     29 H1          1.6719   -4.3600   -1.3084 H         1 <0>         0.0000
     30 H2          2.7744   -2.3247    2.3152 H         1 <0>         0.0000
     31 H3         -1.7628    4.5426   -5.6926 H         1 <0>         0.0000
     32 H4         -0.3483    2.6976   -6.6020 H         1 <0>         0.0000
     33 H5          0.3124   -5.9724    0.0034 H         1 <0>         0.0000
     34 H6          1.3924   -3.9626    3.6403 H         1 <0>         0.0000
     35 H7          2.9695    4.0235   -4.1920 H         1 <0>         0.0000
     36 H8         -0.8390    7.3734   -4.4202 H         1 <0>         0.0000
     37 H9         -1.8453    6.3324   -3.4136 H         1 <0>         0.0000
     38 H10         2.1335    5.8575   -2.1915 H         1 <0>         0.0000
     39 H11         2.1032    7.0168   -3.5203 H         1 <0>         0.0000
     40 H12         0.1834    7.8274   -2.2569 H         1 <0>         0.0000
     41 H13        -0.1894    6.1982   -1.6832 H         1 <0>         0.0000
     42 H14         5.3055   -1.9564   -2.0936 H         1 <0>         0.0000
     43 H15         4.4050   -0.4470   -1.9869 H         1 <0>         0.0000
     44 H16         1.7964   -0.5350   -1.9593 H         1 <0>         0.0000
     45 H17         0.9859   -2.1036   -2.0266 H         1 <0>         0.0000
     46 H18         5.1516   -0.8240   -4.3023 H         1 <0>         0.0000
     47 H19         4.3905   -2.4195   -4.3454 H         1 <0>         0.0000
     48 H20         1.8570   -2.5194   -4.2964 H         1 <0>         0.0000
     49 H21         0.9935   -0.9704   -4.2393 H         1 <0>         0.0000
     50 H22         3.1964   -3.2411   -2.1869 H         1 <0>         0.0000
     51 H23         4.9232    0.5057   -6.0362 H         1 <0>         0.0000
     52 H24         3.7860    0.7513   -7.3556 H         1 <0>         0.0000
     53 H25         1.9894   -0.3699   -6.1082 H         1 <0>         0.0000
     54 H26         3.3581   -1.4577   -6.3653 H         1 <0>         0.0000
     55 H27         3.4411    1.8360   -4.5166 H         1 <0>         0.0000
     56 H28         4.0496    2.7853   -5.9045 H         1 <0>         0.0000
@<TRIPOS>BOND
     1    1    5 ar
     2    1    8 ar
     3    1   29 1
     4    2    6 ar
     5    2    8 ar
     6    2   30 1
     7    3    4 ar
     8    3    9 ar
     9    3   31 1
    10    4   11 ar
    11    4   32 1
    12    5   12 ar
    13    5   33 1
    14    6   12 ar
    15    6   34 1
    16    7   10 ar
    17    7   11 ar
    18    7   35 1
    19    8   13 1
    20    9   10 ar
    21    9   14 1
    22   10   15 1
    23   11   27 1
    24   12   28 1
    25   13   21 1
    26   13   26 2
    27   14   16 1
    28   14   36 1
    29   14   37 1
    30   15   16 1
    31   15   38 1
    32   15   39 1
    33   16   40 1
    34   16   41 1
    35   17   19 1
    36   17   21 1
    37   17   42 1
    38   17   43 1
    39   18   20 1
    40   18   21 1
    41   18   44 1
    42   18   45 1
    43   19   25 1
    44   19   46 1
    45   19   47 1
    46   20   25 1
    47   20   48 1
    48   20   49 1
    49   21   50 1
    50   22   23 1
    51   22   24 1
    52   22   51 1
    53   22   52 1
    54   23   25 1
    55   23   53 1
    56   23   54 1
    57   24   27 1
    58   24   55 1
    59   24   56 1
