@<TRIPOS>MOLECULE
*****
   57    60     0     0     0
SMALL
NO_CHARGES

@<TRIPOS>ATOM
      1 C1          0.8265    1.9719    0.0606 C.ar      1 <0>         0.0000
      2 C2         -1.3928    1.1643   -0.5081 C.ar      1 <0>         0.0000
      3 C3         -0.5580   -8.9694    7.7900 C.ar      1 <0>         0.0000
      4 C4         -0.2170   -7.9320    6.9057 C.ar      1 <0>         0.0000
      5 C5          0.4278    3.2782   -0.2111 C.ar      1 <0>         0.0000
      6 C6         -1.8040    2.4605   -0.7902 C.ar      1 <0>         0.0000
      7 C7          0.7833   -6.6924    8.7520 C.ar      1 <0>         0.0000
      8 C8         -0.0748    0.8979   -0.0809 C.ar      1 <0>         0.0000
      9 C9         -0.2279   -8.8711    9.1366 C.ar      1 <0>         0.0000
     10 C10         0.4435   -7.7300    9.6119 C.ar      1 <0>         0.0000
     11 C11         0.4500   -6.8036    7.3944 C.ar      1 <0>         0.0000
     12 C12        -0.8824    3.4981   -0.6344 C.ar      1 <0>         0.0000
     13 C13         0.2813   -0.5088    0.2136 C.2       1 <0>         0.0000
     14 C14        -0.4971   -9.8364   10.2728 C.3       1 <0>         0.0000
     15 C15         0.6762   -7.8417   11.1042 C.3       1 <0>         0.0000
     16 C16         0.4781   -9.3542   11.3763 C.3       1 <0>         0.0000
     17 C17         2.1531   -2.2546    0.2352 C.3       1 <0>         0.0000
     18 C18         1.7472   -0.7800    2.2321 C.3       1 <0>         0.0000
     19 C19         1.4364   -3.4056    0.9354 C.3       1 <0>         0.0000
     20 C20         0.9601   -1.9099    2.8883 C.3       1 <0>         0.0000
     21 C21         1.6982   -0.8557    0.6901 C.3       1 <0>         0.0000
     22 C22         1.0754   -4.4864    4.6240 C.3       1 <0>         0.0000
     23 C23         0.7878   -4.4182    3.1284 C.3       1 <0>         0.0000
     24 C24         0.5372   -5.7867    5.2236 C.3       1 <0>         0.0000
     25 N1          1.4882   -3.2608    2.4463 N.4       1 <0>         0.0000
     26 O1         -0.5576   -1.4103    0.1407 O.2       1 <0>         0.0000
     27 O2          0.8341   -5.7284    6.6022 O.3       1 <0>         0.0000
     28 F1         -1.2716    4.7550   -0.9025 F         1 <0>         0.0000
     29 H1          1.8486    1.8098    0.3862 H         1 <0>         0.0000
     30 H2         -2.0821    0.3335   -0.6159 H         1 <0>         0.0000
     31 H3         -1.0743   -9.8463    7.4064 H         1 <0>         0.0000
     32 H4         -0.4735   -8.0281    5.8564 H         1 <0>         0.0000
     33 H5          1.1070    4.1181   -0.1068 H         1 <0>         0.0000
     34 H6         -2.8121    2.6829   -1.1254 H         1 <0>         0.0000
     35 H7          1.3050   -5.8039    9.0983 H         1 <0>         0.0000
     36 H8         -1.5395   -9.7444   10.6058 H         1 <0>         0.0000
     37 H9         -0.3400  -10.8831    9.9953 H         1 <0>         0.0000
     38 H10         1.6594   -7.4759   11.4154 H         1 <0>         0.0000
     39 H11        -0.0741   -7.2460   11.6412 H         1 <0>         0.0000
     40 H12         0.1127   -9.5590   12.3858 H         1 <0>         0.0000
     41 H13         1.4375   -9.8693   11.2597 H         1 <0>         0.0000
     42 H14         3.2343   -2.3397    0.4021 H         1 <0>         0.0000
     43 H15         1.9921   -2.3806   -0.8390 H         1 <0>         0.0000
     44 H16         1.3368    0.1669    2.5951 H         1 <0>         0.0000
     45 H17         2.7921   -0.8145    2.5665 H         1 <0>         0.0000
     46 H18         0.3823   -3.4317    0.6659 H         1 <0>         0.0000
     47 H19         1.9038   -4.3642    0.6991 H         1 <0>         0.0000
     48 H20         1.0434   -1.8671    3.9738 H         1 <0>         0.0000
     49 H21        -0.0941   -1.8910    2.6068 H         1 <0>         0.0000
     50 H22         2.4112   -0.1334    0.2901 H         1 <0>         0.0000
     51 H23         0.6155   -3.6531    5.1610 H         1 <0>         0.0000
     52 H24         2.1562   -4.4466    4.8090 H         1 <0>         0.0000
     53 H25        -0.2771   -4.3023    2.9139 H         1 <0>         0.0000
     54 H26         1.1391   -5.3222    2.6242 H         1 <0>         0.0000
     55 H27         1.0194   -6.6565    4.7538 H         1 <0>         0.0000
     56 H28        -0.5470   -5.8676    5.0569 H         1 <0>         0.0000
     57 H29         2.4750   -3.3011    2.7252 H         1 <0>         0.0000
@<TRIPOS>BOND
     1    1    5 ar
     2    1    8 ar
     3    1   29 1
     4    2    6 ar
     5    2    8 ar
     6    2   30 1
     7    3    4 ar
     8    3    9 ar
     9    3   31 1
    10    4   11 ar
    11    4   32 1
    12    5   12 ar
    13    5   33 1
    14    6   12 ar
    15    6   34 1
    16    7   10 ar
    17    7   11 ar
    18    7   35 1
    19    8   13 1
    20    9   10 ar
    21    9   14 1
    22   10   15 1
    23   11   27 1
    24   12   28 1
    25   13   21 1
    26   13   26 2
    27   14   16 1
    28   14   36 1
    29   14   37 1
    30   15   16 1
    31   15   38 1
    32   15   39 1
    33   16   40 1
    34   16   41 1
    35   17   19 1
    36   17   21 1
    37   17   42 1
    38   17   43 1
    39   18   20 1
    40   18   21 1
    41   18   44 1
    42   18   45 1
    43   19   25 1
    44   19   46 1
    45   19   47 1
    46   20   25 1
    47   20   48 1
    48   20   49 1
    49   21   50 1
    50   22   23 1
    51   22   24 1
    52   22   51 1
    53   22   52 1
    54   23   25 1
    55   23   53 1
    56   23   54 1
    57   24   27 1
    58   24   55 1
    59   24   56 1
    60   25   57 1
