@<TRIPOS>MOLECULE
*****
   31    32     0     0     0
SMALL
NO_CHARGES

@<TRIPOS>ATOM
      1 C1          0.0687   -3.7944    0.4268 C.ar      1 <0>         0.0000
      2 C2          3.6372   -3.3242   -0.5961 C.ar      1 <0>         0.0000
      3 C3         -0.3927   -2.4972    0.3802 C.ar      1 <0>         0.0000
      4 C4          4.1152   -4.6176   -0.5516 C.ar      1 <0>         0.0000
      5 C5          1.7778   -1.6991   -0.3152 C.ar      1 <0>         0.0000
      6 C6          1.9269   -5.4212    0.1426 C.ar      1 <0>         0.0000
      7 C7          2.2883   -3.0229   -0.2760 C.ar      1 <0>         0.0000
      8 C8          1.4207   -4.1007    0.1016 C.ar      1 <0>         0.0000
      9 C9          0.4607   -1.4201    0.0055 C.ar      1 <0>         0.0000
     10 C10         3.2489   -5.6825   -0.1773 C.ar      1 <0>         0.0000
     11 C11         0.7060    1.0009    0.7907 C.2       1 <0>         0.0000
     12 C12        -0.2113    0.5030   -1.5147 C.3       1 <0>         0.0000
     13 C13         4.9969   -7.3088   -0.4297 C.3       1 <0>         0.0000
     14 C14        -0.0825   -0.0029   -0.0698 C.3       1 <0>         0.0000
     15 O1          0.8273    2.1731    0.5170 O.2       1 <0>         0.0000
     16 O2          1.2275    0.5119    1.9493 O.3       1 <0>         0.0000
     17 O3          3.6452   -6.9903   -0.1088 O.3       1 <0>         0.0000
     18 H1         -0.6003   -4.6014    0.7156 H         1 <0>         0.0000
     19 H2          4.3051   -2.5152   -0.8823 H         1 <0>         0.0000
     20 H3         -1.4295   -2.2848    0.6327 H         1 <0>         0.0000
     21 H4          5.1517   -4.8108   -0.8031 H         1 <0>         0.0000
     22 H5          2.4507   -0.8924   -0.6015 H         1 <0>         0.0000
     23 H6          1.2824   -6.2485    0.4265 H         1 <0>         0.0000
     24 H7          0.7678    0.5407   -2.0003 H         1 <0>         0.0000
     25 H8         -0.8525   -0.1718   -2.0888 H         1 <0>         0.0000
     26 H9         -0.6366    1.5085   -1.5326 H         1 <0>         0.0000
     27 H10         5.0822   -8.3894   -0.3090 H         1 <0>         0.0000
     28 H11         5.6992   -6.8129    0.2513 H         1 <0>         0.0000
     29 H12         5.2378   -7.0411   -1.4657 H         1 <0>         0.0000
     30 H13        -1.0852   -0.0064    0.3788 H         1 <0>         0.0000
     31 H14         1.1285   -0.4585    1.9583 H         1 <0>         0.0000
@<TRIPOS>BOND
     1    1    3 ar
     2    1    8 ar
     3    1   18 1
     4    2    4 ar
     5    2    7 ar
     6    2   19 1
     7    3    9 ar
     8    3   20 1
     9    4   10 ar
    10    4   21 1
    11    5    7 ar
    12    5    9 ar
    13    5   22 1
    14    6    8 ar
    15    6   10 ar
    16    6   23 1
    17    7    8 ar
    18    9   14 1
    19   10   17 1
    20   11   14 1
    21   11   15 2
    22   11   16 1
    23   12   14 1
    24   12   24 1
    25   12   25 1
    26   12   26 1
    27   13   17 1
    28   13   27 1
    29   13   28 1
    30   13   29 1
    31   14   30 1
    32   16   31 1
