@<TRIPOS>MOLECULE
*****
   22    22     0     0     0
SMALL
NO_CHARGES

@<TRIPOS>ATOM
      1 C1          1.6369   -1.3953    0.1631 C.ar      1 <0>         0.0000
      2 C2          0.6283   -0.6546    0.7333 C.ar      1 <0>         0.0000
      3 C3          1.6113   -0.9698    2.9460 C.ar      1 <0>         0.0000
      4 C4          2.7022   -1.9977    0.9405 C.ar      1 <0>         0.0000
      5 C5          0.6022   -0.4417    2.1332 C.ar      1 <0>         0.0000
      6 C6          2.6328   -1.7052    2.3649 C.ar      1 <0>         0.0000
      7 N1         -1.9882   -0.7669    2.8444 N.pl3     1 <0>         0.0000
      8 N2          4.0871   -3.8740    2.9141 N.pl3     1 <0>         0.0000
      9 O1          3.5918   -2.7318    0.4152 O.3       1 <0>         0.0000
     10 O2         -0.4078    0.7659    4.2483 O.2       1 <0>         0.0000
     11 O3         -1.2599    1.4664    1.9541 O.2       1 <0>         0.0000
     12 O4          5.1980   -1.5270    3.1505 O.2       1 <0>         0.0000
     13 O5          3.4803   -2.2693    4.8303 O.2       1 <0>         0.0000
     14 S1         -0.7368    0.4234    2.8521 S.o2      1 <0>         0.0000
     15 S2          3.9453   -2.2583    3.4318 S.o2      1 <0>         0.0000
     16 H1          1.6655   -1.5669   -0.9099 H         1 <0>         0.0000
     17 H2         -0.1588   -0.2245    0.1195 H         1 <0>         0.0000
     18 H3          1.6014   -0.8040    4.0192 H         1 <0>         0.0000
     19 H4         -1.7825   -1.4442    3.5810 H         1 <0>         0.0000
     20 H5         -2.8555   -0.2791    3.0800 H         1 <0>         0.0000
     21 H6          4.1468   -3.8012    1.8808 H         1 <0>         0.0000
     22 H7          4.9790   -4.2149    3.2798 H         1 <0>         0.0000
@<TRIPOS>BOND
     1    1    2 ar
     2    1    4 ar
     3    1   16 1
     4    2    5 ar
     5    2   17 1
     6    3    5 ar
     7    3    6 ar
     8    3   18 1
     9    4    6 ar
    10    4    9 1
    11    5   14 1
    12    6   15 1
    13    7   14 1
    14    7   19 1
    15    7   20 1
    16    8   15 1
    17    8   21 1
    18    8   22 1
    19   10   14 2
    20   11   14 2
    21   12   15 2
    22   13   15 2
