@<TRIPOS>MOLECULE
*****
   35    36     0     0     0
SMALL
NO_CHARGES

@<TRIPOS>ATOM
      1 C1          2.8728   -3.4003   -6.0311 C.ar      1 <0>         0.0000
      2 C2          2.3392   -2.3017   -6.7045 C.ar      1 <0>         0.0000
      3 C3          2.5247   -3.6190   -4.6947 C.ar      1 <0>         0.0000
      4 C4          1.4696   -1.4209   -6.0514 C.ar      1 <0>         0.0000
      5 C5          0.3656   -3.3018   -0.7273 C.2       1 <0>         0.0000
      6 C6          0.1270   -2.9892   -2.0445 C.2       1 <0>         0.0000
      7 C7          2.2945   -3.2527   -1.6689 C.2       1 <0>         0.0000
      8 C8          1.6705   -2.7414   -4.0249 C.ar      1 <0>         0.0000
      9 C9          1.1321   -1.6267   -4.7076 C.ar      1 <0>         0.0000
     10 C10        -2.6460    2.9530   -3.0077 C.3       1 <0>         0.0000
     11 C11        -0.7709    3.4174   -4.6339 C.3       1 <0>         0.0000
     12 C12        -1.0175    1.1124   -3.5555 C.3       1 <0>         0.0000
     13 C13        -0.1901    0.3797   -4.6016 C.3       1 <0>         0.0000
     14 C14        -1.7441    2.3558   -4.0973 C.3       1 <0>         0.0000
     15 N1          1.7215   -3.4589   -0.5022 N.2       1 <0>         0.0000
     16 N2          1.3741   -2.9604   -2.6536 N.pl3     1 <0>         0.0000
     17 O1          0.3073   -0.8171   -3.9871 O.3       1 <0>         0.0000
     18 H1          3.5404   -4.0901   -6.5385 H         1 <0>         0.0000
     19 H2          2.5916   -2.1229   -7.7462 H         1 <0>         0.0000
     20 H3          2.9058   -4.4836   -4.1590 H         1 <0>         0.0000
     21 H4          1.0664   -0.5728   -6.5920 H         1 <0>         0.0000
     22 H5         -0.3575   -3.4207    0.0695 H         1 <0>         0.0000
     23 H6         -0.7763   -2.7828   -2.5969 H         1 <0>         0.0000
     24 H7          3.3573   -3.2732   -1.8736 H         1 <0>         0.0000
     25 H8         -2.0499    3.2969   -2.1539 H         1 <0>         0.0000
     26 H9         -3.3661    2.2156   -2.6363 H         1 <0>         0.0000
     27 H10        -3.2091    3.8118   -3.3886 H         1 <0>         0.0000
     28 H11        -0.0614    3.7230   -3.8550 H         1 <0>         0.0000
     29 H12        -1.3124    4.3121   -4.9595 H         1 <0>         0.0000
     30 H13        -0.1920    3.0569   -5.4904 H         1 <0>         0.0000
     31 H14        -1.7532    0.4072   -3.1520 H         1 <0>         0.0000
     32 H15        -0.3638    1.3956   -2.7215 H         1 <0>         0.0000
     33 H16        -0.8076    0.1193   -5.4724 H         1 <0>         0.0000
     34 H17         0.6555    0.9861   -4.9462 H         1 <0>         0.0000
     35 H18        -2.3889    2.0351   -4.9284 H         1 <0>         0.0000
@<TRIPOS>BOND
     1    1    2 ar
     2    1    3 ar
     3    1   18 1
     4    2    4 ar
     5    2   19 1
     6    3    8 ar
     7    3   20 1
     8    4    9 ar
     9    4   21 1
    10    5    6 2
    11    5   15 1
    12    5   22 1
    13    6   16 1
    14    6   23 1
    15    7   15 2
    16    7   16 1
    17    7   24 1
    18    8    9 ar
    19    8   16 1
    20    9   17 1
    21   10   14 1
    22   10   25 1
    23   10   26 1
    24   10   27 1
    25   11   14 1
    26   11   28 1
    27   11   29 1
    28   11   30 1
    29   12   13 1
    30   12   14 1
    31   12   31 1
    32   12   32 1
    33   13   17 1
    34   13   33 1
    35   13   34 1
    36   14   35 1
