@<TRIPOS>MOLECULE
*****
   25    25     0     0     0
SMALL
NO_CHARGES

@<TRIPOS>ATOM
      1 C1          0.5395    8.6807    1.0532 C.2       1 <0>         0.0000
      2 C2          0.1334    6.7262   -0.2076 C.2       1 <0>         0.0000
      3 C3          0.5777    9.8808    1.9671 C.2       1 <0>         0.0000
      4 C4          0.7659    0.1733    0.0021 C.3       1 <0>         0.0000
      5 C5          1.0864    1.6264    0.3687 C.3       1 <0>         0.0000
      6 C6          0.2463    2.6304   -0.4340 C.3       1 <0>         0.0000
      7 C7          0.5792    4.0715   -0.0575 C.3       1 <0>         0.0000
      8 N1          1.5495    8.3624    0.2845 N.2       1 <0>         0.0000
      9 N2          1.3060    7.2342   -0.4520 N.2       1 <0>         0.0000
     10 N3         -0.6451   10.4795    2.1696 N.am      1 <0>         0.0000
     11 O1          1.6076   10.2382    2.5133 O.2       1 <0>         0.0000
     12 O2         -1.9208    5.0651   -0.4332 O.2       1 <0>         0.0000
     13 S1         -0.8311    7.5923    0.9535 S.3       1 <0>         0.0000
     14 S2         -0.5219    5.2245   -0.9969 S.o       1 <0>         0.0000
     15 H1          0.9659   -0.0209   -1.0576 H         1 <0>         0.0000
     16 H2          1.3712   -0.5244    0.5897 H         1 <0>         0.0000
     17 H3         -0.2886   -0.0576    0.1897 H         1 <0>         0.0000
     18 H4          0.9084    1.7833    1.4400 H         1 <0>         0.0000
     19 H5          2.1526    1.8235    0.1998 H         1 <0>         0.0000
     20 H6          0.4197    2.4785   -1.5069 H         1 <0>         0.0000
     21 H7         -0.8185    2.4474   -0.2518 H         1 <0>         0.0000
     22 H8          0.3978    4.2690    1.0035 H         1 <0>         0.0000
     23 H9          1.6059    4.3516   -0.3132 H         1 <0>         0.0000
     24 H10        -0.6234   11.3485    2.6918 H         1 <0>         0.0000
     25 H11        -1.3803   10.3858    1.4796 H         1 <0>         0.0000
@<TRIPOS>BOND
     1    1    3 1
     2    1    8 2
     3    1   13 1
     4    2    9 2
     5    2   13 1
     6    2   14 1
     7    3   10 am
     8    3   11 2
     9    4    5 1
    10    4   15 1
    11    4   16 1
    12    4   17 1
    13    5    6 1
    14    5   18 1
    15    5   19 1
    16    6    7 1
    17    6   20 1
    18    6   21 1
    19    7   14 1
    20    7   22 1
    21    7   23 1
    22    8    9 1
    23   10   24 1
    24   10   25 1
    25   12   14 2
