@<TRIPOS>MOLECULE
*****
   30    30     0     0     0
SMALL
NO_CHARGES

@<TRIPOS>ATOM
      1 C1          0.4154    1.0728   -0.4319 C.2       1 <0>         0.0000
      2 C2          0.4844   -0.2783   -0.2829 C.2       1 <0>         0.0000
      3 C3          1.4835    1.9641   -0.8653 C.2       1 <0>         0.0000
      4 C4         -1.8884    0.0761    0.0622 C.3       1 <0>         0.0000
      5 C5         -0.7488   -0.9322    0.2944 C.3       1 <0>         0.0000
      6 C6         -2.2470   -3.0018    0.3778 C.3       1 <0>         0.0000
      7 C7          6.1426    1.8720   -2.4410 C.3       1 <0>         0.0000
      8 C8         -1.0393   -2.3264   -0.2807 C.3       1 <0>         0.0000
      9 C9          4.8956    1.1118   -1.9736 C.3       1 <0>         0.0000
     10 C10         3.7576    2.0630   -1.6401 C.3       1 <0>         0.0000
     11 O1          1.4217    3.1782   -0.9241 O.2       1 <0>         0.0000
     12 O2          1.5381   -1.0787   -0.5349 O.3       1 <0>         0.0000
     13 O3          2.6244    1.2640   -1.2092 O.3       1 <0>         0.0000
     14 S1         -1.1529    1.7686    0.0735 S.3       1 <0>         0.0000
     15 H1         -2.3468   -0.0954   -0.9178 H         1 <0>         0.0000
     16 H2         -2.6618    0.0227    0.8292 H         1 <0>         0.0000
     17 H3         -0.5692   -1.0302    1.3772 H         1 <0>         0.0000
     18 H4         -2.1063   -3.0918    1.4613 H         1 <0>         0.0000
     19 H5         -2.3961   -4.0092   -0.0235 H         1 <0>         0.0000
     20 H6         -3.1711   -2.4395    0.2075 H         1 <0>         0.0000
     21 H7          5.9350    2.4627   -3.3400 H         1 <0>         0.0000
     22 H8          6.5045    2.5576   -1.6669 H         1 <0>         0.0000
     23 H9          6.9546    1.1783   -2.6781 H         1 <0>         0.0000
     24 H10        -1.2036   -2.2366   -1.3618 H         1 <0>         0.0000
     25 H11        -0.1485   -2.9490   -0.1526 H         1 <0>         0.0000
     26 H12         5.1332    0.5111   -1.0876 H         1 <0>         0.0000
     27 H13         4.5651    0.4168   -2.7544 H         1 <0>         0.0000
     28 H14         4.0241    2.7525   -0.8341 H         1 <0>         0.0000
     29 H15         3.4545    2.6568   -2.5069 H         1 <0>         0.0000
     30 H16         2.2698   -0.5068   -0.8548 H         1 <0>         0.0000
@<TRIPOS>BOND
     1    1    2 2
     2    1    3 1
     3    1   14 1
     4    2    5 1
     5    2   12 1
     6    3   11 2
     7    3   13 1
     8    4    5 1
     9    4   14 1
    10    4   15 1
    11    4   16 1
    12    5    8 1
    13    5   17 1
    14    6    8 1
    15    6   18 1
    16    6   19 1
    17    6   20 1
    18    7    9 1
    19    7   21 1
    20    7   22 1
    21    7   23 1
    22    8   24 1
    23    8   25 1
    24    9   10 1
    25    9   26 1
    26    9   27 1
    27   10   13 1
    28   10   28 1
    29   10   29 1
    30   12   30 1
