@<TRIPOS>MOLECULE
*****
   36    38     0     0     0
SMALL
NO_CHARGES

@<TRIPOS>ATOM
      1 C1         -2.9805    1.6959    3.9325 C.ar      1 <0>         0.0000
      2 C2         -3.4308    0.3774    3.8064 C.ar      1 <0>         0.0000
      3 C3         -1.6062    1.9584    3.9364 C.ar      1 <0>         0.0000
      4 C4         -0.3689    2.5690   -0.7006 C.ar      1 <0>         0.0000
      5 C5         -1.5196    2.3134    0.0566 C.ar      1 <0>         0.0000
      6 C6         -2.5112   -0.6693    3.6821 C.ar      1 <0>         0.0000
      7 C7         -0.6927    0.9086    3.8166 C.ar      1 <0>         0.0000
      8 C8          0.5319    1.5387   -0.9756 C.ar      1 <0>         0.0000
      9 C9         -1.7837    1.0356    0.5558 C.ar      1 <0>         0.0000
     10 C10        -1.1336   -0.4169    3.6859 C.ar      1 <0>         0.0000
     11 C11         0.2581    0.2634   -0.4805 C.ar      1 <0>         0.0000
     12 C12        -0.8838    0.0116    0.2878 C.ar      1 <0>         0.0000
     13 C13         0.9931   -1.9946   -0.1202 C.cat     1 <0>         0.0000
     14 C14         0.0352   -2.0171    1.0604 C.3       1 <0>         0.0000
     15 C15        -0.1309   -1.5489    3.5876 C.3       1 <0>         0.0000
     16 C16         0.7591   -1.5259    2.3272 C.3       1 <0>         0.0000
     17 N1          1.0975   -0.8530   -0.7768 N.pl3     1 <0>         0.0000
     18 N2          1.7018   -3.0778   -0.4311 N.pl3     1 <0>         0.0000
     19 O1         -1.1313   -1.2755    0.7189 O.3       1 <0>         0.0000
     20 H1         -3.6932    2.5091    4.0389 H         1 <0>         0.0000
     21 H2         -4.4960    0.1624    3.8125 H         1 <0>         0.0000
     22 H3         -1.2465    2.9781    4.0444 H         1 <0>         0.0000
     23 H4         -0.1718    3.5678   -1.0762 H         1 <0>         0.0000
     24 H5         -2.2134    3.1197    0.2734 H         1 <0>         0.0000
     25 H6         -2.8716   -1.6907    3.5847 H         1 <0>         0.0000
     26 H7          0.3737    1.1256    3.8406 H         1 <0>         0.0000
     27 H8          1.4261    1.7239   -1.5660 H         1 <0>         0.0000
     28 H9         -2.6580    0.8276    1.1622 H         1 <0>         0.0000
     29 H10        -0.3193   -3.0407    1.2082 H         1 <0>         0.0000
     30 H11         0.5428   -1.5041    4.4503 H         1 <0>         0.0000
     31 H12        -0.6468   -2.5131    3.6520 H         1 <0>         0.0000
     32 H13         1.1519   -0.5180    2.1600 H         1 <0>         0.0000
     33 H14         1.6243   -2.1825    2.4816 H         1 <0>         0.0000
     34 H15         1.7426   -0.7617   -1.5586 H         1 <0>         0.0000
     35 H16         2.3739   -3.1029   -1.1921 H         1 <0>         0.0000
     36 H17         1.5750   -3.9351    0.0944 H         1 <0>         0.0000
@<TRIPOS>BOND
     1    1    3 ar
     2    1    2 ar
     3    1   20 1
     4    2    6 ar
     5    2   21 1
     6    3    7 ar
     7    3   22 1
     8    4    5 ar
     9    4    8 ar
    10    4   23 1
    11    5    9 ar
    12    5   24 1
    13    6   10 ar
    14    6   25 1
    15    7   10 ar
    16    7   26 1
    17    8   11 ar
    18    8   27 1
    19    9   12 ar
    20    9   28 1
    21   10   15 1
    22   11   12 ar
    23   11   17 1
    24   12   19 1
    25   13   14 1
    26   13   17 1
    27   13   18 2
    28   14   16 1
    29   14   19 1
    30   14   29 1
    31   15   16 1
    32   15   30 1
    33   15   31 1
    34   16   32 1
    35   16   33 1
    36   17   34 1
    37   18   35 1
    38   18   36 1
