@<TRIPOS>MOLECULE
*****
   25    25     0     0     0
SMALL
NO_CHARGES

@<TRIPOS>ATOM
      1 C1          1.7966   -1.2804    0.1173 C.ar      1 <0>         0.0000
      2 C2          0.7386   -0.7172    0.8300 C.ar      1 <0>         0.0000
      3 C3          1.7936   -1.3973    2.9086 C.ar      1 <0>         0.0000
      4 C4          2.8503   -1.9377    0.7673 C.ar      1 <0>         0.0000
      5 C5          0.7441   -0.7937    2.2205 C.ar      1 <0>         0.0000
      6 C6          2.8291   -1.9795    2.1767 C.ar      1 <0>         0.0000
      7 C7          3.9078   -2.5056   -0.1688 C.2       1 <0>         0.0000
      8 N1         -1.6339   -1.3974    3.3990 N.pl3     1 <0>         0.0000
      9 N2          4.0477   -4.3286    2.7539 N.pl3     1 <0>         0.0000
     10 O1          4.2773   -1.8631   -1.1257 O.2       1 <0>         0.0000
     11 O2         -0.0904    0.3144    4.4672 O.2       1 <0>         0.0000
     12 O3         -1.3027    0.8624    2.2604 O.2       1 <0>         0.0000
     13 O4          5.4642   -2.2388    2.6139 O.2       1 <0>         0.0000
     14 O5          3.8349   -2.4746    4.5725 O.2       1 <0>         0.0000
     15 O6          4.3235   -3.7663    0.0338 O.3       1 <0>         0.0000
     16 S1         -0.6127   -0.0672    3.1555 S.o2      1 <0>         0.0000
     17 S2          4.1809   -2.6573    3.1647 S.o2      1 <0>         0.0000
     18 H1          1.8290   -1.2075   -0.9646 H         1 <0>         0.0000
     19 H2         -0.0689   -0.2040    0.3174 H         1 <0>         0.0000
     20 H3          1.8242   -1.3952    3.9933 H         1 <0>         0.0000
     21 H4         -1.7744   -1.5394    4.3988 H         1 <0>         0.0000
     22 H5         -2.5203   -1.2454    2.9187 H         1 <0>         0.0000
     23 H6          4.9721   -4.7485    2.8890 H         1 <0>         0.0000
     24 H7          3.3790   -4.7850    3.3784 H         1 <0>         0.0000
     25 H8          3.9919   -4.1380    0.8853 H         1 <0>         0.0000
@<TRIPOS>BOND
     1    1    2 ar
     2    1    4 ar
     3    1   18 1
     4    2    5 ar
     5    2   19 1
     6    3    5 ar
     7    3    6 ar
     8    3   20 1
     9    4    6 ar
    10    4    7 1
    11    5   16 1
    12    6   17 1
    13    7   10 2
    14    7   15 1
    15    8   16 1
    16    8   21 1
    17    8   22 1
    18    9   17 1
    19    9   23 1
    20    9   24 1
    21   11   16 2
    22   12   16 2
    23   13   17 2
    24   14   17 2
    25   15   25 1
