@<TRIPOS>MOLECULE
*****
   71    76     0     0     0
SMALL
NO_CHARGES

@<TRIPOS>ATOM
      1 C1          6.0710    0.4654    1.5690 C.ar      1 <0>         0.0000
      2 C2          3.2197   -2.2725    7.1564 C.ar      1 <0>         0.0000
      3 C3          5.5124   -0.0227    2.7495 C.ar      1 <0>         0.0000
      4 C4          4.4849   -1.8392    6.7569 C.ar      1 <0>         0.0000
      5 C5          8.2935    0.1774    2.4813 C.ar      1 <0>         0.0000
      6 C6          7.4553    0.5819    1.4227 C.ar      1 <0>         0.0000
      7 C7          2.1472   -2.2139    6.2683 C.ar      1 <0>         0.0000
      8 C8          6.3343   -0.4338    3.8117 C.ar      1 <0>         0.0000
      9 C9          7.7453   -0.3256    3.6517 C.ar      1 <0>         0.0000
     10 C10         2.3984   -1.6895    4.9753 C.ar      1 <0>         0.0000
     11 C11         4.6349   -1.3477    5.4496 C.ar      1 <0>         0.0000
     12 C12        -0.2371   -2.3313    5.8294 C.2       1 <0>         0.0000
     13 C13         8.0054    1.1069    0.1461 C.2       1 <0>         0.0000
     14 C14         1.0102   -0.7843    0.4170 C.3       1 <0>         0.0000
     15 C15         2.3295   -1.6124    0.4319 C.3       1 <0>         0.0000
     16 C16         0.3945   -0.9657    1.8189 C.3       1 <0>         0.0000
     17 C17         2.4899   -2.1117    1.8849 C.3       1 <0>         0.0000
     18 C18        10.6145    4.9434   -0.0076 C.3       1 <0>         0.0000
     19 C19         9.7853    2.5022   -0.9029 C.3       1 <0>         0.0000
     20 C20         9.6980    2.6957    1.2335 C.3       1 <0>         0.0000
     21 C21        12.1438    5.1036    0.2213 C.3       1 <0>         0.0000
     22 C22         0.0420   -1.3576    4.6864 C.3       1 <0>         0.0000
     23 C23         1.6282   -1.1424    2.7169 C.3       1 <0>         0.0000
     24 C24        10.4920    3.4083    0.1217 C.3       1 <0>         0.0000
     25 C25        -0.1090    0.0922    5.1870 C.3       1 <0>         0.0000
     26 C26         0.6621   -3.5530    7.7471 C.3       1 <0>         0.0000
     27 C27         9.9014   -0.6912    4.6471 C.3       1 <0>         0.0000
     28 N1          3.6067   -1.2624    4.5964 N.ar      1 <0>         0.0000
     29 N2          0.8565   -2.6973    6.5806 N.am      1 <0>         0.0000
     30 N3          1.3476   -1.6349    4.0752 N.pl3     1 <0>         0.0000
     31 N4          9.2550    1.7043    0.2199 N.am      1 <0>         0.0000
     32 N5          5.8972   -0.9352    5.0318 N.pl3     1 <0>         0.0000
     33 O1         -1.3803   -2.7129    6.0721 O.2       1 <0>         0.0000
     34 O2          7.4182    1.0172   -0.9336 O.2       1 <0>         0.0000
     35 O3         12.7726    2.7745    1.5699 O.2       1 <0>         0.0000
     36 O4         12.9418    2.7618   -0.9837 O.2       1 <0>         0.0000
     37 O5          8.4794   -0.7626    4.7324 O.3       1 <0>         0.0000
     38 S1         12.3374    3.2756    0.2552 S.o2      1 <0>         0.0000
     39 H1          5.4306    0.7642    0.7449 H         1 <0>         0.0000
     40 H2          3.0842   -2.6659    8.1581 H         1 <0>         0.0000
     41 H3          4.4428   -0.0992    2.8654 H         1 <0>         0.0000
     42 H4          5.3286   -1.8890    7.4387 H         1 <0>         0.0000
     43 H5          9.3680    0.2147    2.3536 H         1 <0>         0.0000
     44 H6          1.2260    0.2744    0.2392 H         1 <0>         0.0000
     45 H7          0.3200   -1.1028   -0.3690 H         1 <0>         0.0000
     46 H8          2.2962   -2.4480   -0.2727 H         1 <0>         0.0000
     47 H9          3.1803   -0.9900    0.1386 H         1 <0>         0.0000
     48 H10        -0.2480   -0.1280    2.1058 H         1 <0>         0.0000
     49 H11        -0.2109   -1.8795    1.8463 H         1 <0>         0.0000
     50 H12         2.0680   -3.1167    2.0029 H         1 <0>         0.0000
     51 H13         3.5272   -2.1460    2.2153 H         1 <0>         0.0000
     52 H14        10.0162    5.4713    0.7377 H         1 <0>         0.0000
     53 H15        10.3134    5.2798   -1.0018 H         1 <0>         0.0000
     54 H16         8.9957    3.0132   -1.4655 H         1 <0>         0.0000
     55 H17        10.4359    1.9557   -1.5907 H         1 <0>         0.0000
     56 H18        10.2997    2.2974    2.0536 H         1 <0>         0.0000
     57 H19         8.8765    3.3021    1.6335 H         1 <0>         0.0000
     58 H20        12.7063    5.5559   -0.5957 H         1 <0>         0.0000
     59 H21        12.4274    5.5356    1.1817 H         1 <0>         0.0000
     60 H22        -0.7332   -1.5671    3.9533 H         1 <0>         0.0000
     61 H23         2.1473   -0.1748    2.7859 H         1 <0>         0.0000
     62 H24         0.6383    0.3216    5.9531 H         1 <0>         0.0000
     63 H25        -1.1054    0.2410    5.6127 H         1 <0>         0.0000
     64 H26         0.0246    0.7946    4.3591 H         1 <0>         0.0000
     65 H27         0.7950   -2.9887    8.6773 H         1 <0>         0.0000
     66 H28         1.3758   -4.3819    7.7248 H         1 <0>         0.0000
     67 H29        -0.3552   -3.9389    7.7127 H         1 <0>         0.0000
     68 H30        10.2784   -1.0773    5.5948 H         1 <0>         0.0000
     69 H31        10.2385    0.3435    4.5142 H         1 <0>         0.0000
     70 H32        10.2794   -1.3093    3.8248 H         1 <0>         0.0000
     71 H33         6.6502   -1.1299    5.6797 H         1 <0>         0.0000
@<TRIPOS>BOND
     1    1    3 ar
     2    1    6 ar
     3    1   39 1
     4    2    4 ar
     5    2    7 ar
     6    2   40 1
     7    3    8 ar
     8    3   41 1
     9    4   11 ar
    10    4   42 1
    11    5    6 ar
    12    5    9 ar
    13    5   43 1
    14    6   13 1
    15    7   10 ar
    16    7   29 1
    17    8    9 ar
    18    8   32 1
    19    9   37 1
    20   10   28 ar
    21   10   30 1
    22   11   28 ar
    23   11   32 1
    24   12   22 1
    25   12   29 am
    26   12   33 2
    27   13   31 am
    28   13   34 2
    29   14   15 1
    30   14   16 1
    31   14   44 1
    32   14   45 1
    33   15   17 1
    34   15   46 1
    35   15   47 1
    36   16   23 1
    37   16   48 1
    38   16   49 1
    39   17   23 1
    40   17   50 1
    41   17   51 1
    42   18   21 1
    43   18   24 1
    44   18   52 1
    45   18   53 1
    46   19   24 1
    47   19   31 1
    48   19   54 1
    49   19   55 1
    50   20   24 1
    51   20   31 1
    52   20   56 1
    53   20   57 1
    54   21   38 1
    55   21   58 1
    56   21   59 1
    57   22   25 1
    58   22   30 1
    59   22   60 1
    60   23   30 1
    61   23   61 1
    62   24   38 1
    63   25   62 1
    64   25   63 1
    65   25   64 1
    66   26   29 1
    67   26   65 1
    68   26   66 1
    69   26   67 1
    70   27   37 1
    71   27   68 1
    72   27   69 1
    73   27   70 1
    74   32   71 1
    75   35   38 2
    76   36   38 2
