@<TRIPOS>MOLECULE
*****
   40    42     0     0     0
SMALL
NO_CHARGES

@<TRIPOS>ATOM
      1 C1          9.5824    2.6841   -0.4748 C.1       1 <0>         0.0000
      2 C2          4.7109    6.2524   -1.0197 C.ar      1 <0>         0.0000
      3 C3          5.2425    5.9454    0.2381 C.ar      1 <0>         0.0000
      4 C4          3.9693    5.2927   -1.7239 C.ar      1 <0>         0.0000
      5 C5          5.0572    4.6852    0.8210 C.ar      1 <0>         0.0000
      6 C6          6.9391    0.2678   -0.0829 C.2       1 <0>         0.0000
      7 C7          8.4149    1.9363   -0.1438 C.2       1 <0>         0.0000
      8 C8          3.7873    4.0332   -1.1614 C.ar      1 <0>         0.0000
      9 C9          4.3354    3.7394    0.0949 C.ar      1 <0>         0.0000
     10 C10         6.5196    1.3515    0.6610 C.2       1 <0>         0.0000
     11 C11         2.9885    2.8474   -1.6550 C.3       1 <0>         0.0000
     12 C12         3.5103    1.6971   -0.7722 C.3       1 <0>         0.0000
     13 C13         7.2899   -0.0081   -3.6596 C.3       1 <0>         0.0000
     14 C14         9.2488    1.5315   -3.6379 C.3       1 <0>         0.0000
     15 N1         10.5137    3.3172   -0.7695 N.1       1 <0>         0.0000
     16 N2          7.4280    2.3752    0.6176 N.2       1 <0>         0.0000
     17 N3          8.1638    0.6405   -0.5966 N.pl3     1 <0>         0.0000
     18 N4          3.9936    2.3934    0.4558 N.pl3     1 <0>         0.0000
     19 N5          8.6797    0.2309   -3.2373 N.pl3     1 <0>         0.0000
     20 O1          4.3823    0.1411    1.4924 O.2       1 <0>         0.0000
     21 O2          5.1395    2.2623    2.7181 O.2       1 <0>         0.0000
     22 O3         10.4816   -0.0296   -1.4866 O.2       1 <0>         0.0000
     23 O4          8.5098   -1.6670   -1.5878 O.2       1 <0>         0.0000
     24 S1          4.9510    1.4872    1.5023 S.o2      1 <0>         0.0000
     25 S2          9.0990   -0.3537   -1.7559 S.o2      1 <0>         0.0000
     26 H1          4.8698    7.2376   -1.4491 H         1 <0>         0.0000
     27 H2          5.8141    6.6946    0.7789 H         1 <0>         0.0000
     28 H3          3.5424    5.5290   -2.6959 H         1 <0>         0.0000
     29 H4          5.4700    4.4518    1.7949 H         1 <0>         0.0000
     30 H5          6.5143   -0.7112   -0.2462 H         1 <0>         0.0000
     31 H6          1.9189    3.0113   -1.4790 H         1 <0>         0.0000
     32 H7          3.1235    2.6377   -2.7196 H         1 <0>         0.0000
     33 H8          2.7577    0.9575   -0.5046 H         1 <0>         0.0000
     34 H9          4.3490    1.1869   -1.2677 H         1 <0>         0.0000
     35 H10         7.0005   -1.0301   -3.4191 H         1 <0>         0.0000
     36 H11         7.2502    0.1212   -4.7432 H         1 <0>         0.0000
     37 H12         6.5959    0.7017   -3.1894 H         1 <0>         0.0000
     38 H13        10.2750    1.6137   -3.2852 H         1 <0>         0.0000
     39 H14         8.6563    2.3693   -3.2509 H         1 <0>         0.0000
     40 H15         9.2458    1.5637   -4.7297 H         1 <0>         0.0000
@<TRIPOS>BOND
     1    1    7 1
     2    1   15 3
     3    2    3 ar
     4    2    4 ar
     5    2   26 1
     6    3    5 ar
     7    3   27 1
     8    4    8 ar
     9    4   28 1
    10    5    9 ar
    11    5   29 1
    12    6   10 2
    13    6   17 1
    14    6   30 1
    15    7   16 2
    16    7   17 1
    17    8    9 ar
    18    8   11 1
    19    9   18 1
    20   10   16 1
    21   10   24 1
    22   11   12 1
    23   11   31 1
    24   11   32 1
    25   12   18 1
    26   12   33 1
    27   12   34 1
    28   13   19 1
    29   13   35 1
    30   13   36 1
    31   13   37 1
    32   14   19 1
    33   14   38 1
    34   14   39 1
    35   14   40 1
    36   17   25 1
    37   18   24 1
    38   19   25 1
    39   20   24 2
    40   21   24 2
    41   22   25 2
    42   23   25 2
