@<TRIPOS>MOLECULE
*****
   27    27     0     0     0
SMALL
NO_CHARGES

@<TRIPOS>ATOM
      1 C1          0.5821   -0.2512   -0.7413 C.2       1 <0>         0.0000
      2 C2          1.4277    1.9138    0.2440 C.2       1 <0>         0.0000
      3 C3         -0.7675   -0.4376    1.3305 C.3       1 <0>         0.0000
      4 C4          1.5143    0.3954    0.3029 C.3       1 <0>         0.0000
      5 C5         -0.6648   -0.8914   -0.1275 C.3       1 <0>         0.0000
      6 C6         -1.9159   -0.6151   -0.9665 C.3       1 <0>         0.0000
      7 C7         -1.9348    5.4446   -0.2111 C.3       1 <0>         0.0000
      8 C8         -1.5843    3.9532   -0.1524 C.3       1 <0>         0.0000
      9 C9         -0.0934    3.7389    0.0502 C.3       1 <0>         0.0000
     10 O1          0.8450   -0.2546   -1.9261 O.2       1 <0>         0.0000
     11 O2          2.3718    2.6671    0.3439 O.2       1 <0>         0.0000
     12 O3          0.1430    2.3068    0.0841 O.3       1 <0>         0.0000
     13 S1          0.9601   -0.2278    1.9382 S.3       1 <0>         0.0000
     14 H1         -1.3010    0.5122    1.4115 H         1 <0>         0.0000
     15 H2         -1.2567   -1.1782    1.9664 H         1 <0>         0.0000
     16 H3          2.5498    0.1078    0.1215 H         1 <0>         0.0000
     17 H4         -0.4519   -1.9695   -0.1362 H         1 <0>         0.0000
     18 H5         -2.1441    0.4553   -0.9698 H         1 <0>         0.0000
     19 H6         -2.7800   -1.1527   -0.5638 H         1 <0>         0.0000
     20 H7         -1.7558   -0.9336   -1.9996 H         1 <0>         0.0000
     21 H8         -1.6522    5.9577    0.7148 H         1 <0>         0.0000
     22 H9         -1.4196    5.9427   -1.0397 H         1 <0>         0.0000
     23 H10        -3.0102    5.5856   -0.3550 H         1 <0>         0.0000
     24 H11        -1.8920    3.4557   -1.0791 H         1 <0>         0.0000
     25 H12        -2.1292    3.4696    0.6667 H         1 <0>         0.0000
     26 H13         0.4963    4.1700   -0.7639 H         1 <0>         0.0000
     27 H14         0.2592    4.1719    0.9911 H         1 <0>         0.0000
@<TRIPOS>BOND
     1    1    4 1
     2    1    5 1
     3    1   10 2
     4    2    4 1
     5    2   11 2
     6    2   12 1
     7    3    5 1
     8    3   13 1
     9    3   14 1
    10    3   15 1
    11    4   13 1
    12    4   16 1
    13    5    6 1
    14    5   17 1
    15    6   18 1
    16    6   19 1
    17    6   20 1
    18    7    8 1
    19    7   21 1
    20    7   22 1
    21    7   23 1
    22    8    9 1
    23    8   24 1
    24    8   25 1
    25    9   12 1
    26    9   26 1
    27    9   27 1
