@<TRIPOS>MOLECULE
*****
   41    42     0     0     0
SMALL
NO_CHARGES

@<TRIPOS>ATOM
      1 C1          1.3081   -2.1031    4.1798 C.ar      1 <0>         0.0000
      2 C2          1.9487   -1.8906    5.4073 C.ar      1 <0>         0.0000
      3 C3          0.6100    0.2070    4.1620 C.ar      1 <0>         0.0000
      4 C4          0.6369   -1.0571    3.5449 C.ar      1 <0>         0.0000
      5 C5          1.9232   -0.6430    6.0216 C.ar      1 <0>         0.0000
      6 C6          1.2368    0.4239    5.3927 C.ar      1 <0>         0.0000
      7 C7         -0.9700    0.7500    1.2246 C.2       1 <0>         0.0000
      8 C8          0.7540    3.9264    6.3272 C.2       1 <0>         0.0000
      9 C9         -0.1840    4.5864    7.0275 C.2       1 <0>         0.0000
     10 C10         0.2112   -0.2173    1.1606 C.3       1 <0>         0.0000
     11 C11        -1.6301   -1.2232    2.3856 C.3       1 <0>         0.0000
     12 C12        -0.0798   -1.2955    2.2297 C.3       1 <0>         0.0000
     13 C13         0.1837    5.7971    7.8518 C.3       1 <0>         0.0000
     14 C14        -1.6477    4.2217    7.0765 C.3       1 <0>         0.0000
     15 C15         3.6521    0.3790    7.2945 C.3       1 <0>         0.0000
     16 C16         0.5514    2.7304    5.4504 C.3       1 <0>         0.0000
     17 N1         -1.9375    0.1452    1.9864 N.am      1 <0>         0.0000
     18 O1         -1.0538    1.8547    0.7015 O.2       1 <0>         0.0000
     19 O2          2.5152   -0.4961    7.2558 O.3       1 <0>         0.0000
     20 O3          1.2290    1.6142    6.0630 O.3       1 <0>         0.0000
     21 H1          1.3407   -3.0877    3.7195 H         1 <0>         0.0000
     22 H2          2.4767   -2.6947    5.9122 H         1 <0>         0.0000
     23 H3          0.0802    1.0197    3.6810 H         1 <0>         0.0000
     24 H4          1.7843    4.2763    6.3853 H         1 <0>         0.0000
     25 H5          0.2313   -0.6429    0.1510 H         1 <0>         0.0000
     26 H6          1.1515    0.3138    1.3149 H         1 <0>         0.0000
     27 H7         -2.1268   -1.9513    1.7295 H         1 <0>         0.0000
     28 H8         -1.9405   -1.4161    3.4159 H         1 <0>         0.0000
     29 H9          0.1976   -2.2884    1.8691 H         1 <0>         0.0000
     30 H10        -0.3847    6.6776    7.5262 H         1 <0>         0.0000
     31 H11        -0.0647    5.6352    8.9083 H         1 <0>         0.0000
     32 H12         1.2490    6.0322    7.7816 H         1 <0>         0.0000
     33 H13        -1.9692    4.1039    8.1185 H         1 <0>         0.0000
     34 H14        -2.2579    5.0267    6.6483 H         1 <0>         0.0000
     35 H15        -1.8868    3.2983    6.5472 H         1 <0>         0.0000
     36 H16         4.0366    0.3275    8.3152 H         1 <0>         0.0000
     37 H17         3.3694    1.4082    7.0577 H         1 <0>         0.0000
     38 H18         4.4247    0.0339    6.5954 H         1 <0>         0.0000
     39 H19         0.9874    2.9111    4.4586 H         1 <0>         0.0000
     40 H20        -0.5058    2.4849    5.3133 H         1 <0>         0.0000
     41 H21        -2.8654    0.5476    2.0363 H         1 <0>         0.0000
@<TRIPOS>BOND
     1    1    2 ar
     2    1    4 ar
     3    1   21 1
     4    2    5 ar
     5    2   22 1
     6    3    4 ar
     7    3    6 ar
     8    3   23 1
     9    4   12 1
    10    5    6 ar
    11    5   19 1
    12    6   20 1
    13    7   10 1
    14    7   17 am
    15    7   18 2
    16    8    9 2
    17    8   16 1
    18    8   24 1
    19    9   13 1
    20    9   14 1
    21   10   12 1
    22   10   25 1
    23   10   26 1
    24   11   12 1
    25   11   17 1
    26   11   27 1
    27   11   28 1
    28   12   29 1
    29   13   30 1
    30   13   31 1
    31   13   32 1
    32   14   33 1
    33   14   34 1
    34   14   35 1
    35   15   19 1
    36   15   36 1
    37   15   37 1
    38   15   38 1
    39   16   20 1
    40   16   39 1
    41   16   40 1
    42   17   41 1
