@<TRIPOS>MOLECULE
*****
   41    42     0     0     0
SMALL
NO_CHARGES

@<TRIPOS>ATOM
      1 C1          2.1618   -1.6589    3.5983 C.ar      1 <0>         0.0000
      2 C2          2.8055   -1.7200    4.8409 C.ar      1 <0>         0.0000
      3 C3          0.3982   -0.3464    4.5930 C.ar      1 <0>         0.0000
      4 C4          0.9499   -0.9792    3.4643 C.ar      1 <0>         0.0000
      5 C5          2.2616   -1.0981    5.9602 C.ar      1 <0>         0.0000
      6 C6          1.0424   -0.3903    5.8330 C.ar      1 <0>         0.0000
      7 C7         -1.8114    0.3847    2.1754 C.2       1 <0>         0.0000
      8 C8         -0.8314    1.6701    8.1935 C.2       1 <0>         0.0000
      9 C9         -1.9556    1.6369    8.9285 C.2       1 <0>         0.0000
     10 C10        -0.3429    0.4286    1.7543 C.3       1 <0>         0.0000
     11 C11        -1.0343   -1.8670    2.1323 C.3       1 <0>         0.0000
     12 C12         0.2320   -0.9559    2.1282 C.3       1 <0>         0.0000
     13 C13        -2.0287    2.3652   10.2499 C.3       1 <0>         0.0000
     14 C14        -3.2267    0.9198    8.5425 C.3       1 <0>         0.0000
     15 C15         2.3274   -1.8400    8.2185 C.3       1 <0>         0.0000
     16 C16        -0.6017    1.0382    6.8561 C.3       1 <0>         0.0000
     17 N1         -2.1108   -0.9296    2.4288 N.am      1 <0>         0.0000
     18 O1         -2.5856    1.3295    2.2719 O.2       1 <0>         0.0000
     19 O2          2.9614   -1.1277    7.1453 O.3       1 <0>         0.0000
     20 O3          0.5780    0.2185    6.9642 O.3       1 <0>         0.0000
     21 H1          2.6108   -2.1458    2.7359 H         1 <0>         0.0000
     22 H2          3.7514   -2.2413    4.9586 H         1 <0>         0.0000
     23 H3         -0.5371    0.1906    4.4972 H         1 <0>         0.0000
     24 H4          0.0265    2.2216    8.5768 H         1 <0>         0.0000
     25 H5         -0.3179    0.5968    0.6718 H         1 <0>         0.0000
     26 H6          0.1707    1.2645    2.2313 H         1 <0>         0.0000
     27 H7         -1.1792   -2.3452    1.1536 H         1 <0>         0.0000
     28 H8         -0.9661   -2.6482    2.8939 H         1 <0>         0.0000
     29 H9          0.9265   -1.3118    1.3641 H         1 <0>         0.0000
     30 H10        -2.8340    3.1109   10.2403 H         1 <0>         0.0000
     31 H11        -2.2569    1.6667   11.0651 H         1 <0>         0.0000
     32 H12        -1.0923    2.8765   10.4878 H         1 <0>         0.0000
     33 H13        -3.5526    0.2630    9.3583 H         1 <0>         0.0000
     34 H14        -4.0370    1.6412    8.3776 H         1 <0>         0.0000
     35 H15        -3.1322    0.3149    7.6393 H         1 <0>         0.0000
     36 H16         3.0341   -1.8204    9.0507 H         1 <0>         0.0000
     37 H17         2.1370   -2.8809    7.9265 H         1 <0>         0.0000
     38 H18         1.3915   -1.3601    8.5165 H         1 <0>         0.0000
     39 H19        -0.4265    1.8089    6.0925 H         1 <0>         0.0000
     40 H20        -1.4488    0.4273    6.5301 H         1 <0>         0.0000
     41 H21        -3.0707   -1.2091    2.5893 H         1 <0>         0.0000
@<TRIPOS>BOND
     1    1    2 ar
     2    1    4 ar
     3    1   21 1
     4    2    5 ar
     5    2   22 1
     6    3    4 ar
     7    3    6 ar
     8    3   23 1
     9    4   12 1
    10    5    6 ar
    11    5   19 1
    12    6   20 1
    13    7   10 1
    14    7   17 am
    15    7   18 2
    16    8    9 2
    17    8   16 1
    18    8   24 1
    19    9   13 1
    20    9   14 1
    21   10   12 1
    22   10   25 1
    23   10   26 1
    24   11   12 1
    25   11   17 1
    26   11   27 1
    27   11   28 1
    28   12   29 1
    29   13   30 1
    30   13   31 1
    31   13   32 1
    32   14   33 1
    33   14   34 1
    34   14   35 1
    35   15   19 1
    36   15   36 1
    37   15   37 1
    38   15   38 1
    39   16   20 1
    40   16   39 1
    41   16   40 1
    42   17   41 1
