@<TRIPOS>MOLECULE
*****
   65    69     0     0     0
SMALL
NO_CHARGES

@<TRIPOS>ATOM
      1 C1          1.9079    4.0686   -8.9850 C.ar      1 <0>         0.0000
      2 C2          0.6548    2.1420   -9.7773 C.ar      1 <0>         0.0000
      3 C3          1.0603    4.8996   -9.7115 C.ar      1 <0>         0.0000
      4 C4         -0.1795    2.9844  -10.5101 C.ar      1 <0>         0.0000
      5 C5         -0.6457    6.0658   -6.6254 C.ar      1 <0>         0.0000
      6 C6         -1.3899    6.2685   -7.7787 C.ar      1 <0>         0.0000
      7 C7         -1.8115    3.8741   -7.8919 C.ar      1 <0>         0.0000
      8 C8         -1.0517    3.6530   -6.7463 C.ar      1 <0>         0.0000
      9 C9          1.6735    2.6875   -8.9846 C.ar      1 <0>         0.0000
     10 C10        -0.0104    4.3739  -10.4454 C.ar      1 <0>         0.0000
     11 C11        -0.4141    4.7603   -6.1361 C.ar      1 <0>         0.0000
     12 C12        -1.9587    5.1589   -8.4243 C.ar      1 <0>         0.0000
     13 C13         3.5576    2.1587   -7.3784 C.2       1 <0>         0.0000
     14 C14         1.8162    3.2646   -3.5465 C.2       1 <0>         0.0000
     15 C15        -0.8776    2.2589   -6.1848 C.3       1 <0>         0.0000
     16 C16        -0.1583    2.2899   -4.8334 C.3       1 <0>         0.0000
     17 C17         8.0839   -4.0193   -5.5191 C.3       1 <0>         0.0000
     18 C18         7.9556   -4.1791   -7.0651 C.3       1 <0>         0.0000
     19 C19         7.4084   -2.6710   -5.1768 C.3       1 <0>         0.0000
     20 C20         7.2276   -2.9076   -7.5553 C.3       1 <0>         0.0000
     21 C21         0.9754    3.3084   -4.8577 C.3       1 <0>         0.0000
     22 C22         6.4286   -2.4130   -6.3365 C.3       1 <0>         0.0000
     23 C23         5.9277   -0.9732   -6.4607 C.3       1 <0>         0.0000
     24 C24         5.0981   -0.4979   -5.2622 C.3       1 <0>         0.0000
     25 C25         4.5589    0.9225   -5.4092 C.3       1 <0>         0.0000
     26 N1          1.9000    0.6348   -7.7161 N.2       1 <0>         0.0000
     27 N2          2.6476    0.1783   -6.7861 N.2       1 <0>         0.0000
     28 N3          2.4118    1.8477   -8.1169 N.am      1 <0>         0.0000
     29 N4          3.6595    1.0478   -6.5625 N.am      1 <0>         0.0000
     30 N5         -0.9996    5.2330  -11.0144 N.pl3     1 <0>         0.0000
     31 O1          1.6633    4.1802   -2.7160 O.co2     1 <0>         0.0000
     32 O2          4.2938    3.1368   -7.4488 O.2       1 <0>         0.0000
     33 O3          2.5418    2.2225   -3.5047 O.co2     1 <0>         0.0000
     34 O4         -3.0117    6.6490  -10.3922 O.2       1 <0>         0.0000
     35 O5         -3.2556    4.1022  -10.4648 O.2       1 <0>         0.0000
     36 O6          0.4247    4.6437   -5.0952 O.3       1 <0>         0.0000
     37 S1         -2.4986    5.3029  -10.1032 S.o2      1 <0>         0.0000
     38 H1          2.7045    4.4818   -8.3795 H         1 <0>         0.0000
     39 H2          0.4909    1.0704   -9.7766 H         1 <0>         0.0000
     40 H3          1.1904    5.9766   -9.6414 H         1 <0>         0.0000
     41 H4         -1.0076    2.5806  -11.0835 H         1 <0>         0.0000
     42 H5         -0.1793    6.8953   -6.1021 H         1 <0>         0.0000
     43 H6         -1.5188    7.2650   -8.1916 H         1 <0>         0.0000
     44 H7         -2.2725    3.0333   -8.4009 H         1 <0>         0.0000
     45 H8         -1.8596    1.7778   -6.0963 H         1 <0>         0.0000
     46 H9         -0.3021    1.6547   -6.8959 H         1 <0>         0.0000
     47 H10        -0.8484    2.5732   -4.0301 H         1 <0>         0.0000
     48 H11         0.2649    1.3137   -4.5884 H         1 <0>         0.0000
     49 H12         7.5706   -4.8413   -5.0089 H         1 <0>         0.0000
     50 H13         9.1264   -4.0461   -5.1857 H         1 <0>         0.0000
     51 H14         8.9287   -4.3049   -7.5509 H         1 <0>         0.0000
     52 H15         7.3664   -5.0704   -7.3063 H         1 <0>         0.0000
     53 H16         6.9214   -2.6825   -4.1972 H         1 <0>         0.0000
     54 H17         8.1533   -1.8641   -5.1580 H         1 <0>         0.0000
     55 H18         7.9569   -2.1365   -7.8374 H         1 <0>         0.0000
     56 H19         6.5949   -3.0887   -8.4307 H         1 <0>         0.0000
     57 H20         1.6447    3.1048   -5.7013 H         1 <0>         0.0000
     58 H21         5.5583   -3.0740   -6.2050 H         1 <0>         0.0000
     59 H22         6.7893   -0.3035   -6.5966 H         1 <0>         0.0000
     60 H23         5.3240   -0.8856   -7.3726 H         1 <0>         0.0000
     61 H24         4.2619   -1.1847   -5.0910 H         1 <0>         0.0000
     62 H25         5.7050   -0.5123   -4.3501 H         1 <0>         0.0000
     63 H26         5.3642    1.6362   -5.6032 H         1 <0>         0.0000
     64 H27         3.9971    1.2617   -4.5299 H         1 <0>         0.0000
     65 H28        -0.6745    6.1977  -11.0724 H         1 <0>         0.0000
@<TRIPOS>BOND
     1    1    3 ar
     2    1    9 ar
     3    1   38 1
     4    2    4 ar
     5    2    9 ar
     6    2   39 1
     7    3   10 ar
     8    3   40 1
     9    4   10 ar
    10    4   41 1
    11    5    6 ar
    12    5   11 ar
    13    5   42 1
    14    6   12 ar
    15    6   43 1
    16    7    8 ar
    17    7   12 ar
    18    7   44 1
    19    8   11 ar
    20    8   15 1
    21    9   28 1
    22   10   30 1
    23   11   36 1
    24   12   37 1
    25   13   28 am
    26   13   29 am
    27   13   32 2
    28   14   21 1
    29   14   31 1
    30   14   33 2
    31   15   16 1
    32   15   45 1
    33   15   46 1
    34   16   21 1
    35   16   47 1
    36   16   48 1
    37   17   18 1
    38   17   19 1
    39   17   49 1
    40   17   50 1
    41   18   20 1
    42   18   51 1
    43   18   52 1
    44   19   22 1
    45   19   53 1
    46   19   54 1
    47   20   22 1
    48   20   55 1
    49   20   56 1
    50   21   36 1
    51   21   57 1
    52   22   23 1
    53   22   58 1
    54   23   24 1
    55   23   59 1
    56   23   60 1
    57   24   25 1
    58   24   61 1
    59   24   62 1
    60   25   29 1
    61   25   63 1
    62   25   64 1
    63   26   27 2
    64   26   28 1
    65   27   29 1
    66   30   37 1
    67   30   65 1
    68   34   37 2
    69   35   37 2
