@<TRIPOS>MOLECULE
*****
   41    42     0     0     0
SMALL
NO_CHARGES

@<TRIPOS>ATOM
      1 C1         -1.4340   -3.9106    0.2422 C.ar      1 <0>         0.0000
      2 C2         -2.6643   -4.5604    0.0702 C.ar      1 <0>         0.0000
      3 C3         -2.2197   -2.1067   -1.1512 C.ar      1 <0>         0.0000
      4 C4         -1.1989   -2.6780   -0.3672 C.ar      1 <0>         0.0000
      5 C5         -3.6766   -3.9941   -0.6954 C.ar      1 <0>         0.0000
      6 C6         -3.4546   -2.7399   -1.3139 C.ar      1 <0>         0.0000
      7 C7          2.0302   -1.3182    1.1132 C.2       1 <0>         0.0000
      8 C8         -5.6431   -0.5721   -3.2790 C.2       1 <0>         0.0000
      9 C9         -5.8607   -0.2960   -4.5760 C.2       1 <0>         0.0000
     10 C10         1.1948   -2.5223    0.6759 C.3       1 <0>         0.0000
     11 C11        -0.0569   -0.4915    0.3447 C.3       1 <0>         0.0000
     12 C12         0.1080   -1.9241   -0.2307 C.3       1 <0>         0.0000
     13 C13        -7.2417    0.0815   -5.0577 C.3       1 <0>         0.0000
     14 C14        -4.8099   -0.3197   -5.6597 C.3       1 <0>         0.0000
     15 C15        -5.2337   -5.1277   -2.0895 C.3       1 <0>         0.0000
     16 C16        -4.3413   -0.9345   -2.6346 C.3       1 <0>         0.0000
     17 N1          1.2906   -0.1970    0.8185 N.am      1 <0>         0.0000
     18 O1          3.1316   -1.3332    1.6463 O.2       1 <0>         0.0000
     19 O2         -4.8894   -4.6383   -0.7842 O.3       1 <0>         0.0000
     20 O3         -4.4968   -2.2353   -2.0399 O.3       1 <0>         0.0000
     21 H1         -0.6671   -4.3877    0.8431 H         1 <0>         0.0000
     22 H2         -2.8590   -5.5214    0.5383 H         1 <0>         0.0000
     23 H3         -2.0366   -1.1521   -1.6328 H         1 <0>         0.0000
     24 H4         -6.4864   -0.5345   -2.5904 H         1 <0>         0.0000
     25 H5          1.8176   -3.2807    0.1988 H         1 <0>         0.0000
     26 H6          0.7725   -2.9582    1.5888 H         1 <0>         0.0000
     27 H7         -0.3772    0.2294   -0.4132 H         1 <0>         0.0000
     28 H8         -0.7923   -0.4845    1.1611 H         1 <0>         0.0000
     29 H9          0.5455   -1.8091   -1.2307 H         1 <0>         0.0000
     30 H10        -7.2330    1.0724   -5.5294 H         1 <0>         0.0000
     31 H11        -7.5922   -0.6260   -5.8197 H         1 <0>         0.0000
     32 H12        -7.9696    0.0967   -4.2425 H         1 <0>         0.0000
     33 H13        -5.1414   -0.9538   -6.4908 H         1 <0>         0.0000
     34 H14        -4.6630    0.6861   -6.0731 H         1 <0>         0.0000
     35 H15        -3.8399   -0.6890   -5.3232 H         1 <0>         0.0000
     36 H16        -6.1794   -5.6604   -1.9707 H         1 <0>         0.0000
     37 H17        -4.4660   -5.8236   -2.4515 H         1 <0>         0.0000
     38 H18        -5.3582   -4.3074   -2.8016 H         1 <0>         0.0000
     39 H19        -4.0957   -0.2122   -1.8429 H         1 <0>         0.0000
     40 H20        -3.5112   -0.9505   -3.3476 H         1 <0>         0.0000
     41 H21         1.5649    0.6987    1.2039 H         1 <0>         0.0000
@<TRIPOS>BOND
     1    1    2 ar
     2    1    4 ar
     3    1   21 1
     4    2    5 ar
     5    2   22 1
     6    3    4 ar
     7    3    6 ar
     8    3   23 1
     9    4   12 1
    10    5    6 ar
    11    5   19 1
    12    6   20 1
    13    7   10 1
    14    7   17 am
    15    7   18 2
    16    8    9 2
    17    8   16 1
    18    8   24 1
    19    9   13 1
    20    9   14 1
    21   10   12 1
    22   10   25 1
    23   10   26 1
    24   11   12 1
    25   11   17 1
    26   11   27 1
    27   11   28 1
    28   12   29 1
    29   13   30 1
    30   13   31 1
    31   13   32 1
    32   14   33 1
    33   14   34 1
    34   14   35 1
    35   15   19 1
    36   15   36 1
    37   15   37 1
    38   15   38 1
    39   16   20 1
    40   16   39 1
    41   16   40 1
    42   17   41 1
