@<TRIPOS>MOLECULE
*****
   50    53     0     0     0
SMALL
NO_CHARGES

@<TRIPOS>ATOM
      1 C1          3.5409    3.4692   -3.5369 C.ar      1 <0>         0.0000
      2 C2          2.2890   -0.7622    0.1652 C.ar      1 <0>         0.0000
      3 C3          3.8166    3.7720   -4.8676 C.ar      1 <0>         0.0000
      4 C4          2.4981   -2.1379    0.2168 C.ar      1 <0>         0.0000
      5 C5          1.7619    1.4944   -6.7901 C.2       1 <0>         0.0000
      6 C6          1.9373    1.7362   -4.1694 C.ar      1 <0>         0.0000
      7 C7          2.4207    2.2094   -7.7403 C.2       1 <0>         0.0000
      8 C8          2.2088    2.0162   -5.5169 C.ar      1 <0>         0.0000
      9 C9          2.6025    2.4723   -3.1825 C.ar      1 <0>         0.0000
     10 C10         0.9918   -0.2321    0.1116 C.ar      1 <0>         0.0000
     11 C11        -0.1456   -1.0626    0.1074 C.ar      1 <0>         0.0000
     12 C12         3.1345    3.0319   -5.8294 C.ar      1 <0>         0.0000
     13 C13         0.0761   -2.4543    0.1794 C.ar      1 <0>         0.0000
     14 C14         1.3789   -2.9504    0.2232 C.ar      1 <0>         0.0000
     15 C15         2.3998    2.2283   -1.7163 C.2       1 <0>         0.0000
     16 C16        -1.5921    1.0231   -0.1431 C.3       1 <0>         0.0000
     17 C17         0.8997    1.2821    0.0076 C.3       1 <0>         0.0000
     18 C18        -1.5769   -0.5091    0.0848 C.3       1 <0>         0.0000
     19 C19        -0.4525    1.7934    0.5260 C.3       1 <0>         0.0000
     20 C20        -2.2791   -0.8530    1.4217 C.3       1 <0>         0.0000
     21 C21        -2.3927   -1.1131   -1.0837 C.3       1 <0>         0.0000
     22 C22        -0.6263    3.3117    0.2748 C.3       1 <0>         0.0000
     23 N1          1.1736    1.7281   -1.3542 N.am      1 <0>         0.0000
     24 O1          3.2779    2.4783   -0.8889 O.2       1 <0>         0.0000
     25 O2          3.2637    3.1525   -7.1895 O.3       1 <0>         0.0000
     26 O3         -0.9739   -3.3397    0.2197 O.3       1 <0>         0.0000
     27 O4         -0.3961    1.6078    1.9352 O.3       1 <0>         0.0000
     28 F1          1.5113   -4.3144    0.2891 F         1 <0>         0.0000
     29 F2         -1.6720    3.7735    1.0246 F         1 <0>         0.0000
     30 F3          0.4583    4.0211    0.6264 F         1 <0>         0.0000
     31 F4         -0.9212    3.6127   -1.0127 F         1 <0>         0.0000
     32 H1          4.0497    3.9939   -2.7353 H         1 <0>         0.0000
     33 H2          3.1369   -0.0840    0.1632 H         1 <0>         0.0000
     34 H3          4.5310    4.5408   -5.1450 H         1 <0>         0.0000
     35 H4          3.4905   -2.5752    0.2608 H         1 <0>         0.0000
     36 H5          1.0488    0.7007   -6.9701 H         1 <0>         0.0000
     37 H6          1.2569    0.9279   -3.9139 H         1 <0>         0.0000
     38 H7          2.4088    2.1801   -8.8210 H         1 <0>         0.0000
     39 H8         -1.5470    1.2273   -1.2178 H         1 <0>         0.0000
     40 H9         -2.5585    1.4173    0.1900 H         1 <0>         0.0000
     41 H10         1.6796    1.7296    0.6239 H         1 <0>         0.0000
     42 H11        -3.2840   -0.4147    1.4407 H         1 <0>         0.0000
     43 H12        -1.7109   -0.4705    2.2719 H         1 <0>         0.0000
     44 H13        -2.3812   -1.9332    1.5371 H         1 <0>         0.0000
     45 H14        -3.3698   -0.6198   -1.1428 H         1 <0>         0.0000
     46 H15        -2.5566   -2.1821   -0.9544 H         1 <0>         0.0000
     47 H16        -1.8785   -0.9576   -2.0389 H         1 <0>         0.0000
     48 H17         0.5089    1.4999   -2.0795 H         1 <0>         0.0000
     49 H18        -0.6041   -4.2375    0.2838 H         1 <0>         0.0000
     50 H19        -1.2522    1.8674    2.3139 H         1 <0>         0.0000
@<TRIPOS>BOND
     1    1    3 ar
     2    1    9 ar
     3    1   32 1
     4    2    4 ar
     5    2   10 ar
     6    2   33 1
     7    3   12 ar
     8    3   34 1
     9    4   14 ar
    10    4   35 1
    11    5    7 2
    12    5    8 1
    13    5   36 1
    14    6    8 ar
    15    6    9 ar
    16    6   37 1
    17    7   25 1
    18    7   38 1
    19    8   12 ar
    20    9   15 1
    21   10   11 ar
    22   10   17 1
    23   11   13 ar
    24   11   18 1
    25   12   25 1
    26   13   14 ar
    27   13   26 1
    28   14   28 1
    29   15   23 am
    30   15   24 2
    31   16   18 1
    32   16   19 1
    33   16   39 1
    34   16   40 1
    35   17   19 1
    36   17   23 1
    37   17   41 1
    38   18   20 1
    39   18   21 1
    40   19   22 1
    41   19   27 1
    42   20   42 1
    43   20   43 1
    44   20   44 1
    45   21   45 1
    46   21   46 1
    47   21   47 1
    48   22   29 1
    49   22   30 1
    50   22   31 1
    51   23   48 1
    52   26   49 1
    53   27   50 1
