@<TRIPOS>MOLECULE
*****
   45    47     0     0     0
SMALL
NO_CHARGES

@<TRIPOS>ATOM
      1 C1         -0.4411   -9.8372    5.2421 C.ar      1 <0>         0.0000
      2 C2         -1.1311   -8.6389    5.4549 C.ar      1 <0>         0.0000
      3 C3          0.4146   -9.9507    4.1411 C.ar      1 <0>         0.0000
      4 C4         -0.9662   -7.5664    4.5757 C.ar      1 <0>         0.0000
      5 C5          0.5781   -8.8775    3.2626 C.ar      1 <0>         0.0000
      6 C6          1.3163   -6.2335    1.9663 C.ar      1 <0>         0.0000
      7 C7         -1.0183   -5.7178    2.1611 C.ar      1 <0>         0.0000
      8 C8          1.4742   -5.1738    1.0783 C.ar      1 <0>         0.0000
      9 C9         -0.8553   -4.6565    1.2664 C.ar      1 <0>         0.0000
     10 C10        -0.1094   -7.6674    3.4651 C.ar      1 <0>         0.0000
     11 C11         0.0635   -6.5304    2.5294 C.ar      1 <0>         0.0000
     12 C12         0.3935   -4.3566    0.7046 C.ar      1 <0>         0.0000
     13 C13         0.9439   -6.1973   -2.1731 C.2       1 <0>         0.0000
     14 C14         0.5037   -0.2316   -0.8330 C.3       1 <0>         0.0000
     15 C15         1.8323   -0.9342   -0.5277 C.3       1 <0>         0.0000
     16 C16        -0.5012   -1.1986   -1.4720 C.3       1 <0>         0.0000
     17 C17         1.6186   -2.1955    0.3227 C.3       1 <0>         0.0000
     18 C18        -0.6977   -2.4530   -0.6075 C.3       1 <0>         0.0000
     19 C19         0.6142   -3.2107   -0.2904 C.3       1 <0>         0.0000
     20 C20         1.2230   -3.8019   -1.5927 C.3       1 <0>         0.0000
     21 N1          0.4623   -4.9217   -2.1327 N.am      1 <0>         0.0000
     22 O1          2.0793   -6.5394   -1.8643 O.2       1 <0>         0.0000
     23 H1         -0.5684  -10.6723    5.9261 H         1 <0>         0.0000
     24 H2         -1.7911   -8.5360    6.3127 H         1 <0>         0.0000
     25 H3          0.9488  -10.8802    3.9604 H         1 <0>         0.0000
     26 H4         -1.4857   -6.6311    4.7666 H         1 <0>         0.0000
     27 H5          1.2239   -8.9868    2.3955 H         1 <0>         0.0000
     28 H6          2.1826   -6.8318    2.2348 H         1 <0>         0.0000
     29 H7         -2.0097   -5.9352    2.5502 H         1 <0>         0.0000
     30 H8          2.4598   -5.0017    0.6578 H         1 <0>         0.0000
     31 H9         -1.7320   -4.0748    1.0040 H         1 <0>         0.0000
     32 H10         0.1855   -6.9155   -2.5382 H         1 <0>         0.0000
     33 H11         0.6684    0.6334   -1.4858 H         1 <0>         0.0000
     34 H12         0.0799    0.1561    0.1037 H         1 <0>         0.0000
     35 H13         2.3388   -1.1900   -1.4666 H         1 <0>         0.0000
     36 H14         2.5056   -0.2527    0.0051 H         1 <0>         0.0000
     37 H15        -1.4696   -0.7025   -1.6052 H         1 <0>         0.0000
     38 H16        -0.1600   -1.4710   -2.4785 H         1 <0>         0.0000
     39 H17         2.5780   -2.6909    0.5050 H         1 <0>         0.0000
     40 H18         1.2335   -1.9017    1.3072 H         1 <0>         0.0000
     41 H19        -1.1517   -2.1372    0.3392 H         1 <0>         0.0000
     42 H20        -1.4266   -3.1234   -1.0813 H         1 <0>         0.0000
     43 H21         2.2269   -4.1831   -1.4053 H         1 <0>         0.0000
     44 H22         1.3132   -3.0291   -2.3601 H         1 <0>         0.0000
     45 H23        -0.5141   -4.7870   -2.3596 H         1 <0>         0.0000
@<TRIPOS>BOND
     1    1    3 ar
     2    1    2 ar
     3    1   23 1
     4    2    4 ar
     5    2   24 1
     6    3    5 ar
     7    3   25 1
     8    4   10 ar
     9    4   26 1
    10    5   10 ar
    11    5   27 1
    12    6    8 ar
    13    6   11 ar
    14    6   28 1
    15    7    9 ar
    16    7   11 ar
    17    7   29 1
    18    8   12 ar
    19    8   30 1
    20    9   12 ar
    21    9   31 1
    22   10   11 1
    23   12   19 1
    24   13   21 am
    25   13   22 2
    26   13   32 1
    27   14   16 1
    28   14   15 1
    29   14   33 1
    30   14   34 1
    31   15   17 1
    32   15   35 1
    33   15   36 1
    34   16   18 1
    35   16   37 1
    36   16   38 1
    37   17   19 1
    38   17   39 1
    39   17   40 1
    40   18   19 1
    41   18   41 1
    42   18   42 1
    43   19   20 1
    44   20   21 1
    45   20   43 1
    46   20   44 1
    47   21   45 1
