@<TRIPOS>MOLECULE
*****
   33    35     0     0     0
SMALL
NO_CHARGES

@<TRIPOS>ATOM
      1 C1         -4.7896   -0.5635   -4.7387 C.ar      1 <0>         0.0000
      2 C2         -6.9414   -1.6172   -4.9721 C.ar      1 <0>         0.0000
      3 C3         -4.4130   -1.6043   -3.8833 C.ar      1 <0>         0.0000
      4 C4         -6.0673   -0.5749   -5.2853 C.ar      1 <0>         0.0000
      5 C5         -5.3527   -2.6218   -3.6183 C.ar      1 <0>         0.0000
      6 C6         -2.3483    1.2517   -0.9891 C.3       1 <0>         0.0000
      7 C7         -2.8951   -0.0758   -0.4835 C.3       1 <0>         0.0000
      8 C8         -5.3999   -5.1502   -3.1225 C.3       1 <0>         0.0000
      9 C9         -3.9465   -4.7302   -3.0384 C.3       1 <0>         0.0000
     10 C10        -3.1581    0.3853   -1.9088 C.3       1 <0>         0.0000
     11 C11        -5.0501   -3.7546   -2.6728 C.3       1 <0>         0.0000
     12 C12        -5.2708   -3.4044   -1.2070 C.3       1 <0>         0.0000
     13 C13        -3.0092   -1.6068   -3.2986 C.3       1 <0>         0.0000
     14 N1         -6.5852   -2.6127   -4.1564 N.ar      1 <0>         0.0000
     15 N2         -2.5283   -0.2439   -3.0488 N.3       1 <0>         0.0000
     16 Br1        -6.6373    0.8327   -6.4568 Br        1 <0>         0.0000
     17 H1         -4.0855    0.2360   -4.9453 H         1 <0>         0.0000
     18 H2         -7.9478   -1.6471   -5.3844 H         1 <0>         0.0000
     19 H3         -2.7912    2.1731   -0.6231 H         1 <0>         0.0000
     20 H4         -1.2773    1.3156   -1.1675 H         1 <0>         0.0000
     21 H5         -2.1811   -0.8832   -0.3410 H         1 <0>         0.0000
     22 H6         -3.7116   -0.0615    0.2334 H         1 <0>         0.0000
     23 H7         -5.8451   -5.2623   -4.1056 H         1 <0>         0.0000
     24 H8         -5.7796   -5.8389   -2.3729 H         1 <0>         0.0000
     25 H9         -3.3339   -5.1285   -2.2333 H         1 <0>         0.0000
     26 H10        -3.4144   -4.5758   -3.9733 H         1 <0>         0.0000
     27 H11        -4.1711    0.7199   -2.1193 H         1 <0>         0.0000
     28 H12        -5.0220   -4.2543   -0.5625 H         1 <0>         0.0000
     29 H13        -6.3208   -3.1435   -1.0363 H         1 <0>         0.0000
     30 H14        -4.6565   -2.5520   -0.8965 H         1 <0>         0.0000
     31 H15        -2.9863   -2.2295   -2.3967 H         1 <0>         0.0000
     32 H16        -2.3301   -2.0731   -4.0236 H         1 <0>         0.0000
     33 H17        -1.5188   -0.2522   -2.9323 H         1 <0>         0.0000
@<TRIPOS>BOND
     1    1    3 ar
     2    1    4 ar
     3    1   17 1
     4    2    4 ar
     5    2   14 ar
     6    2   18 1
     7    3    5 ar
     8    3   13 1
     9    4   16 1
    10    5   11 1
    11    5   14 ar
    12    6    7 1
    13    6   10 1
    14    6   19 1
    15    6   20 1
    16    7   10 1
    17    7   21 1
    18    7   22 1
    19    8    9 1
    20    8   11 1
    21    8   23 1
    22    8   24 1
    23    9   11 1
    24    9   25 1
    25    9   26 1
    26   10   15 1
    27   10   27 1
    28   11   12 1
    29   12   28 1
    30   12   29 1
    31   12   30 1
    32   13   15 1
    33   13   31 1
    34   13   32 1
    35   15   33 1
