@<TRIPOS>MOLECULE
*****
   29    30     0     0     0
SMALL
NO_CHARGES

@<TRIPOS>ATOM
      1 C1          1.5307    4.0496    3.7006 C.ar      1 <0>         0.0000
      2 C2          0.2219    4.5295    3.7860 C.ar      1 <0>         0.0000
      3 C3          1.9360    3.3455    2.5657 C.ar      1 <0>         0.0000
      4 C4         -0.6736    4.3045    2.7376 C.ar      1 <0>         0.0000
      5 C5          1.0623    3.1130    1.4929 C.ar      1 <0>         0.0000
      6 C6         -0.2475    3.6056    1.6083 C.ar      1 <0>         0.0000
      7 C7          0.7340    0.0898    0.5940 C.cat     1 <0>         0.0000
      8 C8          0.2985   -2.0789    1.2682 C.3       1 <0>         0.0000
      9 C9          1.3466   -1.4139    2.1787 C.3       1 <0>         0.0000
     10 C10         1.7870    3.2728   -0.9604 C.3       1 <0>         0.0000
     11 C11         1.6036    2.3842    0.2733 C.3       1 <0>         0.0000
     12 N1         -0.1508   -0.9095    0.4922 N.pl3     1 <0>         0.0000
     13 N2          0.7540    1.2127   -0.0947 N.pl3     1 <0>         0.0000
     14 O1          1.6697   -0.1485    1.4961 O.3       1 <0>         0.0000
     15 Cl1        -1.4402    3.3656    0.3212 Cl        1 <0>         0.0000
     16 H1          2.2318    4.2203    4.5118 H         1 <0>         0.0000
     17 H2         -0.1083    5.0787    4.6627 H         1 <0>         0.0000
     18 H3          2.9548    2.9706    2.5026 H         1 <0>         0.0000
     19 H4         -1.6931    4.6726    2.7902 H         1 <0>         0.0000
     20 H5          0.7301   -2.8381    0.6099 H         1 <0>         0.0000
     21 H6         -0.5278   -2.5102    1.8346 H         1 <0>         0.0000
     22 H7          0.9540   -1.1482    3.1609 H         1 <0>         0.0000
     23 H8          2.2759   -1.9716    2.2739 H         1 <0>         0.0000
     24 H9          0.8417    3.7041   -1.2968 H         1 <0>         0.0000
     25 H10         2.2354    2.7041   -1.7801 H         1 <0>         0.0000
     26 H11         2.4569    4.0961   -0.7034 H         1 <0>         0.0000
     27 H12         2.5746    1.9666    0.5418 H         1 <0>         0.0000
     28 H13        -0.8680   -0.9502   -0.2224 H         1 <0>         0.0000
     29 H14        -0.0306    1.3978   -0.7117 H         1 <0>         0.0000
@<TRIPOS>BOND
     1    1    2 ar
     2    1    3 ar
     3    1   16 1
     4    2    4 ar
     5    2   17 1
     6    3    5 ar
     7    3   18 1
     8    4    6 ar
     9    4   19 1
    10    5    6 ar
    11    5   11 1
    12    6   15 1
    13    7   12 1
    14    7   13 2
    15    7   14 1
    16    8    9 1
    17    8   12 1
    18    8   20 1
    19    8   21 1
    20    9   14 1
    21    9   22 1
    22    9   23 1
    23   10   11 1
    24   10   24 1
    25   10   25 1
    26   10   26 1
    27   11   13 1
    28   11   27 1
    29   12   28 1
    30   13   29 1
