@<TRIPOS>MOLECULE
*****
   43    44     0     0     0
SMALL
NO_CHARGES

@<TRIPOS>ATOM
      1 C1          4.0422    3.6679   -7.8034 C.2       1 <0>         0.0000
      2 C2          2.7598    4.5681   -6.1684 C.2       1 <0>         0.0000
      3 C3          2.1614    2.2842   -5.1993 C.2       1 <0>         0.0000
      4 C4         -0.3873    1.9738   -0.4837 C.3       1 <0>         0.0000
      5 C5         -1.3033    2.2702   -1.6799 C.3       1 <0>         0.0000
      6 C6          0.8607    1.1928   -0.9193 C.3       1 <0>         0.0000
      7 C7         -0.5501    2.9946   -2.8048 C.3       1 <0>         0.0000
      8 C8          1.6152    1.9241   -2.0382 C.3       1 <0>         0.0000
      9 C9          0.6928    2.2071   -3.2348 C.3       1 <0>         0.0000
     10 C10         4.9061    3.5777   -9.0140 C.3       1 <0>         0.0000
     11 C11         5.3429    6.7273   -5.8264 C.3       1 <0>         0.0000
     12 C12         5.2807    8.0755   -7.9736 C.3       1 <0>         0.0000
     13 C13         5.1658    6.6873   -7.3437 C.3       1 <0>         0.0000
     14 N1          3.5917    2.6431   -7.1458 N.2       1 <0>         0.0000
     15 N2          3.5732    4.8643   -7.2657 N.am      1 <0>         0.0000
     16 N3          2.8082    3.1768   -6.1299 N.am      1 <0>         0.0000
     17 N4          1.3888    2.9334   -4.2963 N.am      1 <0>         0.0000
     18 N5          3.8171    6.1740   -7.6773 N.3       1 <0>         0.0000
     19 O1          2.1732    5.3485   -5.4238 O.2       1 <0>         0.0000
     20 O2          2.3272    1.0788   -5.2788 O.2       1 <0>         0.0000
     21 H1         -0.9375    1.4160    0.2832 H         1 <0>         0.0000
     22 H2         -0.0775    2.9219   -0.0225 H         1 <0>         0.0000
     23 H3         -1.7074    1.3255   -2.0685 H         1 <0>         0.0000
     24 H4         -2.1634    2.8713   -1.3631 H         1 <0>         0.0000
     25 H5          1.5266    1.0290   -0.0643 H         1 <0>         0.0000
     26 H6          0.5606    0.1983   -1.2767 H         1 <0>         0.0000
     27 H7         -1.2040    3.1505   -3.6702 H         1 <0>         0.0000
     28 H8         -0.2407    3.9895   -2.4534 H         1 <0>         0.0000
     29 H9          2.0039    2.8802   -1.6612 H         1 <0>         0.0000
     30 H10         2.4725    1.3353   -2.3793 H         1 <0>         0.0000
     31 H11         0.3792    1.2487   -3.6613 H         1 <0>         0.0000
     32 H12         4.4447    4.0826   -9.8698 H         1 <0>         0.0000
     33 H13         5.0430    2.5244   -9.2624 H         1 <0>         0.0000
     34 H14         5.8872    4.0315   -8.8444 H         1 <0>         0.0000
     35 H15         4.5621    7.3407   -5.3686 H         1 <0>         0.0000
     36 H16         5.2862    5.7262   -5.3897 H         1 <0>         0.0000
     37 H17         6.3236    7.1448   -5.5772 H         1 <0>         0.0000
     38 H18         4.5206    8.7456   -7.5605 H         1 <0>         0.0000
     39 H19         5.1517    8.0368   -9.0621 H         1 <0>         0.0000
     40 H20         6.2680    8.5004   -7.7723 H         1 <0>         0.0000
     41 H21         5.9495    6.0418   -7.7720 H         1 <0>         0.0000
     42 H22         1.3769    3.9520   -4.3144 H         1 <0>         0.0000
     43 H23         3.6247    6.2440   -8.6742 H         1 <0>         0.0000
@<TRIPOS>BOND
     1    1   10 1
     2    1   14 2
     3    1   15 1
     4    2   15 am
     5    2   16 am
     6    2   19 2
     7    3   16 am
     8    3   17 am
     9    3   20 2
    10    4    6 1
    11    4    5 1
    12    4   21 1
    13    4   22 1
    14    5    7 1
    15    5   23 1
    16    5   24 1
    17    6    8 1
    18    6   25 1
    19    6   26 1
    20    7    9 1
    21    7   27 1
    22    7   28 1
    23    8    9 1
    24    8   29 1
    25    8   30 1
    26    9   17 1
    27    9   31 1
    28   10   32 1
    29   10   33 1
    30   10   34 1
    31   11   13 1
    32   11   35 1
    33   11   36 1
    34   11   37 1
    35   12   13 1
    36   12   38 1
    37   12   39 1
    38   12   40 1
    39   13   18 1
    40   13   41 1
    41   14   16 1
    42   15   18 1
    43   17   42 1
    44   18   43 1
