@<TRIPOS>MOLECULE
*****
   51    53     0     0     0
SMALL
NO_CHARGES

@<TRIPOS>ATOM
      1 C1          2.9497    2.7163   -0.4694 C.ar      1 <0>         0.0000
      2 C2          1.5190    2.4599    1.4479 C.ar      1 <0>         0.0000
      3 C3          3.8076    3.5373    0.2636 C.ar      1 <0>         0.0000
      4 C4          2.3632    3.2827    2.1957 C.ar      1 <0>         0.0000
      5 C5          1.7968    2.1608    0.1050 C.ar      1 <0>         0.0000
      6 C6          3.5075    3.8163    1.5987 C.ar      1 <0>         0.0000
      7 C7         -4.3235   -3.6889   -2.5528 C.3       1 <0>         0.0000
      8 C8         -2.1058   -2.5542   -2.8857 C.3       1 <0>         0.0000
      9 C9         -2.7042   -3.4663   -0.6411 C.3       1 <0>         0.0000
     10 C10        -0.5832    1.3485   -0.5213 C.3       1 <0>         0.0000
     11 C11         0.9330    1.2437   -0.7311 C.3       1 <0>         0.0000
     12 C12        -3.5709   -2.5944   -3.3203 C.3       1 <0>         0.0000
     13 C13        -4.1805   -3.5329   -1.0330 C.3       1 <0>         0.0000
     14 C14         1.1916   -0.2879   -0.5731 C.3       1 <0>         0.0000
     15 C15        -0.0527   -0.8160   -1.3111 C.3       1 <0>         0.0000
     16 C16        -3.6516   -2.7844   -4.8397 C.3       1 <0>         0.0000
     17 C17        -4.8667   -4.6672   -0.2619 C.3       1 <0>         0.0000
     18 C18         1.3351   -0.7577    0.8771 C.3       1 <0>         0.0000
     19 C19        -0.5495   -2.2065   -0.9276 C.3       1 <0>         0.0000
     20 N1         -1.9793   -2.3730   -1.3902 N.4       1 <0>         0.0000
     21 O1         -1.1297    0.0875   -0.9973 O.3       1 <0>         0.0000
     22 Cl1         4.5688    4.8475    2.5289 Cl        1 <0>         0.0000
     23 H1          3.1856    2.5100   -1.5111 H         1 <0>         0.0000
     24 H2          0.6382    2.0547    1.9368 H         1 <0>         0.0000
     25 H3          4.6949    3.9615   -0.1954 H         1 <0>         0.0000
     26 H4          2.1356    3.5099    3.2323 H         1 <0>         0.0000
     27 H5         -5.3833   -3.6651   -2.8245 H         1 <0>         0.0000
     28 H6         -3.9441   -4.6745   -2.8560 H         1 <0>         0.0000
     29 H7         -1.5910   -3.4887   -3.1286 H         1 <0>         0.0000
     30 H8         -1.5755   -1.7271   -3.3584 H         1 <0>         0.0000
     31 H9         -2.5818   -3.2570    0.4241 H         1 <0>         0.0000
     32 H10        -2.1852   -4.4013   -0.8735 H         1 <0>         0.0000
     33 H11        -0.8657    1.4624    0.5279 H         1 <0>         0.0000
     34 H12        -1.0328    2.1595   -1.0979 H         1 <0>         0.0000
     35 H13         1.1288    1.4799   -1.7830 H         1 <0>         0.0000
     36 H14        -4.0188   -1.6216   -3.0719 H         1 <0>         0.0000
     37 H15        -4.6481   -2.5834   -0.7352 H         1 <0>         0.0000
     38 H16         2.0947   -0.5626   -1.1264 H         1 <0>         0.0000
     39 H17         0.1381   -0.7739   -2.3923 H         1 <0>         0.0000
     40 H18        -3.2051   -3.7376   -5.1432 H         1 <0>         0.0000
     41 H19        -3.1371   -1.9801   -5.3752 H         1 <0>         0.0000
     42 H20        -4.6952   -2.7870   -5.1655 H         1 <0>         0.0000
     43 H21        -4.4298   -5.6387   -0.5172 H         1 <0>         0.0000
     44 H22        -5.9303   -4.7042   -0.5117 H         1 <0>         0.0000
     45 H23        -4.7831   -4.5289    0.8208 H         1 <0>         0.0000
     46 H24         0.4394   -0.5544    1.4738 H         1 <0>         0.0000
     47 H25         2.1702   -0.2430    1.3559 H         1 <0>         0.0000
     48 H26         1.5451   -1.8309    0.9303 H         1 <0>         0.0000
     49 H27        -0.5657   -2.3210    0.1557 H         1 <0>         0.0000
     50 H28         0.0523   -3.0050   -1.3668 H         1 <0>         0.0000
     51 H29        -2.4191   -1.4700   -1.1543 H         1 <0>         0.0000
@<TRIPOS>BOND
     1    1    3 ar
     2    1    5 ar
     3    1   23 1
     4    2    4 ar
     5    2    5 ar
     6    2   24 1
     7    3    6 ar
     8    3   25 1
     9    4    6 ar
    10    4   26 1
    11    5   11 1
    12    6   22 1
    13    7   12 1
    14    7   13 1
    15    7   27 1
    16    7   28 1
    17    8   12 1
    18    8   20 1
    19    8   29 1
    20    8   30 1
    21    9   13 1
    22    9   20 1
    23    9   31 1
    24    9   32 1
    25   10   11 1
    26   10   21 1
    27   10   33 1
    28   10   34 1
    29   11   14 1
    30   11   35 1
    31   12   16 1
    32   12   36 1
    33   13   17 1
    34   13   37 1
    35   14   15 1
    36   14   18 1
    37   14   38 1
    38   15   19 1
    39   15   21 1
    40   15   39 1
    41   16   40 1
    42   16   41 1
    43   16   42 1
    44   17   43 1
    45   17   44 1
    46   17   45 1
    47   18   46 1
    48   18   47 1
    49   18   48 1
    50   19   20 1
    51   19   49 1
    52   19   50 1
    53   20   51 1
