@<TRIPOS>MOLECULE
*****
   41    42     0     0     0
SMALL
NO_CHARGES

@<TRIPOS>ATOM
      1 C1          4.2497   -2.5937   -6.0859 C.2       1 <0>         0.0000
      2 C2          5.3425   -1.0478   -7.5025 C.2       1 <0>         0.0000
      3 C3          3.4973   -3.3673   -5.0298 C.2       1 <0>         0.0000
      4 C4          0.0434   -1.6118   -0.3300 C.3       1 <0>         0.0000
      5 C5          0.7478   -0.8432   -1.4567 C.3       1 <0>         0.0000
      6 C6         -0.1630   -3.0855   -0.7068 C.3       1 <0>         0.0000
      7 C7          2.0692   -1.5164   -1.8539 C.3       1 <0>         0.0000
      8 C8          1.1597   -3.7541   -1.1075 C.3       1 <0>         0.0000
      9 C9          1.8643   -2.9896   -2.2390 C.3       1 <0>         0.0000
     10 C10         5.4653    1.6129  -10.6343 C.3       1 <0>         0.0000
     11 C11         3.5170    0.7982   -9.2037 C.3       1 <0>         0.0000
     12 C12         3.1840   -3.6828   -2.6042 C.3       1 <0>         0.0000
     13 C13         4.9231    0.5142   -9.7190 C.3       1 <0>         0.0000
     14 N1          4.6161   -3.1279   -7.2220 N.2       1 <0>         0.0000
     15 N2          5.2592   -2.2311   -8.0353 N.2       1 <0>         0.0000
     16 N3          3.8600   -3.0722   -3.7490 N.am      1 <0>         0.0000
     17 O1          2.6256   -4.1731   -5.3312 O.2       1 <0>         0.0000
     18 O2          5.8635    1.5423   -7.3461 O.2       1 <0>         0.0000
     19 S1          4.6490   -0.8941   -5.9135 S.3       1 <0>         0.0000
     20 S2          6.1334    0.3847   -8.2908 S.o       1 <0>         0.0000
     21 H1         -0.9188   -1.1422   -0.0945 H         1 <0>         0.0000
     22 H2          0.6531   -1.5539    0.5825 H         1 <0>         0.0000
     23 H3          0.0882   -0.8021   -2.3343 H         1 <0>         0.0000
     24 H4          0.9315    0.1942   -1.1539 H         1 <0>         0.0000
     25 H5         -0.6209   -3.6311    0.1265 H         1 <0>         0.0000
     26 H6         -0.8664   -3.1491   -1.5481 H         1 <0>         0.0000
     27 H7          2.5310   -0.9702   -2.6852 H         1 <0>         0.0000
     28 H8          2.7715   -1.4614   -1.0081 H         1 <0>         0.0000
     29 H9          1.8239   -3.7944   -0.2314 H         1 <0>         0.0000
     30 H10         0.9803   -4.7917   -1.4145 H         1 <0>         0.0000
     31 H11         1.2220   -3.0296   -3.1286 H         1 <0>         0.0000
     32 H12         5.4676    2.5798  -10.1220 H         1 <0>         0.0000
     33 H13         6.4826    1.3960  -10.9752 H         1 <0>         0.0000
     34 H14         4.8244    1.6985  -11.5175 H         1 <0>         0.0000
     35 H15         3.5237    1.6656   -8.5368 H         1 <0>         0.0000
     36 H16         3.0977   -0.0562   -8.6665 H         1 <0>         0.0000
     37 H17         2.8579    1.0202  -10.0493 H         1 <0>         0.0000
     38 H18         2.9963   -4.7320   -2.8489 H         1 <0>         0.0000
     39 H19         3.8770   -3.6517   -1.7568 H         1 <0>         0.0000
     40 H20         4.9902   -0.4680  -10.1986 H         1 <0>         0.0000
     41 H21         4.6400   -2.4502   -3.5863 H         1 <0>         0.0000
@<TRIPOS>BOND
     1    1    3 1
     2    1   14 2
     3    1   19 1
     4    2   15 2
     5    2   19 1
     6    2   20 1
     7    3   16 am
     8    3   17 2
     9    4    6 1
    10    4    5 1
    11    4   21 1
    12    4   22 1
    13    5    7 1
    14    5   23 1
    15    5   24 1
    16    6    8 1
    17    6   25 1
    18    6   26 1
    19    7    9 1
    20    7   27 1
    21    7   28 1
    22    8    9 1
    23    8   29 1
    24    8   30 1
    25    9   12 1
    26    9   31 1
    27   10   13 1
    28   10   32 1
    29   10   33 1
    30   10   34 1
    31   11   13 1
    32   11   35 1
    33   11   36 1
    34   11   37 1
    35   12   16 1
    36   12   38 1
    37   12   39 1
    38   13   20 1
    39   13   40 1
    40   14   15 1
    41   16   41 1
    42   18   20 2
