@<TRIPOS>MOLECULE
*****
   30    32     0     0     0
SMALL
NO_CHARGES

@<TRIPOS>ATOM
      1 C1         -0.0179   -1.3641    1.1719 C.ar      1 <0>         0.0000
      2 C2          0.9437   -6.3400    4.6371 C.ar      1 <0>         0.0000
      3 C3          0.5467   -0.8315    0.0050 C.ar      1 <0>         0.0000
      4 C4          1.8347   -5.5755    5.3970 C.ar      1 <0>         0.0000
      5 C5          0.2480   -2.6848    1.5163 C.ar      1 <0>         0.0000
      6 C6          0.8242   -6.1032    3.2680 C.ar      1 <0>         0.0000
      7 C7          1.3393   -1.6307   -0.8133 C.ar      1 <0>         0.0000
      8 C8          2.6086   -4.5887    4.7825 C.ar      1 <0>         0.0000
      9 C9          1.0536   -3.5092    0.7092 C.ar      1 <0>         0.0000
     10 C10         1.5729   -5.1005    2.6311 C.ar      1 <0>         0.0000
     11 C11         1.5903   -2.9728   -0.4817 C.ar      1 <0>         0.0000
     12 C12         2.4735   -4.3580    3.4117 C.ar      1 <0>         0.0000
     13 C13         1.3758   -4.8848    1.1634 C.2       1 <0>         0.0000
     14 C14         2.2715   -5.0316   -1.7324 C.2       1 <0>         0.0000
     15 C15         1.1650   -5.7886   -1.0068 C.3       1 <0>         0.0000
     16 N1          1.4491   -5.9271    0.4155 N.2       1 <0>         0.0000
     17 N2          2.4413   -3.7183   -1.3179 N.am      1 <0>         0.0000
     18 O1          2.9657   -5.5117   -2.6157 O.2       1 <0>         0.0000
     19 Cl1         3.5226   -3.1519    2.6787 Cl        1 <0>         0.0000
     20 H1         -0.6457   -0.7484    1.8094 H         1 <0>         0.0000
     21 H2          0.3478   -7.1166    5.1083 H         1 <0>         0.0000
     22 H3          0.3635    0.2037   -0.2699 H         1 <0>         0.0000
     23 H4          1.9390   -5.7498    6.4644 H         1 <0>         0.0000
     24 H5         -0.1563   -3.0944    2.4373 H         1 <0>         0.0000
     25 H6          0.1454   -6.6938    2.6604 H         1 <0>         0.0000
     26 H7          1.7687   -1.2220   -1.7251 H         1 <0>         0.0000
     27 H8          3.3232   -4.0061    5.3551 H         1 <0>         0.0000
     28 H9          0.2164   -5.2571   -1.1795 H         1 <0>         0.0000
     29 H10         1.1056   -6.7784   -1.4583 H         1 <0>         0.0000
     30 H11         3.0817   -3.1963   -1.9080 H         1 <0>         0.0000
@<TRIPOS>BOND
     1    1    3 ar
     2    1    5 ar
     3    1   20 1
     4    2    4 ar
     5    2    6 ar
     6    2   21 1
     7    3    7 ar
     8    3   22 1
     9    4    8 ar
    10    4   23 1
    11    5    9 ar
    12    5   24 1
    13    6   10 ar
    14    6   25 1
    15    7   11 ar
    16    7   26 1
    17    8   12 ar
    18    8   27 1
    19    9   11 ar
    20    9   13 1
    21   10   12 ar
    22   10   13 1
    23   11   17 1
    24   12   19 1
    25   13   16 2
    26   14   15 1
    27   14   17 am
    28   14   18 2
    29   15   16 1
    30   15   28 1
    31   15   29 1
    32   17   30 1
