@<TRIPOS>MOLECULE
*****
   32    33     0     0     0
SMALL
NO_CHARGES

@<TRIPOS>ATOM
      1 C1          4.1868    0.8449    1.1987 C.ar      1 <0>         0.0000
      2 C2          4.1490    0.6663    2.5815 C.ar      1 <0>         0.0000
      3 C3          3.0264    0.6808    0.4422 C.ar      1 <0>         0.0000
      4 C4          1.7903    0.1593    2.4514 C.ar      1 <0>         0.0000
      5 C5          2.9507    0.3235    3.2079 C.ar      1 <0>         0.0000
      6 C6          1.8282    0.3380    1.0686 C.ar      1 <0>         0.0000
      7 C7          0.5825    0.3258   -1.0696 C.2       1 <0>         0.0000
      8 C8          2.9127    0.1376    4.6497 C.2       1 <0>         0.0000
      9 C9         -1.3288   -0.7126   -0.3924 C.3       1 <0>         0.0000
     10 C10        -0.6277   -0.1783    0.8412 C.3       1 <0>         0.0000
     11 C11         1.6258    0.4520    5.3558 C.3       1 <0>         0.0000
     12 C12        -2.7220    0.6804    1.9020 C.3       1 <0>         0.0000
     13 C13        -1.3530    1.0344    1.4217 C.3       1 <0>         0.0000
     14 N1          0.6723    0.1748    0.3148 N.am      1 <0>         0.0000
     15 O1          1.4449    0.7435   -1.8309 O.2       1 <0>         0.0000
     16 O2          3.8585   -0.2541    5.3368 O.2       1 <0>         0.0000
     17 O3         -0.6695   -0.0660   -1.4871 O.3       1 <0>         0.0000
     18 H1          5.1197    1.1122    0.7109 H         1 <0>         0.0000
     19 H2          5.0597    0.7958    3.1604 H         1 <0>         0.0000
     20 H3          3.0676    0.8220   -0.6351 H         1 <0>         0.0000
     21 H4          0.8558   -0.1092    2.9399 H         1 <0>         0.0000
     22 H5         -1.1962   -1.7940   -0.5061 H         1 <0>         0.0000
     23 H6         -2.3970   -0.4782   -0.4220 H         1 <0>         0.0000
     24 H7         -0.5307   -0.9552    1.6078 H         1 <0>         0.0000
     25 H8          0.9389   -0.4053    5.4354 H         1 <0>         0.0000
     26 H9          1.0681    1.2800    4.8914 H         1 <0>         0.0000
     27 H10         1.7704    0.7705    6.4036 H         1 <0>         0.0000
     28 H11        -3.3101    0.2754    1.0700 H         1 <0>         0.0000
     29 H12        -3.2421    1.5640    2.2868 H         1 <0>         0.0000
     30 H13        -2.6757   -0.0813    2.6875 H         1 <0>         0.0000
     31 H14        -0.7661    1.4382    2.2507 H         1 <0>         0.0000
     32 H15        -1.4223    1.8097    0.6545 H         1 <0>         0.0000
@<TRIPOS>BOND
     1    1    2 ar
     2    1    3 ar
     3    1   18 1
     4    2    5 ar
     5    2   19 1
     6    3    6 ar
     7    3   20 1
     8    4    5 ar
     9    4    6 ar
    10    4   21 1
    11    5    8 1
    12    6   14 1
    13    7   14 am
    14    7   15 2
    15    7   17 1
    16    8   11 1
    17    8   16 2
    18    9   10 1
    19    9   17 1
    20    9   22 1
    21    9   23 1
    22   10   13 1
    23   10   14 1
    24   10   24 1
    25   11   25 1
    26   11   26 1
    27   11   27 1
    28   12   13 1
    29   12   28 1
    30   12   29 1
    31   12   30 1
    32   13   31 1
    33   13   32 1
