@<TRIPOS>MOLECULE
*****
   34    35     0     0     0
SMALL
NO_CHARGES

@<TRIPOS>ATOM
      1 C1         -1.6235    1.8138    1.1889 C.ar      1 <0>         0.0000
      2 C2         -0.9110    2.4867    0.1893 C.ar      1 <0>         0.0000
      3 C3         -1.2310    0.5276    1.5610 C.ar      1 <0>         0.0000
      4 C4          0.1671    1.8628   -0.4360 C.ar      1 <0>         0.0000
      5 C5         -0.1253   -0.1049    0.9736 C.ar      1 <0>         0.0000
      6 C6          0.5656    0.5707   -0.0518 C.ar      1 <0>         0.0000
      7 C7          0.5887   -2.3462    0.1407 C.3       1 <0>         0.0000
      8 C8          1.8631   -1.9174   -0.5824 C.3       1 <0>         0.0000
      9 C9          0.2903   -1.5018    1.3954 C.3       1 <0>         0.0000
     10 C10         1.5109   -1.5089    2.3472 C.3       1 <0>         0.0000
     11 C11         0.3274   -2.2941    4.4830 C.3       1 <0>         0.0000
     12 C12         1.2042   -1.2025    3.8228 C.3       1 <0>         0.0000
     13 C13         2.5415   -1.0746    4.5903 C.3       1 <0>         0.0000
     14 O1          0.7596   -3.6248    4.2309 O.3       1 <0>         0.0000
     15 O2          0.4947    0.0095    4.0386 O.3       1 <0>         0.0000
     16 F1          3.3076   -0.0733    4.0990 F         1 <0>         0.0000
     17 F2          3.2820   -2.2216    4.5095 F         1 <0>         0.0000
     18 F3          2.3536   -0.8283    5.9036 F         1 <0>         0.0000
     19 S1          1.9673   -0.1046   -0.9162 S.3       1 <0>         0.0000
     20 H1         -2.4761    2.2846    1.6702 H         1 <0>         0.0000
     21 H2         -1.2034    3.4880   -0.1160 H         1 <0>         0.0000
     22 H3         -1.7750    0.0038    2.3427 H         1 <0>         0.0000
     23 H4          0.7001    2.3715   -1.2355 H         1 <0>         0.0000
     24 H5         -0.2658   -2.2778   -0.5402 H         1 <0>         0.0000
     25 H6          0.6993   -3.3990    0.4251 H         1 <0>         0.0000
     26 H7          2.7485   -2.1883   -0.0032 H         1 <0>         0.0000
     27 H8          1.9336   -2.4126   -1.5539 H         1 <0>         0.0000
     28 H9         -0.5588   -1.9683    1.9013 H         1 <0>         0.0000
     29 H10         1.9727   -2.4993    2.3213 H         1 <0>         0.0000
     30 H11         2.2575   -0.7961    1.9827 H         1 <0>         0.0000
     31 H12         0.2416   -2.0841    5.5550 H         1 <0>         0.0000
     32 H13        -0.6705   -2.2072    4.0527 H         1 <0>         0.0000
     33 H14         1.5706   -3.7919    4.7358 H         1 <0>         0.0000
     34 H15         0.7409    0.6526    3.3534 H         1 <0>         0.0000
@<TRIPOS>BOND
     1    1    2 ar
     2    1    3 ar
     3    1   20 1
     4    2    4 ar
     5    2   21 1
     6    3    5 ar
     7    3   22 1
     8    4    6 ar
     9    4   23 1
    10    5    6 ar
    11    5    9 1
    12    6   19 1
    13    7    8 1
    14    7    9 1
    15    7   24 1
    16    7   25 1
    17    8   19 1
    18    8   26 1
    19    8   27 1
    20    9   10 1
    21    9   28 1
    22   10   12 1
    23   10   29 1
    24   10   30 1
    25   11   12 1
    26   11   14 1
    27   11   31 1
    28   11   32 1
    29   12   13 1
    30   12   15 1
    31   13   16 1
    32   13   17 1
    33   13   18 1
    34   14   33 1
    35   15   34 1
