@<TRIPOS>MOLECULE
*****
    8     7     0     0     0
SMALL
NO_CHARGES

@<TRIPOS>ATOM
      1 C1          0.5181    0.0915   -2.0504 C.1       1 <0>         0.0000
      2 C2          0.7685   -0.3679   -0.6861 C.3       1 <0>         0.0000
      3 N1          1.0971   -2.9344    1.3624 N.1       1 <0>         0.0000
      4 N2          0.3186    0.4605   -3.1323 N.1       1 <0>         0.0000
      5 N3          0.7395   -1.8270   -0.7213 N.2       1 <0>         0.0000
      6 N4          0.9264   -2.4031    0.3676 N.1       1 <0>         0.0000
      7 H1          1.7442   -0.0265   -0.3285 H         1 <0>         0.0000
      8 H2          0.0000    0.0000    0.0000 H         1 <0>         0.0000
@<TRIPOS>BOND
     1    1    2 1
     2    1    4 3
     3    2    5 1
     4    2    7 1
     5    2    8 1
     6    3    6 2
     7    5    6 2
