@<TRIPOS>MOLECULE
*****
   25    26     0     0     0
SMALL
NO_CHARGES

@<TRIPOS>ATOM
      1 C1          2.5151   -0.3459    0.3265 C.ar      1 <0>         0.0000
      2 C2          1.2291    0.1699    0.4860 C.ar      1 <0>         0.0000
      3 C3          0.3023   -2.0350    0.1446 C.ar      1 <0>         0.0000
      4 C4          7.5842   -3.3753   -1.5142 C.2       1 <0>         0.0000
      5 C5          6.0754   -2.2445   -2.6454 C.2       1 <0>         0.0000
      6 C6          7.1494   -3.0825   -2.8207 C.2       1 <0>         0.0000
      7 C7          2.6948   -1.7063    0.0759 C.ar      1 <0>         0.0000
      8 C8          0.1226   -0.6746    0.3952 C.ar      1 <0>         0.0000
      9 C9          1.5884   -2.5509   -0.0150 C.ar      1 <0>         0.0000
     10 C10         4.9300   -1.2855   -0.6141 C.3       1 <0>         0.0000
     11 N1          6.8468   -2.7721   -0.5780 N.2       1 <0>         0.0000
     12 N2          5.9378   -2.0919   -1.2971 N.pl3     1 <0>         0.0000
     13 N3          7.6649   -3.5209   -3.9845 N.pl3     1 <0>         0.0000
     14 O1          3.9629   -2.1835   -0.0757 O.3       1 <0>         0.0000
     15 Cl1        -1.4637   -0.0367    0.5920 Cl        1 <0>         0.0000
     16 Cl2         1.7822   -4.2368   -0.3244 Cl        1 <0>         0.0000
     17 H1          3.3726    0.3176    0.3981 H         1 <0>         0.0000
     18 H2          1.1038    1.2321    0.6802 H         1 <0>         0.0000
     19 H3         -0.5614   -2.6928    0.0736 H         1 <0>         0.0000
     20 H4          8.4067   -4.0030   -1.2013 H         1 <0>         0.0000
     21 H5          5.4134   -1.7547   -3.3469 H         1 <0>         0.0000
     22 H6          5.4351   -0.7160    0.1751 H         1 <0>         0.0000
     23 H7          4.4851   -0.6085   -1.3529 H         1 <0>         0.0000
     24 H8          7.2441   -3.2860   -4.8979 H         1 <0>         0.0000
     25 H9          8.4503   -4.1905   -4.0226 H         1 <0>         0.0000
@<TRIPOS>BOND
     1    1    2 ar
     2    1    7 ar
     3    1   17 1
     4    2    8 ar
     5    2   18 1
     6    3    8 ar
     7    3    9 ar
     8    3   19 1
     9    4    6 1
    10    4   11 2
    11    4   20 1
    12    5    6 2
    13    5   12 1
    14    5   21 1
    15    6   13 1
    16    7    9 ar
    17    7   14 1
    18    8   15 1
    19    9   16 1
    20   10   12 1
    21   10   14 1
    22   10   22 1
    23   10   23 1
    24   11   12 1
    25   13   24 1
    26   13   25 1
