@<TRIPOS>MOLECULE
*****
   19    20     0     0     0
SMALL
NO_CHARGES

@<TRIPOS>ATOM
      1 C1          2.3949   -2.4766    5.1029 C.1       1 <0>         0.0000
      2 C2          1.5069   -0.8375    1.2502 C.ar      1 <0>         0.0000
      3 C3          1.8097   -1.3752    2.5006 C.ar      1 <0>         0.0000
      4 C4         -0.6621   -0.2649    2.1244 C.ar      1 <0>         0.0000
      5 C5          0.2466   -0.2726    1.0619 C.ar      1 <0>         0.0000
      6 C6          0.8416   -1.3270    3.5129 C.ar      1 <0>         0.0000
      7 C7          0.4484   -1.1888    6.0892 C.3       1 <0>         0.0000
      8 C8         -0.0794   -2.5123    5.6480 C.3       1 <0>         0.0000
      9 C9          1.0960   -1.8850    4.8821 C.3       1 <0>         0.0000
     10 N1          3.4422   -2.9537    5.2819 N.1       1 <0>         0.0000
     11 N2         -0.3689   -0.7804    3.3200 N.ar      1 <0>         0.0000
     12 Cl1        -0.2052    0.4213   -0.4791 Cl        1 <0>         0.0000
     13 H1          2.2317   -0.8568    0.4420 H         1 <0>         0.0000
     14 H2          2.7809   -1.8232    2.6840 H         1 <0>         0.0000
     15 H3         -1.6512    0.1708    1.9995 H         1 <0>         0.0000
     16 H4         -0.1294   -0.3060    5.8381 H         1 <0>         0.0000
     17 H5          1.0437   -1.1361    6.9945 H         1 <0>         0.0000
     18 H6          0.1444   -3.3916    6.2424 H         1 <0>         0.0000
     19 H7         -1.0140   -2.5251    5.0981 H         1 <0>         0.0000
@<TRIPOS>BOND
     1    1    9 1
     2    1   10 3
     3    2    3 ar
     4    2    5 ar
     5    2   13 1
     6    3    6 ar
     7    3   14 1
     8    4    5 ar
     9    4   11 ar
    10    4   15 1
    11    5   12 1
    12    6    9 1
    13    6   11 ar
    14    7    8 1
    15    7    9 1
    16    7   16 1
    17    7   17 1
    18    8    9 1
    19    8   18 1
    20    8   19 1
