@<TRIPOS>MOLECULE
*****
   22    22     0     0     0
SMALL
NO_CHARGES

@<TRIPOS>ATOM
      1 C1          2.1251   -0.2658   -0.6697 C.2       1 <0>         0.0000
      2 C2          0.8313    0.3196   -0.7548 C.2       1 <0>         0.0000
      3 C3          3.1973    0.4844   -1.0675 C.2       1 <0>         0.0000
      4 C4          0.6388    1.6122   -1.1802 C.2       1 <0>         0.0000
      5 C5          1.7678    2.4168   -1.6314 C.2       1 <0>         0.0000
      6 C6         -0.7752    2.1115   -1.3400 C.2       1 <0>         0.0000
      7 C7         -2.4113    3.8916   -1.0657 C.3       1 <0>         0.0000
      8 C8         -0.2284    4.1055    0.0681 C.3       1 <0>         0.0000
      9 N1          3.0088    1.7571   -1.5201 N.am      1 <0>         0.0000
     10 N2         -1.1018    3.3156   -0.7880 N.am      1 <0>         0.0000
     11 O1          1.7328    3.5630   -2.0889 O.2       1 <0>         0.0000
     12 O2         -1.5913    1.4054   -1.9447 O.2       1 <0>         0.0000
     13 H1          2.2679   -1.2794   -0.3147 H         1 <0>         0.0000
     14 H2         -0.0433   -0.2677   -0.4871 H         1 <0>         0.0000
     15 H3          4.2206    0.1233   -1.0512 H         1 <0>         0.0000
     16 H4         -3.0101    3.9532   -0.1481 H         1 <0>         0.0000
     17 H5         -2.9296    3.2628   -1.7876 H         1 <0>         0.0000
     18 H6         -2.2926    4.9022   -1.4742 H         1 <0>         0.0000
     19 H7          0.2113    4.9468   -0.4767 H         1 <0>         0.0000
     20 H8          0.5784    3.4913    0.4675 H         1 <0>         0.0000
     21 H9         -0.8130    4.4848    0.9143 H         1 <0>         0.0000
     22 H10         3.7976    2.3089   -1.8433 H         1 <0>         0.0000
@<TRIPOS>BOND
     1    1    2 1
     2    1    3 2
     3    1   13 1
     4    2    4 2
     5    2   14 1
     6    3    9 1
     7    3   15 1
     8    4    5 1
     9    4    6 1
    10    5    9 am
    11    5   11 2
    12    6   10 am
    13    6   12 2
    14    7   10 1
    15    7   16 1
    16    7   17 1
    17    7   18 1
    18    8   10 1
    19    8   19 1
    20    8   20 1
    21    8   21 1
    22    9   22 1
