@<TRIPOS>MOLECULE
*****
   28    30     0     0     0
SMALL
NO_CHARGES

@<TRIPOS>ATOM
      1 C1          0.2167    2.7708   -1.5533 C.ar      1 <0>         0.0000
      2 C2         -1.1873    2.7641   -1.5784 C.ar      1 <0>         0.0000
      3 C3          0.9241    1.7269   -0.9520 C.ar      1 <0>         0.0000
      4 C4         -1.9054    1.7142   -1.0026 C.ar      1 <0>         0.0000
      5 C5          0.2074    0.6867   -0.3819 C.ar      1 <0>         0.0000
      6 C6         -1.1874    0.6881   -0.4112 C.ar      1 <0>         0.0000
      7 C7          2.6071   -1.9666    0.3936 C.2       1 <0>         0.0000
      8 C8          2.5829   -1.3121    1.5574 C.2       1 <0>         0.0000
      9 C9         -0.6213   -1.2627    0.6967 C.2       1 <0>         0.0000
     10 C10         1.5752   -1.4614   -0.5617 C.3       1 <0>         0.0000
     11 C11         1.5303   -0.2521    1.5893 C.3       1 <0>         0.0000
     12 C12         0.7069   -0.5466    0.3217 C.3       1 <0>         0.0000
     13 C13        -3.0754   -0.7602    0.3643 C.3       1 <0>         0.0000
     14 N1         -1.6696   -0.4617    0.2251 N.am      1 <0>         0.0000
     15 O1         -0.7040   -2.3273    1.2931 O.2       1 <0>         0.0000
     16 H1          0.7574    3.5970   -2.0071 H         1 <0>         0.0000
     17 H2         -1.7189    3.5849   -2.0524 H         1 <0>         0.0000
     18 H3          2.0088    1.7376   -0.9355 H         1 <0>         0.0000
     19 H4         -2.9893    1.7166   -1.0285 H         1 <0>         0.0000
     20 H5          3.3076   -2.7538    0.1549 H         1 <0>         0.0000
     21 H6          3.2610   -1.5052    2.3761 H         1 <0>         0.0000
     22 H7          2.0693   -0.9268   -1.3802 H         1 <0>         0.0000
     23 H8          1.0049   -2.2940   -0.9874 H         1 <0>         0.0000
     24 H9          0.9323   -0.3310    2.5035 H         1 <0>         0.0000
     25 H10         2.0074    0.7338    1.5738 H         1 <0>         0.0000
     26 H11        -3.4146   -1.3440   -0.5042 H         1 <0>         0.0000
     27 H12        -3.2372   -1.3427    1.2833 H         1 <0>         0.0000
     28 H13        -3.6457    0.1787    0.4202 H         1 <0>         0.0000
@<TRIPOS>BOND
     1    1    2 ar
     2    1    3 ar
     3    1   16 1
     4    2    4 ar
     5    2   17 1
     6    3    5 ar
     7    3   18 1
     8    4    6 ar
     9    4   19 1
    10    5    6 ar
    11    5   12 1
    12    6   14 1
    13    7    8 2
    14    7   10 1
    15    7   20 1
    16    8   11 1
    17    8   21 1
    18    9   12 1
    19    9   14 am
    20    9   15 2
    21   10   12 1
    22   10   22 1
    23   10   23 1
    24   11   12 1
    25   11   24 1
    26   11   25 1
    27   13   14 1
    28   13   26 1
    29   13   27 1
    30   13   28 1
