@<TRIPOS>MOLECULE
*****
   24    25     0     0     0
SMALL
NO_CHARGES

@<TRIPOS>ATOM
      1 C1         -1.4548   -2.8499    2.0791 C.ar      1 <0>         0.0000
      2 C2         -0.7172   -1.8472    1.4496 C.ar      1 <0>         0.0000
      3 C3         -1.1120   -3.2645    3.3660 C.ar      1 <0>         0.0000
      4 C4          4.4402   -3.6267    5.9970 C.ar      1 <0>         0.0000
      5 C5          4.2334   -3.7535    4.6235 C.ar      1 <0>         0.0000
      6 C6          0.3632   -1.2590    2.1072 C.ar      1 <0>         0.0000
      7 C7         -0.0316   -2.6762    4.0236 C.ar      1 <0>         0.0000
      8 C8          3.7500   -2.6532    6.7193 C.ar      1 <0>         0.0000
      9 C9          3.3364   -2.9068    3.9721 C.ar      1 <0>         0.0000
     10 C10         0.7061   -1.6735    3.3942 C.ar      1 <0>         0.0000
     11 C11         2.8530   -1.8065    6.0680 C.ar      1 <0>         0.0000
     12 C12         2.6462   -1.9333    4.6944 C.ar      1 <0>         0.0000
     13 O1          2.1860   -0.8591    6.7844 O.3       1 <0>         0.0000
     14 O2          1.7593   -1.0981    4.0359 O.3       1 <0>         0.0000
     15 H1         -2.2956   -3.3081    1.5666 H         1 <0>         0.0000
     16 H2         -0.9847   -1.5251    0.4474 H         1 <0>         0.0000
     17 H3         -1.6863   -4.0451    3.8564 H         1 <0>         0.0000
     18 H4          5.1386   -4.2862    6.5043 H         1 <0>         0.0000
     19 H5          4.7707   -4.5112    4.0612 H         1 <0>         0.0000
     20 H6          0.9331   -0.4771    1.6126 H         1 <0>         0.0000
     21 H7          0.2294   -3.0026    5.0266 H         1 <0>         0.0000
     22 H8          3.9155   -2.5597    7.7893 H         1 <0>         0.0000
     23 H9          3.1813   -3.0099    2.9017 H         1 <0>         0.0000
     24 H10         1.6012   -0.3488    6.2023 H         1 <0>         0.0000
@<TRIPOS>BOND
     1    1    3 ar
     2    1    2 ar
     3    1   15 1
     4    2    6 ar
     5    2   16 1
     6    3    7 ar
     7    3   17 1
     8    4    5 ar
     9    4    8 ar
    10    4   18 1
    11    5    9 ar
    12    5   19 1
    13    6   10 ar
    14    6   20 1
    15    7   10 ar
    16    7   21 1
    17    8   11 ar
    18    8   22 1
    19    9   12 ar
    20    9   23 1
    21   10   14 1
    22   11   12 ar
    23   11   13 1
    24   12   14 1
    25   13   24 1
