@<TRIPOS>MOLECULE
*****
   32    33     0     0     0
SMALL
NO_CHARGES

@<TRIPOS>ATOM
      1 C1          1.2670   -0.9281    4.0448 C.2       1 <0>         0.0000
      2 C2          1.0772   -1.5233    2.7833 C.2       1 <0>         0.0000
      3 C3          1.7377   -0.6944    1.9097 C.2       1 <0>         0.0000
      4 C4          3.0973   -1.4436    0.0030 C.3       1 <0>         0.0000
      5 C5          0.7537   -0.7086   -0.3650 C.3       1 <0>         0.0000
      6 C6          3.4272   -0.9673   -1.4135 C.3       1 <0>         0.0000
      7 C7          1.1590   -0.2571   -1.7703 C.3       1 <0>         0.0000
      8 C8          0.3350   -2.7580    2.4774 C.3       1 <0>         0.0000
      9 C9          3.0465    1.4334    2.2153 C.3       1 <0>         0.0000
     10 C10         2.5985   -0.6737   -3.6556 C.3       1 <0>         0.0000
     11 N1          1.9916    0.1922    3.9826 N.2       1 <0>         0.0000
     12 N2          2.2629    0.3076    2.6714 N.pl3     1 <0>         0.0000
     13 N3          1.9200   -0.7367    0.5229 N.pl3     1 <0>         0.0000
     14 N4          2.2568   -1.0796   -2.2928 N.3       1 <0>         0.0000
     15 H1          0.9066   -1.2609    5.0079 H         1 <0>         0.0000
     16 H2          2.9034   -2.5241    0.0015 H         1 <0>         0.0000
     17 H3          3.9663   -1.2647    0.6486 H         1 <0>         0.0000
     18 H4         -0.0063   -0.0189    0.0230 H         1 <0>         0.0000
     19 H5          0.3016   -1.7082   -0.4063 H         1 <0>         0.0000
     20 H6          3.7989    0.0658   -1.3794 H         1 <0>         0.0000
     21 H7          4.2421   -1.5917   -1.8003 H         1 <0>         0.0000
     22 H8          0.2825   -0.3509   -2.4230 H         1 <0>         0.0000
     23 H9          1.4355    0.8059   -1.7515 H         1 <0>         0.0000
     24 H10        -0.7266   -2.5449    2.2646 H         1 <0>         0.0000
     25 H11         0.7497   -3.2878    1.6013 H         1 <0>         0.0000
     26 H12         0.3681   -3.4819    3.3113 H         1 <0>         0.0000
     27 H13         2.3587    2.2500    1.9805 H         1 <0>         0.0000
     28 H14         3.7433    1.7348    3.0024 H         1 <0>         0.0000
     29 H15         3.6139    1.1425    1.3269 H         1 <0>         0.0000
     30 H16         3.4162   -1.2904   -4.0375 H         1 <0>         0.0000
     31 H17         2.9111    0.3739   -3.6708 H         1 <0>         0.0000
     32 H18         1.7328   -0.7906   -4.3131 H         1 <0>         0.0000
@<TRIPOS>BOND
     1    1    2 1
     2    1   11 2
     3    1   15 1
     4    2    3 2
     5    2    8 1
     6    3   12 1
     7    3   13 1
     8    4    6 1
     9    4   13 1
    10    4   16 1
    11    4   17 1
    12    5    7 1
    13    5   13 1
    14    5   18 1
    15    5   19 1
    16    6   14 1
    17    6   20 1
    18    6   21 1
    19    7   14 1
    20    7   22 1
    21    7   23 1
    22    8   24 1
    23    8   25 1
    24    8   26 1
    25    9   12 1
    26    9   27 1
    27    9   28 1
    28    9   29 1
    29   10   14 1
    30   10   30 1
    31   10   31 1
    32   10   32 1
    33   11   12 1
