@<TRIPOS>MOLECULE
*****
   55    57     0     0     0
SMALL
NO_CHARGES

@<TRIPOS>ATOM
      1 C1         -6.1640    5.0376    9.8644 C.ar      1 <0>         0.0000
      2 C2         -5.9018    7.4390   10.0733 C.ar      1 <0>         0.0000
      3 C3         -6.8001    5.0075   11.1116 C.ar      1 <0>         0.0000
      4 C4         -6.5340    7.4081   11.3126 C.ar      1 <0>         0.0000
      5 C5         -5.7116    6.2563    9.3396 C.ar      1 <0>         0.0000
      6 C6         -6.9825    6.1871   11.8278 C.ar      1 <0>         0.0000
      7 C7          0.6393    1.0011    0.2349 C.3       1 <0>         0.0000
      8 C8         -0.0112    0.2380    1.3950 C.3       1 <0>         0.0000
      9 C9          0.7629    2.4885    0.5856 C.3       1 <0>         0.0000
     10 C10        -1.3315    0.8913    1.8091 C.3       1 <0>         0.0000
     11 C11        -0.5876    3.0554    1.0281 C.3       1 <0>         0.0000
     12 C12        -1.3906    3.5639    4.9627 C.3       1 <0>         0.0000
     13 C13        -2.0280    4.0593    3.6644 C.3       1 <0>         0.0000
     14 C14        -3.9083    4.3675    5.1643 C.3       1 <0>         0.0000
     15 C15        -5.1958    3.6500    4.7386 C.3       1 <0>         0.0000
     16 C16        -2.8091    6.3012    6.4206 C.3       1 <0>         0.0000
     17 C17        -5.0071    6.6621    5.2770 C.3       1 <0>         0.0000
     18 C18        -2.3515    2.9134    2.6936 C.3       1 <0>         0.0000
     19 C19        -4.8817    5.2266    7.3397 C.3       1 <0>         0.0000
     20 C20        -4.1495    5.6388    6.0527 C.3       1 <0>         0.0000
     21 N1         -1.1346    2.3021    2.1631 N.3       1 <0>         0.0000
     22 O1         -3.2045    4.8051    3.9991 O.3       1 <0>         0.0000
     23 O2         -5.0806    6.3979    8.1377 O.3       1 <0>         0.0000
     24 S1         -2.8074    3.0939    6.0095 S.3       1 <0>         0.0000
     25 Cl1        -7.7829    6.1454   13.3945 Cl        1 <0>         0.0000
     26 H1         -6.0287    4.1081    9.3242 H         1 <0>         0.0000
     27 H2         -5.5461    8.3757    9.6548 H         1 <0>         0.0000
     28 H3         -7.1497    4.0640   11.5190 H         1 <0>         0.0000
     29 H4         -6.6794    8.3238   11.8771 H         1 <0>         0.0000
     30 H5          0.0188    0.8913   -0.6652 H         1 <0>         0.0000
     31 H6          1.6212    0.5772   -0.0036 H         1 <0>         0.0000
     32 H7         -0.1941   -0.8068    1.1188 H         1 <0>         0.0000
     33 H8          0.6646    0.2354    2.2590 H         1 <0>         0.0000
     34 H9          1.4840    2.6174    1.4019 H         1 <0>         0.0000
     35 H10         1.1334    3.0607   -0.2728 H         1 <0>         0.0000
     36 H11        -2.0674    0.7856    0.9868 H         1 <0>         0.0000
     37 H12        -1.7460    0.3747    2.6810 H         1 <0>         0.0000
     38 H13        -0.4712    4.1037    1.3197 H         1 <0>         0.0000
     39 H14        -1.2936    3.0374    0.1735 H         1 <0>         0.0000
     40 H15        -0.7644    2.6902    4.7734 H         1 <0>         0.0000
     41 H16        -0.7979    4.3443    5.4447 H         1 <0>         0.0000
     42 H17        -1.3625    4.7780    3.1767 H         1 <0>         0.0000
     43 H18        -4.9500    2.8389    4.0523 H         1 <0>         0.0000
     44 H19        -5.8704    4.3396    4.2260 H         1 <0>         0.0000
     45 H20        -5.7213    3.2157    5.5933 H         1 <0>         0.0000
     46 H21        -2.9910    7.1971    7.0179 H         1 <0>         0.0000
     47 H22        -2.1781    5.6281    7.0076 H         1 <0>         0.0000
     48 H23        -2.2705    6.5932    5.5161 H         1 <0>         0.0000
     49 H24        -5.0731    7.5919    5.8468 H         1 <0>         0.0000
     50 H25        -6.0291    6.3077    5.1136 H         1 <0>         0.0000
     51 H26        -4.5552    6.8790    4.3063 H         1 <0>         0.0000
     52 H27        -3.0130    3.3015    1.9002 H         1 <0>         0.0000
     53 H28        -2.9133    2.1511    3.2406 H         1 <0>         0.0000
     54 H29        -4.2836    4.4971    7.8987 H         1 <0>         0.0000
     55 H30        -5.8590    4.7848    7.1119 H         1 <0>         0.0000
@<TRIPOS>BOND
     1    1    3 ar
     2    1    5 ar
     3    1   26 1
     4    2    4 ar
     5    2    5 ar
     6    2   27 1
     7    3    6 ar
     8    3   28 1
     9    4    6 ar
    10    4   29 1
    11    5   23 1
    12    6   25 1
    13    7    9 1
    14    7    8 1
    15    7   30 1
    16    7   31 1
    17    8   10 1
    18    8   32 1
    19    8   33 1
    20    9   11 1
    21    9   34 1
    22    9   35 1
    23   10   21 1
    24   10   36 1
    25   10   37 1
    26   11   21 1
    27   11   38 1
    28   11   39 1
    29   12   13 1
    30   12   24 1
    31   12   40 1
    32   12   41 1
    33   13   18 1
    34   13   22 1
    35   13   42 1
    36   14   15 1
    37   14   20 1
    38   14   22 1
    39   14   24 1
    40   15   43 1
    41   15   44 1
    42   15   45 1
    43   16   20 1
    44   16   46 1
    45   16   47 1
    46   16   48 1
    47   17   20 1
    48   17   49 1
    49   17   50 1
    50   17   51 1
    51   18   21 1
    52   18   52 1
    53   18   53 1
    54   19   20 1
    55   19   23 1
    56   19   54 1
    57   19   55 1
