@<TRIPOS>MOLECULE
*****
   57    60     0     0     0
SMALL
NO_CHARGES

@<TRIPOS>ATOM
      1 C1         -2.5794   -5.5089    6.5820 C.ar      1 <0>         0.0000
      2 C2          3.5726   -6.6453   -0.1755 C.ar      1 <0>         0.0000
      3 C3         -1.4715   -6.3052    6.8867 C.ar      1 <0>         0.0000
      4 C4         -2.3927   -4.2863    5.9261 C.ar      1 <0>         0.0000
      5 C5          4.0519   -5.6355    0.6666 C.ar      1 <0>         0.0000
      6 C6          2.4333   -7.3668    0.1944 C.ar      1 <0>         0.0000
      7 C7          0.7660   -1.1006    2.5042 C.ar      1 <0>         0.0000
      8 C8         -0.4423   -2.7899    1.3147 C.ar      1 <0>         0.0000
      9 C9         -0.1868   -5.8795    6.5322 C.ar      1 <0>         0.0000
     10 C10        -1.1081   -3.8634    5.5769 C.ar      1 <0>         0.0000
     11 C11         3.3999   -5.3513    1.8689 C.ar      1 <0>         0.0000
     12 C12         1.7805   -7.0762    1.3965 C.ar      1 <0>         0.0000
     13 C13         1.3478   -2.0796    3.3074 C.ar      1 <0>         0.0000
     14 C14         0.1202   -3.7780    2.1257 C.ar      1 <0>         0.0000
     15 C15        -0.1416   -1.4338    1.4875 C.ar      1 <0>         0.0000
     16 C16         0.0113   -4.6576    5.8756 C.ar      1 <0>         0.0000
     17 C17         2.2576   -6.0700    2.2453 C.ar      1 <0>         0.0000
     18 C18         1.0268   -3.4391    3.1430 C.ar      1 <0>         0.0000
     19 C19        -2.3493    1.0749    0.4770 C.3       1 <0>         0.0000
     20 C20        -0.9405    1.0488    1.1280 C.3       1 <0>         0.0000
     21 C21        -2.2694   -0.4662    0.3114 C.3       1 <0>         0.0000
     22 C22        -0.7258   -0.3930    0.5590 C.3       1 <0>         0.0000
     23 C23         1.3997   -4.2290    5.4338 C.3       1 <0>         0.0000
     24 C24         1.5627   -5.8008    3.5663 C.3       1 <0>         0.0000
     25 C25         0.0298   -0.3743   -0.7856 C.3       1 <0>         0.0000
     26 C26         1.5299   -0.1481   -0.6548 C.3       1 <0>         0.0000
     27 N1          1.6418   -4.4041    3.9870 N.pl3     1 <0>         0.0000
     28 O1          2.0550    0.0430   -1.9773 O.3       1 <0>         0.0000
     29 H1         -3.5794   -5.8357    6.8555 H         1 <0>         0.0000
     30 H2          4.0779   -6.8631   -1.1130 H         1 <0>         0.0000
     31 H3         -1.6063   -7.2546    7.3993 H         1 <0>         0.0000
     32 H4         -3.2496   -3.6607    5.6888 H         1 <0>         0.0000
     33 H5          4.9336   -5.0658    0.3829 H         1 <0>         0.0000
     34 H6          2.0486   -8.1489   -0.4554 H         1 <0>         0.0000
     35 H7          1.0424   -0.0608    2.6607 H         1 <0>         0.0000
     36 H8         -1.1390   -3.0870    0.5336 H         1 <0>         0.0000
     37 H9          0.6719   -6.5047    6.7699 H         1 <0>         0.0000
     38 H10        -0.9726   -2.9150    5.0643 H         1 <0>         0.0000
     39 H11         3.7602   -4.5586    2.5179 H         1 <0>         0.0000
     40 H12         0.8867   -7.6328    1.6734 H         1 <0>         0.0000
     41 H13         2.0722   -1.7897    4.0639 H         1 <0>         0.0000
     42 H14        -0.1571   -4.8118    1.9585 H         1 <0>         0.0000
     43 H15        -2.3578    1.5991   -0.4824 H         1 <0>         0.0000
     44 H16        -3.1668    1.4630    1.0904 H         1 <0>         0.0000
     45 H17        -0.2285    1.8184    0.8141 H         1 <0>         0.0000
     46 H18        -1.0005    1.0509    2.2200 H         1 <0>         0.0000
     47 H19        -2.7810   -0.9947    1.1210 H         1 <0>         0.0000
     48 H20        -2.5916   -0.8873   -0.6464 H         1 <0>         0.0000
     49 H21         1.5652   -3.1799    5.6834 H         1 <0>         0.0000
     50 H22         2.1574   -4.8097    5.9704 H         1 <0>         0.0000
     51 H23         0.5287   -6.1779    3.5263 H         1 <0>         0.0000
     52 H24         2.0610   -6.3876    4.3473 H         1 <0>         0.0000
     53 H25        -0.3802    0.4154   -1.4267 H         1 <0>         0.0000
     54 H26        -0.1354   -1.3250   -1.3061 H         1 <0>         0.0000
     55 H27         1.7294    0.7376   -0.0324 H         1 <0>         0.0000
     56 H28         2.0010   -1.0119   -0.1695 H         1 <0>         0.0000
     57 H29         3.0215    0.0809   -1.9135 H         1 <0>         0.0000
@<TRIPOS>BOND
     1    1    4 ar
     2    1    3 ar
     3    1   29 1
     4    2    6 ar
     5    2    5 ar
     6    2   30 1
     7    3    9 ar
     8    3   31 1
     9    4   10 ar
    10    4   32 1
    11    5   11 ar
    12    5   33 1
    13    6   12 ar
    14    6   34 1
    15    7   13 ar
    16    7   15 ar
    17    7   35 1
    18    8   14 ar
    19    8   15 ar
    20    8   36 1
    21    9   16 ar
    22    9   37 1
    23   10   16 ar
    24   10   38 1
    25   11   17 ar
    26   11   39 1
    27   12   17 ar
    28   12   40 1
    29   13   18 ar
    30   13   41 1
    31   14   18 ar
    32   14   42 1
    33   15   22 1
    34   16   23 1
    35   17   24 1
    36   18   27 1
    37   19   21 1
    38   19   20 1
    39   19   43 1
    40   19   44 1
    41   20   22 1
    42   20   45 1
    43   20   46 1
    44   21   22 1
    45   21   47 1
    46   21   48 1
    47   22   25 1
    48   23   27 1
    49   23   49 1
    50   23   50 1
    51   24   27 1
    52   24   51 1
    53   24   52 1
    54   25   26 1
    55   25   53 1
    56   25   54 1
    57   26   28 1
    58   26   55 1
    59   26   56 1
    60   28   57 1
