@<TRIPOS>MOLECULE
*****
   73    76     0     0     0
SMALL
NO_CHARGES

@<TRIPOS>ATOM
      1 C1          9.3864    2.5496    8.0357 C.ar      1 <0>         0.0000
      2 C2          4.1024   -4.6776    5.1179 C.ar      1 <0>         0.0000
      3 C3          9.0427    2.6069    6.6795 C.ar      1 <0>         0.0000
      4 C4          8.8738    1.5209    8.8320 C.ar      1 <0>         0.0000
      5 C5          3.7581   -3.6820    6.0392 C.ar      1 <0>         0.0000
      6 C6          5.4040   -4.7200    4.6079 C.ar      1 <0>         0.0000
      7 C7         -7.1455    8.6830    0.2082 C.ar      1 <0>         0.0000
      8 C8         -8.3639    8.3928    0.8267 C.ar      1 <0>         0.0000
      9 C9          8.1959    1.6439    6.1279 C.ar      1 <0>         0.0000
     10 C10         8.0339    0.5529    8.2739 C.ar      1 <0>         0.0000
     11 C11         4.7025   -2.7349    6.4366 C.ar      1 <0>         0.0000
     12 C12         6.3499   -3.7756    5.0155 C.ar      1 <0>         0.0000
     13 C13         4.8550    1.1974    6.2033 C.ar      1 <0>         0.0000
     14 C14         5.1845   -0.2801    4.3371 C.ar      1 <0>         0.0000
     15 C15         3.7361    1.7586    5.5789 C.ar      1 <0>         0.0000
     16 C16         4.0829    0.2729    3.6974 C.ar      1 <0>         0.0000
     17 C17        -5.9620    8.3853    0.8835 C.ar      1 <0>         0.0000
     18 C18        -8.3410    7.8125    2.0980 C.ar      1 <0>         0.0000
     19 C19         7.6918    0.5916    6.9122 C.ar      1 <0>         0.0000
     20 C20         5.5884    0.1594    5.6129 C.ar      1 <0>         0.0000
     21 C21         6.0113   -2.7585    5.9238 C.ar      1 <0>         0.0000
     22 C22         3.3426    1.2923    4.3176 C.ar      1 <0>         0.0000
     23 C23        -6.0469    7.8001    2.1547 C.ar      1 <0>         0.0000
     24 C24         6.7731   -0.4178    6.3087 C.2       1 <0>         0.0000
     25 C25         7.0176   -1.7533    6.3724 C.2       1 <0>         0.0000
     26 C26         8.1109   -3.1731    8.1898 C.3       1 <0>         0.0000
     27 C27        -4.8061    7.4393    2.9289 C.3       1 <0>         0.0000
     28 C28         8.3074   -2.3406    6.9112 C.3       1 <0>         0.0000
     29 C29        -0.5501    4.2507    3.7464 C.3       1 <0>         0.0000
     30 C30         0.3633    3.1393    3.2180 C.3       1 <0>         0.0000
     31 C31        -1.6778    4.5878    2.7623 C.3       1 <0>         0.0000
     32 C32         1.4822    2.8054    4.1938 C.3       1 <0>         0.0000
     33 C33        -2.5800    5.6968    3.3044 C.3       1 <0>         0.0000
     34 N1         -7.2126    7.5157    2.7559 N.ar      1 <0>         0.0000
     35 O1         -3.2741    6.6154    0.8898 O.2       1 <0>         0.0000
     36 O2         -4.7846    4.8942    2.0204 O.2       1 <0>         0.0000
     37 O3          2.2705    1.7676    3.6102 O.3       1 <0>         0.0000
     38 S1         -3.9018    6.0679    2.1095 S.o2      1 <0>         0.0000
     39 H1         10.0399    3.3032    8.4676 H         1 <0>         0.0000
     40 H2          3.3664   -5.4133    4.8039 H         1 <0>         0.0000
     41 H3          9.4323    3.4055    6.0529 H         1 <0>         0.0000
     42 H4          9.1221    1.4746    9.8896 H         1 <0>         0.0000
     43 H5          2.7514   -3.6432    6.4479 H         1 <0>         0.0000
     44 H6          5.6834   -5.4882    3.8910 H         1 <0>         0.0000
     45 H7         -7.1164    9.1303   -0.7818 H         1 <0>         0.0000
     46 H8         -9.3112    8.6071    0.3403 H         1 <0>         0.0000
     47 H9          7.9195    1.7006    5.0784 H         1 <0>         0.0000
     48 H10         7.6259   -0.2355    8.9000 H         1 <0>         0.0000
     49 H11         4.4284   -1.9597    7.1460 H         1 <0>         0.0000
     50 H12         7.3545   -3.8164    4.6023 H         1 <0>         0.0000
     51 H13         5.1577    1.5757    7.1760 H         1 <0>         0.0000
     52 H14         5.7442   -1.0666    3.8417 H         1 <0>         0.0000
     53 H15         3.1927    2.5518    6.0798 H         1 <0>         0.0000
     54 H16         3.7764   -0.0675    2.7125 H         1 <0>         0.0000
     55 H17        -4.9915    8.5731    0.4352 H         1 <0>         0.0000
     56 H18        -9.2699    7.5724    2.6126 H         1 <0>         0.0000
     57 H19         7.4056   -3.9928    8.0234 H         1 <0>         0.0000
     58 H20         7.7173   -2.5566    9.0047 H         1 <0>         0.0000
     59 H21         9.0621   -3.6037    8.5205 H         1 <0>         0.0000
     60 H22        -5.0842    7.0960    3.9266 H         1 <0>         0.0000
     61 H23        -4.0913    8.2646    2.9849 H         1 <0>         0.0000
     62 H24         9.0407   -1.5517    7.0870 H         1 <0>         0.0000
     63 H25         8.7369   -2.9944    6.1409 H         1 <0>         0.0000
     64 H26        -0.9832    3.9456    4.7083 H         1 <0>         0.0000
     65 H27         0.0442    5.1528    3.9447 H         1 <0>         0.0000
     66 H28         0.8067    3.4395    2.2618 H         1 <0>         0.0000
     67 H29        -0.2205    2.2318    3.0265 H         1 <0>         0.0000
     68 H30        -1.2536    4.9051    1.8044 H         1 <0>         0.0000
     69 H31        -2.2817    3.6955    2.5694 H         1 <0>         0.0000
     70 H32         2.1080    3.6888    4.3836 H         1 <0>         0.0000
     71 H33         1.0705    2.4668    5.1550 H         1 <0>         0.0000
     72 H34        -3.0758    5.3996    4.2333 H         1 <0>         0.0000
     73 H35        -2.0281    6.6282    3.4636 H         1 <0>         0.0000
@<TRIPOS>BOND
     1    1    4 ar
     2    1    3 ar
     3    1   39 1
     4    2    6 ar
     5    2    5 ar
     6    2   40 1
     7    3    9 ar
     8    3   41 1
     9    4   10 ar
    10    4   42 1
    11    5   11 ar
    12    5   43 1
    13    6   12 ar
    14    6   44 1
    15    7    8 ar
    16    7   17 ar
    17    7   45 1
    18    8   18 ar
    19    8   46 1
    20    9   19 ar
    21    9   47 1
    22   10   19 ar
    23   10   48 1
    24   11   21 ar
    25   11   49 1
    26   12   21 ar
    27   12   50 1
    28   13   15 ar
    29   13   20 ar
    30   13   51 1
    31   14   16 ar
    32   14   20 ar
    33   14   52 1
    34   15   22 ar
    35   15   53 1
    36   16   22 ar
    37   16   54 1
    38   17   23 ar
    39   17   55 1
    40   18   34 ar
    41   18   56 1
    42   19   24 1
    43   20   24 1
    44   21   25 1
    45   22   37 1
    46   23   27 1
    47   23   34 ar
    48   24   25 2
    49   25   28 1
    50   26   28 1
    51   26   57 1
    52   26   58 1
    53   26   59 1
    54   27   38 1
    55   27   60 1
    56   27   61 1
    57   28   62 1
    58   28   63 1
    59   29   30 1
    60   29   31 1
    61   29   64 1
    62   29   65 1
    63   30   32 1
    64   30   66 1
    65   30   67 1
    66   31   33 1
    67   31   68 1
    68   31   69 1
    69   32   37 1
    70   32   70 1
    71   32   71 1
    72   33   38 1
    73   33   72 1
    74   33   73 1
    75   35   38 2
    76   36   38 2
