@<TRIPOS>MOLECULE
*****
   73    76     0     0     0
SMALL
NO_CHARGES

@<TRIPOS>ATOM
      1 C1          7.8790    3.8215    7.8724 C.ar      1 <0>         0.0000
      2 C2          6.3638   -5.0592    5.1277 C.ar      1 <0>         0.0000
      3 C3          7.4386    3.7014    6.5488 C.ar      1 <0>         0.0000
      4 C4          7.9757    2.6781    8.6715 C.ar      1 <0>         0.0000
      5 C5          5.6671   -4.3320    6.0998 C.ar      1 <0>         0.0000
      6 C6          7.4929   -4.4938    4.5266 C.ar      1 <0>         0.0000
      7 C7         -9.5746   -2.2152    5.2694 C.ar      1 <0>         0.0000
      8 C8        -10.0133   -3.5289    5.0878 C.ar      1 <0>         0.0000
      9 C9          7.1006    2.4496    6.0317 C.ar      1 <0>         0.0000
     10 C10         7.6455    1.4251    8.1474 C.ar      1 <0>         0.0000
     11 C11         6.0900   -3.0512    6.4574 C.ar      1 <0>         0.0000
     12 C12         7.9189   -3.2144    4.8940 C.ar      1 <0>         0.0000
     13 C13         4.3733    0.4880    6.3418 C.ar      1 <0>         0.0000
     14 C14         5.2153   -0.6591    4.4055 C.ar      1 <0>         0.0000
     15 C15         3.0870    0.4465    5.8165 C.ar      1 <0>         0.0000
     16 C16         3.9307   -0.7007    3.8570 C.ar      1 <0>         0.0000
     17 C17        -8.2145   -1.9838    5.4742 C.ar      1 <0>         0.0000
     18 C18        -9.0649   -4.5551    5.1175 C.ar      1 <0>         0.0000
     19 C19         7.2154    1.2893    6.8171 C.ar      1 <0>         0.0000
     20 C20         5.4642   -0.0839    5.6587 C.ar      1 <0>         0.0000
     21 C21         7.2165   -2.4658    5.8533 C.ar      1 <0>         0.0000
     22 C22         2.8542   -0.1551    4.5695 C.ar      1 <0>         0.0000
     23 C23        -7.3432   -3.0823    5.4820 C.ar      1 <0>         0.0000
     24 C24         6.8303   -0.0369    6.2519 C.2       1 <0>         0.0000
     25 C25         7.6713   -1.1046    6.2594 C.2       1 <0>         0.0000
     26 C26         9.4315   -1.8376    7.9563 C.3       1 <0>         0.0000
     27 C27        -5.8609   -2.8968    5.6750 C.3       1 <0>         0.0000
     28 C28         9.1228   -1.0204    6.6901 C.3       1 <0>         0.0000
     29 C29        -1.0500   -1.4579    3.7365 C.3       1 <0>         0.0000
     30 C30        -0.2479   -0.7010    2.6719 C.3       1 <0>         0.0000
     31 C31        -2.5616   -1.3731    3.4925 C.3       1 <0>         0.0000
     32 C32         1.2563   -0.7816    2.8865 C.3       1 <0>         0.0000
     33 C33        -3.3424   -2.1172    4.5764 C.3       1 <0>         0.0000
     34 N1         -7.7551   -4.3476    5.3067 N.ar      1 <0>         0.0000
     35 O1         -5.5386   -0.6106    4.3160 O.2       1 <0>         0.0000
     36 O2         -5.4020   -2.8039    3.0157 O.2       1 <0>         0.0000
     37 O3          1.5560   -0.1496    4.1343 O.3       1 <0>         0.0000
     38 S1         -5.1270   -2.0267    4.2346 S.o2      1 <0>         0.0000
     39 H1          8.1348    4.7969    8.2783 H         1 <0>         0.0000
     40 H2          6.0339   -6.0560    4.8461 H         1 <0>         0.0000
     41 H3          7.3542    4.5853    5.9214 H         1 <0>         0.0000
     42 H4          8.3017    2.7613    9.7054 H         1 <0>         0.0000
     43 H5          4.7931   -4.7642    6.5808 H         1 <0>         0.0000
     44 H6          8.0430   -5.0488    3.7705 H         1 <0>         0.0000
     45 H7        -10.2767   -1.3859    5.2492 H         1 <0>         0.0000
     46 H8        -11.0625   -3.7583    4.9251 H         1 <0>         0.0000
     47 H9          6.7442    2.3626    5.0087 H         1 <0>         0.0000
     48 H10         7.7066    0.5423    8.7771 H         1 <0>         0.0000
     49 H11         5.5418   -2.4884    7.2070 H         1 <0>         0.0000
     50 H12         8.7932   -2.7858    4.4108 H         1 <0>         0.0000
     51 H13         4.5385    0.9659    7.3037 H         1 <0>         0.0000
     52 H14         6.0387   -1.0874    3.8432 H         1 <0>         0.0000
     53 H15         2.2463    0.8778    6.3526 H         1 <0>         0.0000
     54 H16         3.7875   -1.1546    2.8831 H         1 <0>         0.0000
     55 H17        -7.8233   -0.9790    5.5985 H         1 <0>         0.0000
     56 H18        -9.3683   -5.5918    4.9808 H         1 <0>         0.0000
     57 H19         9.1799   -2.8933    7.8170 H         1 <0>         0.0000
     58 H20         8.8568   -1.4696    8.8126 H         1 <0>         0.0000
     59 H21        10.4951   -1.7712    8.2091 H         1 <0>         0.0000
     60 H22        -5.3765   -3.8717    5.7497 H         1 <0>         0.0000
     61 H23        -5.6232   -2.2747    6.5419 H         1 <0>         0.0000
     62 H24         9.4166    0.0205    6.8351 H         1 <0>         0.0000
     63 H25         9.7477   -1.4061    5.8740 H         1 <0>         0.0000
     64 H26        -0.7371   -2.5108    3.7448 H         1 <0>         0.0000
     65 H27        -0.8065   -1.0505    4.7237 H         1 <0>         0.0000
     66 H28        -0.5472    0.3536    2.6581 H         1 <0>         0.0000
     67 H29        -0.4687   -1.1078    1.6770 H         1 <0>         0.0000
     68 H30        -2.8799   -0.3257    3.4771 H         1 <0>         0.0000
     69 H31        -2.8082   -1.8011    2.5152 H         1 <0>         0.0000
     70 H32         1.5884   -1.8290    2.9121 H         1 <0>         0.0000
     71 H33         1.7902   -0.2712    2.0738 H         1 <0>         0.0000
     72 H34        -3.0866   -3.1805    4.6039 H         1 <0>         0.0000
     73 H35        -3.1851   -1.6751    5.5650 H         1 <0>         0.0000
@<TRIPOS>BOND
     1    1    4 ar
     2    1    3 ar
     3    1   39 1
     4    2    6 ar
     5    2    5 ar
     6    2   40 1
     7    3    9 ar
     8    3   41 1
     9    4   10 ar
    10    4   42 1
    11    5   11 ar
    12    5   43 1
    13    6   12 ar
    14    6   44 1
    15    7    8 ar
    16    7   17 ar
    17    7   45 1
    18    8   18 ar
    19    8   46 1
    20    9   19 ar
    21    9   47 1
    22   10   19 ar
    23   10   48 1
    24   11   21 ar
    25   11   49 1
    26   12   21 ar
    27   12   50 1
    28   13   15 ar
    29   13   20 ar
    30   13   51 1
    31   14   16 ar
    32   14   20 ar
    33   14   52 1
    34   15   22 ar
    35   15   53 1
    36   16   22 ar
    37   16   54 1
    38   17   23 ar
    39   17   55 1
    40   18   34 ar
    41   18   56 1
    42   19   24 1
    43   20   24 1
    44   21   25 1
    45   22   37 1
    46   23   27 1
    47   23   34 ar
    48   24   25 2
    49   25   28 1
    50   26   28 1
    51   26   57 1
    52   26   58 1
    53   26   59 1
    54   27   38 1
    55   27   60 1
    56   27   61 1
    57   28   62 1
    58   28   63 1
    59   29   30 1
    60   29   31 1
    61   29   64 1
    62   29   65 1
    63   30   32 1
    64   30   66 1
    65   30   67 1
    66   31   33 1
    67   31   68 1
    68   31   69 1
    69   32   37 1
    70   32   70 1
    71   32   71 1
    72   33   38 1
    73   33   72 1
    74   33   73 1
    75   35   38 2
    76   36   38 2
