@<TRIPOS>MOLECULE
*****
   31    32     0     0     0
SMALL
NO_CHARGES

@<TRIPOS>ATOM
      1 C1          1.7259   -1.8181   -0.5525 C.ar      1 <0>         0.0000
      2 C2          0.4620   -1.5212   -0.0331 C.ar      1 <0>         0.0000
      3 C3          2.8368   -1.8538    0.2935 C.ar      1 <0>         0.0000
      4 C4          0.3145   -1.2411    1.3284 C.ar      1 <0>         0.0000
      5 C5          5.2575   -2.1005    4.1095 C.2       1 <0>         0.0000
      6 C6          3.9736   -2.3407    3.6799 C.2       1 <0>         0.0000
      7 C7          5.0289   -0.9559    2.3042 C.2       1 <0>         0.0000
      8 C8          2.6947   -1.5707    1.6560 C.ar      1 <0>         0.0000
      9 C9          1.4258   -1.2537    2.1728 C.ar      1 <0>         0.0000
     10 C10         4.1448    0.5613    5.9898 C.3       1 <0>         0.0000
     11 C11         1.5941    0.3766    3.8714 C.3       1 <0>         0.0000
     12 C12         1.4603    0.5201    5.3732 C.3       1 <0>         0.0000
     13 N1          5.9025   -1.2280    3.2518 N.2       1 <0>         0.0000
     14 N2          3.8293   -1.6051    2.5111 N.pl3     1 <0>         0.0000
     15 O1          2.3144   -0.1512    7.8177 O.2       1 <0>         0.0000
     16 O2          1.2663   -0.9805    3.5158 O.3       1 <0>         0.0000
     17 S1          2.6722   -0.4638    6.3733 S.o       1 <0>         0.0000
     18 H1          1.8459   -2.0417   -1.6085 H         1 <0>         0.0000
     19 H2         -0.4077   -1.5100   -0.6839 H         1 <0>         0.0000
     20 H3          3.8177   -2.1213   -0.0890 H         1 <0>         0.0000
     21 H4         -0.6567   -1.0078    1.7555 H         1 <0>         0.0000
     22 H5          5.7485   -2.4971    4.9887 H         1 <0>         0.0000
     23 H6          3.1679   -2.9408    4.0735 H         1 <0>         0.0000
     24 H7          5.1822   -0.2985    1.4577 H         1 <0>         0.0000
     25 H8          4.9664    0.1478    6.5777 H         1 <0>         0.0000
     26 H9          3.9407    1.5867    6.3102 H         1 <0>         0.0000
     27 H10         4.4073    0.5094    4.9318 H         1 <0>         0.0000
     28 H11         0.8948    1.0584    3.3690 H         1 <0>         0.0000
     29 H12         2.6056    0.6194    3.5254 H         1 <0>         0.0000
     30 H13         1.5699    1.5640    5.6836 H         1 <0>         0.0000
     31 H14         0.4850    0.1578    5.7092 H         1 <0>         0.0000
@<TRIPOS>BOND
     1    1    2 ar
     2    1    3 ar
     3    1   18 1
     4    2    4 ar
     5    2   19 1
     6    3    8 ar
     7    3   20 1
     8    4    9 ar
     9    4   21 1
    10    5    6 2
    11    5   13 1
    12    5   22 1
    13    6   14 1
    14    6   23 1
    15    7   13 2
    16    7   14 1
    17    7   24 1
    18    8    9 ar
    19    8   14 1
    20    9   16 1
    21   10   17 1
    22   10   25 1
    23   10   26 1
    24   10   27 1
    25   11   12 1
    26   11   16 1
    27   11   28 1
    28   11   29 1
    29   12   17 1
    30   12   30 1
    31   12   31 1
    32   15   17 2
