@<TRIPOS>MOLECULE
*****
   31    32     0     0     0
SMALL
NO_CHARGES

@<TRIPOS>ATOM
      1 C1          1.7240   -0.9183   -0.0763 C.ar      1 <0>         0.0000
      2 C2          0.4292   -0.6955    0.3946 C.ar      1 <0>         0.0000
      3 C3          2.7479   -1.1761    0.8380 C.ar      1 <0>         0.0000
      4 C4          0.1521   -0.7577    1.7637 C.ar      1 <0>         0.0000
      5 C5          5.1444   -1.2054    4.6048 C.2       1 <0>         0.0000
      6 C6          4.0028   -0.6182    4.1110 C.2       1 <0>         0.0000
      7 C7          4.4517   -2.5203    3.0549 C.2       1 <0>         0.0000
      8 C8          2.4850   -1.2392    2.2088 C.ar      1 <0>         0.0000
      9 C9          1.1697   -1.0522    2.6799 C.ar      1 <0>         0.0000
     10 C10         2.3996   -1.4072    6.9285 C.3       1 <0>         0.0000
     11 C11        -0.1383   -0.4902    4.5991 C.3       1 <0>         0.0000
     12 C12        -0.1469   -0.7137    6.0977 C.3       1 <0>         0.0000
     13 N1          5.4130   -2.3925    3.9458 N.2       1 <0>         0.0000
     14 N2          3.5564   -1.4736    3.1116 N.pl3     1 <0>         0.0000
     15 O1          1.8844    1.0900    5.9376 O.2       1 <0>         0.0000
     16 O2          0.9566   -1.2098    4.0246 O.3       1 <0>         0.0000
     17 S1          1.3252    0.0788    6.9315 S.o       1 <0>         0.0000
     18 H1          1.9429   -0.8674   -1.1386 H         1 <0>         0.0000
     19 H2         -0.3755   -0.4725   -0.3006 H         1 <0>         0.0000
     20 H3          3.7730   -1.3044    0.5025 H         1 <0>         0.0000
     21 H4         -0.8630   -0.5935    2.1065 H         1 <0>         0.0000
     22 H5          5.7856   -0.8432    5.3984 H         1 <0>         0.0000
     23 H6          3.4490    0.2661    4.3974 H         1 <0>         0.0000
     24 H7          4.3290   -3.3355    2.3530 H         1 <0>         0.0000
     25 H8          3.3897   -1.0820    7.2518 H         1 <0>         0.0000
     26 H9          2.4552   -1.8413    5.9319 H         1 <0>         0.0000
     27 H10         1.9874   -2.1165    7.6531 H         1 <0>         0.0000
     28 H11        -1.0942   -0.8487    4.1978 H         1 <0>         0.0000
     29 H12        -0.0254    0.5757    4.3732 H         1 <0>         0.0000
     30 H13        -1.0331   -0.2306    6.5199 H         1 <0>         0.0000
     31 H14        -0.1677   -1.7763    6.3530 H         1 <0>         0.0000
@<TRIPOS>BOND
     1    1    2 ar
     2    1    3 ar
     3    1   18 1
     4    2    4 ar
     5    2   19 1
     6    3    8 ar
     7    3   20 1
     8    4    9 ar
     9    4   21 1
    10    5    6 2
    11    5   13 1
    12    5   22 1
    13    6   14 1
    14    6   23 1
    15    7   13 2
    16    7   14 1
    17    7   24 1
    18    8    9 ar
    19    8   14 1
    20    9   16 1
    21   10   17 1
    22   10   25 1
    23   10   26 1
    24   10   27 1
    25   11   12 1
    26   11   16 1
    27   11   28 1
    28   11   29 1
    29   12   17 1
    30   12   30 1
    31   12   31 1
    32   15   17 2
