@<TRIPOS>MOLECULE
*****
   31    32     0     0     0
SMALL
NO_CHARGES

@<TRIPOS>ATOM
      1 C1          1.9351   -1.1253    0.6712 C.ar      1 <0>         0.0000
      2 C2          1.3069   -0.3233    1.6241 C.ar      1 <0>         0.0000
      3 C3          3.1494   -1.7431    0.9861 C.ar      1 <0>         0.0000
      4 C4          1.8886   -0.1239    2.8815 C.ar      1 <0>         0.0000
      5 C5          6.6205   -3.3275    3.4322 C.2       1 <0>         0.0000
      6 C6          5.3136   -2.9451    3.6222 C.2       1 <0>         0.0000
      7 C7          6.1258   -2.1021    1.7394 C.2       1 <0>         0.0000
      8 C8          3.7458   -1.5469    2.2321 C.ar      1 <0>         0.0000
      9 C9          3.1139   -0.7244    3.1896 C.ar      1 <0>         0.0000
     10 C10         4.8818   -1.3213    8.8189 C.3       1 <0>         0.0000
     11 C11         3.1533    0.1823    5.4173 C.3       1 <0>         0.0000
     12 C12         4.0646    0.0850    6.6242 C.3       1 <0>         0.0000
     13 N1          7.1197   -2.7916    2.2582 N.2       1 <0>         0.0000
     14 N2          4.9942   -2.1565    2.5253 N.pl3     1 <0>         0.0000
     15 O1          2.6607   -2.0422    7.4709 O.2       1 <0>         0.0000
     16 O2          3.7783   -0.5625    4.3710 O.3       1 <0>         0.0000
     17 S1          4.1119   -1.6797    7.1938 S.o       1 <0>         0.0000
     18 H1          1.4806   -1.2860   -0.3017 H         1 <0>         0.0000
     19 H2          0.3561    0.1515    1.3983 H         1 <0>         0.0000
     20 H3          3.6404   -2.3979    0.2720 H         1 <0>         0.0000
     21 H4          1.3872    0.5052    3.6078 H         1 <0>         0.0000
     22 H5          7.2275   -3.9582    4.0689 H         1 <0>         0.0000
     23 H6          4.5959   -3.1511    4.4014 H         1 <0>         0.0000
     24 H7          6.1526   -1.5271    0.8225 H         1 <0>         0.0000
     25 H8          4.9993   -2.2771    9.3336 H         1 <0>         0.0000
     26 H9          4.2106   -0.6737    9.3891 H         1 <0>         0.0000
     27 H10         5.8597   -0.8523    8.6771 H         1 <0>         0.0000
     28 H11         2.1713   -0.2414    5.6581 H         1 <0>         0.0000
     29 H12         3.0332    1.2319    5.1193 H         1 <0>         0.0000
     30 H13         5.0832    0.4018    6.3822 H         1 <0>         0.0000
     31 H14         3.6612    0.6872    7.4439 H         1 <0>         0.0000
@<TRIPOS>BOND
     1    1    2 ar
     2    1    3 ar
     3    1   18 1
     4    2    4 ar
     5    2   19 1
     6    3    8 ar
     7    3   20 1
     8    4    9 ar
     9    4   21 1
    10    5    6 2
    11    5   13 1
    12    5   22 1
    13    6   14 1
    14    6   23 1
    15    7   13 2
    16    7   14 1
    17    7   24 1
    18    8    9 ar
    19    8   14 1
    20    9   16 1
    21   10   17 1
    22   10   25 1
    23   10   26 1
    24   10   27 1
    25   11   12 1
    26   11   16 1
    27   11   28 1
    28   11   29 1
    29   12   17 1
    30   12   30 1
    31   12   31 1
    32   15   17 2
