@<TRIPOS>MOLECULE
*****
   24    24     0     0     0
SMALL
NO_CHARGES

@<TRIPOS>ATOM
      1 C1         -2.4545   -2.1240    1.2754 C.1       1 <0>         0.0000
      2 C2         -4.4845    1.3458    1.3227 C.ar      1 <0>         0.0000
      3 C3         -3.6750    0.1520    3.2608 C.ar      1 <0>         0.0000
      4 C4         -5.6739    1.6292    1.9940 C.ar      1 <0>         0.0000
      5 C5         -4.8643    0.4355    3.9322 C.ar      1 <0>         0.0000
      6 C6         -3.4851    0.6071    1.9561 C.ar      1 <0>         0.0000
      7 C7         -5.8638    1.1741    3.2988 C.ar      1 <0>         0.0000
      8 C8         -2.2303    0.3085    1.2487 C.2       1 <0>         0.0000
      9 C9         -0.4739   -0.9739    0.2241 C.2       1 <0>         0.0000
     10 C10        -1.7692   -0.9187    0.9526 C.2       1 <0>         0.0000
     11 C11         1.4150   -2.8016    2.4182 C.3       1 <0>         0.0000
     12 N1         -3.0100   -3.1088    1.5368 N.1       1 <0>         0.0000
     13 N2          0.5731   -1.5798    0.6814 N.2       1 <0>         0.0000
     14 O1          0.2588   -2.1401    1.9274 O.3       1 <0>         0.0000
     15 Cl1        -7.3310    1.5241    4.1267 Cl        1 <0>         0.0000
     16 H1         -4.3507    1.7066    0.3056 H         1 <0>         0.0000
     17 H2         -2.9047   -0.4248    3.7673 H         1 <0>         0.0000
     18 H3         -6.4436    2.2064    1.4879 H         1 <0>         0.0000
     19 H4         -4.9985    0.0742    4.9487 H         1 <0>         0.0000
     20 H5         -1.6773    1.1951    0.9434 H         1 <0>         0.0000
     21 H6         -0.4434   -0.4581   -0.7538 H         1 <0>         0.0000
     22 H7          1.1950   -3.2478    3.3911 H         1 <0>         0.0000
     23 H8          2.2343   -2.0843    2.5113 H         1 <0>         0.0000
     24 H9          1.6999   -3.5880    1.7152 H         1 <0>         0.0000
@<TRIPOS>BOND
     1    1   10 1
     2    1   12 3
     3    2    4 ar
     4    2    6 ar
     5    2   16 1
     6    3    5 ar
     7    3    6 ar
     8    3   17 1
     9    4    7 ar
    10    4   18 1
    11    5    7 ar
    12    5   19 1
    13    6    8 1
    14    7   15 1
    15    8   10 2
    16    8   20 1
    17    9   10 1
    18    9   13 2
    19    9   21 1
    20   11   14 1
    21   11   22 1
    22   11   23 1
    23   11   24 1
    24   13   14 1
