@<TRIPOS>MOLECULE
*****
   36    38     0     0     0
SMALL
NO_CHARGES

@<TRIPOS>ATOM
      1 C1         -5.5475    3.1782   -1.1099 C.ar      1 <0>         0.0000
      2 C2         -6.1398    2.5104   -2.1817 C.ar      1 <0>         0.0000
      3 C3         -5.3007    2.5001    0.0838 C.ar      1 <0>         0.0000
      4 C4         -6.4855    1.1645   -2.0598 C.ar      1 <0>         0.0000
      5 C5         -5.6464    1.1543    0.2058 C.ar      1 <0>         0.0000
      6 C6         -6.2388    0.4865   -0.8660 C.ar      1 <0>         0.0000
      7 C7         -4.4419   -0.7170    1.3983 C.2       1 <0>         0.0000
      8 C8         -0.2674   -0.4744    0.9136 C.3       1 <0>         0.0000
      9 C9         -1.0654    0.6002    1.6506 C.3       1 <0>         0.0000
     10 C10        -1.0681   -1.7711    0.8049 C.3       1 <0>         0.0000
     11 C11        -5.2949    1.2911    2.7560 C.3       1 <0>         0.0000
     12 C12        -6.4666    0.3925    2.5269 C.3       1 <0>         0.0000
     13 C13        -2.4395    0.8044    1.0163 C.3       1 <0>         0.0000
     14 C14        -2.4407   -1.5220    0.1859 C.3       1 <0>         0.0000
     15 C15        -5.3692    0.4686    1.4883 C.3       1 <0>         0.0000
     16 N1         -3.1590   -0.4712    0.9103 N.am      1 <0>         0.0000
     17 O1         -4.8468   -1.8270    1.7534 O.2       1 <0>         0.0000
     18 Cl1        -6.6819   -1.1785   -0.7550 Cl        1 <0>         0.0000
     19 H1         -5.2774    4.2258   -1.2052 H         1 <0>         0.0000
     20 H2         -6.3319    3.0389   -3.1109 H         1 <0>         0.0000
     21 H3         -4.8379    3.0306    0.9120 H         1 <0>         0.0000
     22 H4         -6.9459    0.6588   -2.9048 H         1 <0>         0.0000
     23 H5          0.6762   -0.6630    1.4375 H         1 <0>         0.0000
     24 H6         -0.0126   -0.1160   -0.0914 H         1 <0>         0.0000
     25 H7         -1.1867    0.3130    2.7023 H         1 <0>         0.0000
     26 H8         -0.5091    1.5441    1.6374 H         1 <0>         0.0000
     27 H9         -0.5143   -2.4952    0.1971 H         1 <0>         0.0000
     28 H10        -1.1893   -2.2137    1.8013 H         1 <0>         0.0000
     29 H11        -5.4599    2.3604    2.6848 H         1 <0>         0.0000
     30 H12        -4.5876    1.0085    3.5273 H         1 <0>         0.0000
     31 H13        -6.5478   -0.4952    3.1439 H         1 <0>         0.0000
     32 H14        -7.4198    0.8566    2.3016 H         1 <0>         0.0000
     33 H15        -3.0000    1.5407    1.5954 H         1 <0>         0.0000
     34 H16        -2.3358    1.2017   -0.0005 H         1 <0>         0.0000
     35 H17        -2.3382   -1.1908   -0.8543 H         1 <0>         0.0000
     36 H18        -3.0176   -2.4523    0.1780 H         1 <0>         0.0000
@<TRIPOS>BOND
     1    1    2 ar
     2    1    3 ar
     3    1   19 1
     4    2    4 ar
     5    2   20 1
     6    3    5 ar
     7    3   21 1
     8    4    6 ar
     9    4   22 1
    10    5    6 ar
    11    5   15 1
    12    6   18 1
    13    7   15 1
    14    7   16 am
    15    7   17 2
    16    8   10 1
    17    8    9 1
    18    8   23 1
    19    8   24 1
    20    9   13 1
    21    9   25 1
    22    9   26 1
    23   10   14 1
    24   10   27 1
    25   10   28 1
    26   11   12 1
    27   11   15 1
    28   11   29 1
    29   11   30 1
    30   12   15 1
    31   12   31 1
    32   12   32 1
    33   13   16 1
    34   13   33 1
    35   13   34 1
    36   14   16 1
    37   14   35 1
    38   14   36 1
