@<TRIPOS>MOLECULE
*****
   42    45     0     0     0
SMALL
NO_CHARGES

@<TRIPOS>ATOM
      1 C1         -2.5247    0.3537   -0.6083 C.ar      1 <0>         0.0000
      2 C2         -1.6714   -0.1971    0.3538 C.ar      1 <0>         0.0000
      3 C3         -3.5288   -0.4356   -1.1893 C.ar      1 <0>         0.0000
      4 C4         -1.7957   -1.5314    0.7658 C.ar      1 <0>         0.0000
      5 C5         -3.6600   -7.5809   -0.4262 C.ar      1 <0>         0.0000
      6 C6         -1.3788   -6.8217   -0.2696 C.ar      1 <0>         0.0000
      7 C7         -3.6638   -1.7597   -0.7896 C.ar      1 <0>         0.0000
      8 C8         -2.6972   -6.7897    0.2028 C.ar      1 <0>         0.0000
      9 C9         -2.8083   -2.2993    0.1834 C.ar      1 <0>         0.0000
     10 C10        -3.3349   -8.3917   -1.5177 C.ar      1 <0>         0.0000
     11 C11        -2.0181   -8.4022   -2.0253 C.ar      1 <0>         0.0000
     12 C12        -1.0567   -7.6146   -1.3678 C.ar      1 <0>         0.0000
     13 C13        -2.4921   -4.5082    1.2690 C.2       1 <0>         0.0000
     14 C14        -4.6098   -2.8271   -1.2911 C.3       1 <0>         0.0000
     15 C15        -3.5331  -10.3922   -3.9999 C.3       1 <0>         0.0000
     16 C16        -4.4254   -3.9717   -0.2704 C.3       1 <0>         0.0000
     17 C17        -4.0189  -10.4410   -2.5518 C.3       1 <0>         0.0000
     18 C18        -2.5523   -9.2358   -4.1965 C.3       1 <0>         0.0000
     19 C19        -3.0598   -5.9214    1.3952 C.3       1 <0>         0.0000
     20 N1         -3.1584   -3.6514    0.4305 N.am      1 <0>         0.0000
     21 O1         -1.4655   -4.1890    1.8715 O.2       1 <0>         0.0000
     22 O2         -4.3622   -9.1280   -2.0655 O.3       1 <0>         0.0000
     23 O3         -1.6187   -9.1490   -3.1029 O.3       1 <0>         0.0000
     24 Cl1         0.5881   -7.6193   -1.9677 Cl        1 <0>         0.0000
     25 H1         -2.4085    1.3917   -0.9078 H         1 <0>         0.0000
     26 H2         -0.8929    0.4185    0.7971 H         1 <0>         0.0000
     27 H3         -4.1910   -0.0180   -1.9444 H         1 <0>         0.0000
     28 H4         -1.1358   -1.9614    1.5065 H         1 <0>         0.0000
     29 H5         -4.6875   -7.6040   -0.0727 H         1 <0>         0.0000
     30 H6         -0.6086   -6.2215    0.2045 H         1 <0>         0.0000
     31 H7         -5.6497   -2.4929   -1.3394 H         1 <0>         0.0000
     32 H8         -4.3201   -3.1518   -2.2973 H         1 <0>         0.0000
     33 H9         -3.0568  -11.3492   -4.2409 H         1 <0>         0.0000
     34 H10        -4.3762  -10.2586   -4.6870 H         1 <0>         0.0000
     35 H11        -5.2487   -3.9871    0.4539 H         1 <0>         0.0000
     36 H12        -4.3631   -4.9486   -0.7489 H         1 <0>         0.0000
     37 H13        -4.9315  -11.0345   -2.4595 H         1 <0>         0.0000
     38 H14        -3.2565  -10.8778   -1.8993 H         1 <0>         0.0000
     39 H15        -1.9408   -9.3793   -5.0902 H         1 <0>         0.0000
     40 H16        -3.0838   -8.2837   -4.2918 H         1 <0>         0.0000
     41 H17        -4.1456   -5.9059    1.5261 H         1 <0>         0.0000
     42 H18        -2.6199   -6.3308    2.3080 H         1 <0>         0.0000
@<TRIPOS>BOND
     1    1    2 ar
     2    1    3 ar
     3    1   25 1
     4    2    4 ar
     5    2   26 1
     6    3    7 ar
     7    3   27 1
     8    4    9 ar
     9    4   28 1
    10    5    8 ar
    11    5   10 ar
    12    5   29 1
    13    6    8 ar
    14    6   12 ar
    15    6   30 1
    16    7    9 ar
    17    7   14 1
    18    8   19 1
    19    9   20 1
    20   10   11 ar
    21   10   22 1
    22   11   12 ar
    23   11   23 1
    24   12   24 1
    25   13   19 1
    26   13   20 am
    27   13   21 2
    28   14   16 1
    29   14   31 1
    30   14   32 1
    31   15   17 1
    32   15   18 1
    33   15   33 1
    34   15   34 1
    35   16   20 1
    36   16   35 1
    37   16   36 1
    38   17   22 1
    39   17   37 1
    40   17   38 1
    41   18   23 1
    42   18   39 1
    43   18   40 1
    44   19   41 1
    45   19   42 1
