@<TRIPOS>MOLECULE
*****
   28    30     0     0     0
SMALL
NO_CHARGES

@<TRIPOS>ATOM
      1 C1          1.8543   -4.0492   -0.6913 C.ar      1 <0>         0.0000
      2 C2          0.6526    1.8158    3.1074 C.ar      1 <0>         0.0000
      3 C3          1.2630    0.9808    2.1496 C.ar      1 <0>         0.0000
      4 C4          2.5322   -4.7697   -1.6675 C.ar      1 <0>         0.0000
      5 C5         -0.8993   -0.0058    1.5333 C.ar      1 <0>         0.0000
      6 C6          3.3401   -2.6779   -2.6115 C.ar      1 <0>         0.0000
      7 C7          1.8899   -2.6438   -0.6392 C.ar      1 <0>         0.0000
      8 C8         -0.7167    1.7068    3.2528 C.ar      1 <0>         0.0000
      9 C9         -1.4704    0.8178    2.4835 C.ar      1 <0>         0.0000
     10 C10         0.4958    0.1003    1.3947 C.ar      1 <0>         0.0000
     11 C11         2.6488   -1.9858   -1.6200 C.ar      1 <0>         0.0000
     12 C12         3.2733   -4.0699   -2.6256 C.ar      1 <0>         0.0000
     13 C13         1.1184   -1.9971    0.4622 C.2       1 <0>         0.0000
     14 C14        -2.8316    1.7729    3.9788 C.3       1 <0>         0.0000
     15 O1          0.5110   -2.6246    1.3064 O.2       1 <0>         0.0000
     16 O2         -1.5546    2.4222    4.0843 O.3       1 <0>         0.0000
     17 O3         -2.8041    0.9415    2.8059 O.3       1 <0>         0.0000
     18 O4          1.1674   -0.6388    0.4078 O.3       1 <0>         0.0000
     19 F1          2.7487   -0.6439   -1.6472 F         1 <0>         0.0000
     20 Cl1         4.1352   -4.9508   -3.8656 Cl        1 <0>         0.0000
     21 H1          1.2721   -4.5634    0.0663 H         1 <0>         0.0000
     22 H2          1.2326    2.5144    3.7013 H         1 <0>         0.0000
     23 H3          2.3350    1.0181    1.9866 H         1 <0>         0.0000
     24 H4          2.4908   -5.8533   -1.6911 H         1 <0>         0.0000
     25 H5         -1.4844   -0.6988    0.9408 H         1 <0>         0.0000
     26 H6          3.9134   -2.1259   -3.3481 H         1 <0>         0.0000
     27 H7         -2.9942    1.1434    4.8644 H         1 <0>         0.0000
     28 H8         -3.6135    2.5268    3.8688 H         1 <0>         0.0000
@<TRIPOS>BOND
     1    1    4 ar
     2    1    7 ar
     3    1   21 1
     4    2    3 ar
     5    2    8 ar
     6    2   22 1
     7    3   10 ar
     8    3   23 1
     9    4   12 ar
    10    4   24 1
    11    5    9 ar
    12    5   10 ar
    13    5   25 1
    14    6   11 ar
    15    6   12 ar
    16    6   26 1
    17    7   11 ar
    18    7   13 1
    19    8    9 ar
    20    8   16 1
    21    9   17 1
    22   10   18 1
    23   11   19 1
    24   12   20 1
    25   13   15 2
    26   13   18 1
    27   14   16 1
    28   14   17 1
    29   14   27 1
    30   14   28 1
