@<TRIPOS>MOLECULE
*****
   28    30     0     0     0
SMALL
NO_CHARGES

@<TRIPOS>ATOM
      1 C1         -1.2049   -2.3459   -1.7050 C.ar      1 <0>         0.0000
      2 C2          0.4218    2.0930    2.4272 C.ar      1 <0>         0.0000
      3 C3          0.2967    1.0970    1.4371 C.ar      1 <0>         0.0000
      4 C4         -1.3830   -3.1203   -2.8470 C.ar      1 <0>         0.0000
      5 C5         -1.7077    0.1815    2.5184 C.ar      1 <0>         0.0000
      6 C6         -0.6821   -5.0872   -1.5981 C.ar      1 <0>         0.0000
      7 C7         -0.7680   -2.9043   -0.4893 C.ar      1 <0>         0.0000
      8 C8         -0.5204    2.0953    3.4373 C.ar      1 <0>         0.0000
      9 C9         -1.5581    1.1615    3.4799 C.ar      1 <0>         0.0000
     10 C10        -0.7437    0.1769    1.4954 C.ar      1 <0>         0.0000
     11 C11        -0.5145   -4.2860   -0.4720 C.ar      1 <0>         0.0000
     12 C12        -1.1180   -4.4917   -2.7806 C.ar      1 <0>         0.0000
     13 C13        -0.5862   -2.0679    0.7288 C.2       1 <0>         0.0000
     14 C14        -1.6553    2.3966    5.3410 C.3       1 <0>         0.0000
     15 O1         -0.2508   -2.4607    1.8225 O.2       1 <0>         0.0000
     16 O2         -0.6452    2.9712    4.4967 O.3       1 <0>         0.0000
     17 O3         -2.3666    1.4161    4.5655 O.3       1 <0>         0.0000
     18 O4         -0.8601   -0.7485    0.4468 O.3       1 <0>         0.0000
     19 F1         -0.0929   -4.8948    0.6471 F         1 <0>         0.0000
     20 Cl1        -1.3353   -5.4834   -4.2038 Cl        1 <0>         0.0000
     21 H1         -1.4069   -1.2822   -1.7419 H         1 <0>         0.0000
     22 H2          1.2223    2.8247    2.3968 H         1 <0>         0.0000
     23 H3          1.0103    1.0375    0.6218 H         1 <0>         0.0000
     24 H4         -1.7218   -2.6730   -3.7752 H         1 <0>         0.0000
     25 H5         -2.5093   -0.5476    2.5500 H         1 <0>         0.0000
     26 H6         -0.4727   -6.1494   -1.5354 H         1 <0>         0.0000
     27 H7         -1.1767    1.9022    6.1973 H         1 <0>         0.0000
     28 H8         -2.3488    3.1774    5.6590 H         1 <0>         0.0000
@<TRIPOS>BOND
     1    1    4 ar
     2    1    7 ar
     3    1   21 1
     4    2    3 ar
     5    2    8 ar
     6    2   22 1
     7    3   10 ar
     8    3   23 1
     9    4   12 ar
    10    4   24 1
    11    5    9 ar
    12    5   10 ar
    13    5   25 1
    14    6   11 ar
    15    6   12 ar
    16    6   26 1
    17    7   11 ar
    18    7   13 1
    19    8    9 ar
    20    8   16 1
    21    9   17 1
    22   10   18 1
    23   11   19 1
    24   12   20 1
    25   13   15 2
    26   13   18 1
    27   14   16 1
    28   14   17 1
    29   14   27 1
    30   14   28 1
