@<TRIPOS>MOLECULE
*****
   38    40     0     0     0
SMALL
NO_CHARGES

@<TRIPOS>ATOM
      1 C1         -6.8930   -1.2327   -1.0757 C.2       1 <0>         0.0000
      2 C2         -0.2741   -0.4696   -1.5058 C.2       1 <0>         0.0000
      3 C3         -0.9859   -0.5236   -0.3126 C.2       1 <0>         0.0000
      4 C4         -5.2504   -0.1409   -2.0948 C.2       1 <0>         0.0000
      5 C5         -4.7193   -1.4075   -2.1791 C.2       1 <0>         0.0000
      6 C6         -2.2171   -1.2617   -2.0283 C.2       1 <0>         0.0000
      7 C7          1.1273   -0.0616   -1.7865 C.2       1 <0>         0.0000
      8 C8         -0.7308   -0.1296    1.1115 C.3       1 <0>         0.0000
      9 C9          1.3331    1.1691    0.4479 C.3       1 <0>         0.0000
     10 C10         0.7342    0.1797    1.4773 C.3       1 <0>         0.0000
     11 C11        -4.6072    1.1161   -2.6050 C.3       1 <0>         0.0000
     12 C12         1.5642   -1.1112    1.5499 C.3       1 <0>         0.0000
     13 C13         0.7378    0.8740    2.8510 C.3       1 <0>         0.0000
     14 C14        -3.3964   -1.8295   -2.7675 C.3       1 <0>         0.0000
     15 N1         -6.4830   -0.0607   -1.4679 N.2       1 <0>         0.0000
     16 N2         -1.0627   -0.9326   -2.5537 N.2       1 <0>         0.0000
     17 N3         -2.2188   -1.0367   -0.6698 N.pl3     1 <0>         0.0000
     18 N4          1.8289    0.5718   -0.7832 N.am      1 <0>         0.0000
     19 O1          1.6716   -0.3060   -2.8623 O.2       1 <0>         0.0000
     20 S1         -5.8085   -2.5497   -1.4355 S.3       1 <0>         0.0000
     21 H1         -7.8357   -1.4091   -0.5683 H         1 <0>         0.0000
     22 H2         -1.3405    0.7570    1.3371 H         1 <0>         0.0000
     23 H3         -1.0969   -0.9243    1.7749 H         1 <0>         0.0000
     24 H4          0.5925    1.9537    0.2349 H         1 <0>         0.0000
     25 H5          2.1924    1.6650    0.9082 H         1 <0>         0.0000
     26 H6         -5.2762    1.6255   -3.3059 H         1 <0>         0.0000
     27 H7         -4.4147    1.8078   -1.7778 H         1 <0>         0.0000
     28 H8         -3.6598    0.9133   -3.1078 H         1 <0>         0.0000
     29 H9          2.6191   -0.8846    1.7387 H         1 <0>         0.0000
     30 H10         1.5100   -1.6848    0.6222 H         1 <0>         0.0000
     31 H11         1.2054   -1.7466    2.3674 H         1 <0>         0.0000
     32 H12         1.7614    1.0206    3.2120 H         1 <0>         0.0000
     33 H13         0.2045    0.2735    3.5962 H         1 <0>         0.0000
     34 H14         0.2524    1.8562    2.8044 H         1 <0>         0.0000
     35 H15        -3.3242   -2.9228   -2.7868 H         1 <0>         0.0000
     36 H16        -3.3132   -1.5019   -3.8076 H         1 <0>         0.0000
     37 H17        -3.0083   -1.1715   -0.0489 H         1 <0>         0.0000
     38 H18         2.7658    0.8171   -1.0789 H         1 <0>         0.0000
@<TRIPOS>BOND
     1    1   15 2
     2    1   20 1
     3    1   21 1
     4    2    3 2
     5    2    7 1
     6    2   16 1
     7    3    8 1
     8    3   17 1
     9    4    5 2
    10    4   11 1
    11    4   15 1
    12    5   14 1
    13    5   20 1
    14    6   14 1
    15    6   16 2
    16    6   17 1
    17    7   18 am
    18    7   19 2
    19    8   10 1
    20    8   22 1
    21    8   23 1
    22    9   10 1
    23    9   18 1
    24    9   24 1
    25    9   25 1
    26   10   12 1
    27   10   13 1
    28   11   26 1
    29   11   27 1
    30   11   28 1
    31   12   29 1
    32   12   30 1
    33   12   31 1
    34   13   32 1
    35   13   33 1
    36   13   34 1
    37   14   35 1
    38   14   36 1
    39   17   37 1
    40   18   38 1
