@<TRIPOS>MOLECULE
*****
   42    45     0     0     0
SMALL
NO_CHARGES

@<TRIPOS>ATOM
      1 C1         -3.7708   -0.2128   -1.8743 C.ar      1 <0>         0.0000
      2 C2         -2.5963   -0.2141   -1.1143 C.ar      1 <0>         0.0000
      3 C3         -4.5923   -1.3500   -1.8971 C.ar      1 <0>         0.0000
      4 C4         -2.2066   -1.3363   -0.3696 C.ar      1 <0>         0.0000
      5 C5         -3.7414   -6.7473    2.7741 C.ar      1 <0>         0.0000
      6 C6         -2.9744   -4.7016    3.7906 C.ar      1 <0>         0.0000
      7 C7         -4.2179   -2.4697   -1.1641 C.ar      1 <0>         0.0000
      8 C8         -2.8878   -5.6428    2.7566 C.ar      1 <0>         0.0000
      9 C9         -3.0325   -2.4634   -0.4127 C.ar      1 <0>         0.0000
     10 C10        -4.6810   -6.9239    3.7940 C.ar      1 <0>         0.0000
     11 C11        -4.8025   -5.9621    4.8197 C.ar      1 <0>         0.0000
     12 C12        -3.9220   -4.8662    4.7974 C.ar      1 <0>         0.0000
     13 C13        -1.8551   -4.0442    1.0948 C.2       1 <0>         0.0000
     14 C14        -4.9407   -3.7838   -0.9727 C.3       1 <0>         0.0000
     15 C15        -7.0746   -8.0647    5.5754 C.3       1 <0>         0.0000
     16 C16        -3.8841   -4.6712   -0.2785 C.3       1 <0>         0.0000
     17 C17        -5.8183   -8.6803    4.9600 C.3       1 <0>         0.0000
     18 C18        -7.0173   -6.5390    5.4941 C.3       1 <0>         0.0000
     19 C19        -1.8627   -5.4679    1.6495 C.3       1 <0>         0.0000
     20 N1         -2.8638   -3.7195    0.2240 N.am      1 <0>         0.0000
     21 O1         -0.9973   -3.2356    1.4543 O.2       1 <0>         0.0000
     22 O2         -5.4758   -8.0460    3.7115 O.3       1 <0>         0.0000
     23 O3         -5.7099   -6.0453    5.8435 O.3       1 <0>         0.0000
     24 Cl1        -4.0415   -3.6648    6.0654 Cl        1 <0>         0.0000
     25 H1         -4.0484    0.6693   -2.4449 H         1 <0>         0.0000
     26 H2         -1.9660    0.6713   -1.0975 H         1 <0>         0.0000
     27 H3         -5.5117   -1.3546   -2.4783 H         1 <0>         0.0000
     28 H4         -1.3015   -1.3397    0.2217 H         1 <0>         0.0000
     29 H5         -3.6867   -7.5127    2.0045 H         1 <0>         0.0000
     30 H6         -2.3188   -3.8367    3.8054 H         1 <0>         0.0000
     31 H7         -5.8180   -3.6468   -0.3297 H         1 <0>         0.0000
     32 H8         -5.2858   -4.2261   -1.9111 H         1 <0>         0.0000
     33 H9         -7.9727   -8.4113    5.0518 H         1 <0>         0.0000
     34 H10        -7.1499   -8.3941    6.6178 H         1 <0>         0.0000
     35 H11        -4.3042   -5.2523    0.5419 H         1 <0>         0.0000
     36 H12        -3.4191   -5.3594   -0.9946 H         1 <0>         0.0000
     37 H13        -4.9698   -8.6030    5.6468 H         1 <0>         0.0000
     38 H14        -5.9708   -9.7350    4.7193 H         1 <0>         0.0000
     39 H15        -7.2764   -6.1907    4.4893 H         1 <0>         0.0000
     40 H16        -7.7036   -6.0756    6.2064 H         1 <0>         0.0000
     41 H17        -0.8549   -5.6337    2.0386 H         1 <0>         0.0000
     42 H18        -2.0405   -6.2038    0.8600 H         1 <0>         0.0000
@<TRIPOS>BOND
     1    1    2 ar
     2    1    3 ar
     3    1   25 1
     4    2    4 ar
     5    2   26 1
     6    3    7 ar
     7    3   27 1
     8    4    9 ar
     9    4   28 1
    10    5    8 ar
    11    5   10 ar
    12    5   29 1
    13    6    8 ar
    14    6   12 ar
    15    6   30 1
    16    7    9 ar
    17    7   14 1
    18    8   19 1
    19    9   20 1
    20   10   11 ar
    21   10   22 1
    22   11   12 ar
    23   11   23 1
    24   12   24 1
    25   13   19 1
    26   13   20 am
    27   13   21 2
    28   14   16 1
    29   14   31 1
    30   14   32 1
    31   15   17 1
    32   15   18 1
    33   15   33 1
    34   15   34 1
    35   16   20 1
    36   16   35 1
    37   16   36 1
    38   17   22 1
    39   17   37 1
    40   17   38 1
    41   18   23 1
    42   18   39 1
    43   18   40 1
    44   19   41 1
    45   19   42 1
