@<TRIPOS>MOLECULE
*****
   28    30     0     0     0
SMALL
NO_CHARGES

@<TRIPOS>ATOM
      1 C1         -1.4682   -2.2267   -1.5213 C.ar      1 <0>         0.0000
      2 C2          0.3756    1.8614    2.8730 C.ar      1 <0>         0.0000
      3 C3          0.1131    1.0696    1.7363 C.ar      1 <0>         0.0000
      4 C4         -1.5248   -3.1619   -2.5498 C.ar      1 <0>         0.0000
      5 C5         -2.0763    0.4044    2.6246 C.ar      1 <0>         0.0000
      6 C6         -3.1928   -1.7937   -3.6748 C.ar      1 <0>         0.0000
      7 C7         -2.2587   -1.0624   -1.5313 C.ar      1 <0>         0.0000
      8 C8         -0.6028    1.9045    3.8472 C.ar      1 <0>         0.0000
      9 C9         -1.7984    1.1932    3.7236 C.ar      1 <0>         0.0000
     10 C10        -1.0822    0.3674    1.6317 C.ar      1 <0>         0.0000
     11 C11        -3.1144   -0.8770   -2.6299 C.ar      1 <0>         0.0000
     12 C12        -2.3924   -2.9337   -3.6225 C.ar      1 <0>         0.0000
     13 C13        -2.1946   -0.0705   -0.4229 C.2       1 <0>         0.0000
     14 C14        -1.9185    2.4417    5.5745 C.3       1 <0>         0.0000
     15 O1         -2.8551    0.9382   -0.3269 O.2       1 <0>         0.0000
     16 O2         -0.5841    2.5673    5.0577 O.3       1 <0>         0.0000
     17 O3         -2.5708    1.3859    4.8475 O.3       1 <0>         0.0000
     18 O4         -1.2615   -0.4591    0.5118 O.3       1 <0>         0.0000
     19 F1         -3.8994    0.2080   -2.7160 F         1 <0>         0.0000
     20 Cl1        -2.4795   -4.0959   -4.9254 Cl        1 <0>         0.0000
     21 H1         -0.8009   -2.3910   -0.6838 H         1 <0>         0.0000
     22 H2          1.3047    2.4119    2.9777 H         1 <0>         0.0000
     23 H3          0.8388    1.0012    0.9325 H         1 <0>         0.0000
     24 H4         -0.9091   -4.0545   -2.5247 H         1 <0>         0.0000
     25 H5         -3.0046   -0.1462    2.5230 H         1 <0>         0.0000
     26 H6         -3.8685   -1.6062   -4.5020 H         1 <0>         0.0000
     27 H7         -1.8738    2.1771    6.6326 H         1 <0>         0.0000
     28 H8         -2.4624    3.3822    5.4117 H         1 <0>         0.0000
@<TRIPOS>BOND
     1    1    4 ar
     2    1    7 ar
     3    1   21 1
     4    2    3 ar
     5    2    8 ar
     6    2   22 1
     7    3   10 ar
     8    3   23 1
     9    4   12 ar
    10    4   24 1
    11    5    9 ar
    12    5   10 ar
    13    5   25 1
    14    6   11 ar
    15    6   12 ar
    16    6   26 1
    17    7   11 ar
    18    7   13 1
    19    8    9 ar
    20    8   16 1
    21    9   17 1
    22   10   18 1
    23   11   19 1
    24   12   20 1
    25   13   15 2
    26   13   18 1
    27   14   16 1
    28   14   17 1
    29   14   27 1
    30   14   28 1
