@<TRIPOS>MOLECULE
*****
   42    45     0     0     0
SMALL
NO_CHARGES

@<TRIPOS>ATOM
      1 C1         -2.6888   -0.2475   -1.9368 C.ar      1 <0>         0.0000
      2 C2         -1.5609   -0.6513   -1.2145 C.ar      1 <0>         0.0000
      3 C3         -3.8033   -1.0951   -2.0279 C.ar      1 <0>         0.0000
      4 C4         -1.5075   -1.8982   -0.5756 C.ar      1 <0>         0.0000
      5 C5         -4.5221   -6.8936    2.1590 C.ar      1 <0>         0.0000
      6 C6         -3.1962   -5.2473    3.3160 C.ar      1 <0>         0.0000
      7 C7         -3.7638   -2.3343   -1.4002 C.ar      1 <0>         0.0000
      8 C8         -3.3874   -6.0819    2.2073 C.ar      1 <0>         0.0000
      9 C9         -2.6233   -2.7331   -0.6861 C.ar      1 <0>         0.0000
     10 C10        -5.4693   -6.8807    3.1872 C.ar      1 <0>         0.0000
     11 C11        -5.3058   -6.0158    4.2904 C.ar      1 <0>         0.0000
     12 C12        -4.1477   -5.2196    4.3322 C.ar      1 <0>         0.0000
     13 C13        -1.9444   -4.7090    0.6526 C.2       1 <0>         0.0000
     14 C14        -4.8338   -3.3972   -1.2948 C.3       1 <0>         0.0000
     15 C15        -8.0841   -7.4364    4.9359 C.3       1 <0>         0.0000
     16 C16        -4.0739   -4.6073   -0.7082 C.3       1 <0>         0.0000
     17 C17        -7.0601   -8.3310    4.2382 C.3       1 <0>         0.0000
     18 C18        -7.5906   -5.9899    4.9769 C.3       1 <0>         0.0000
     19 C19        -2.3593   -6.1132    1.0896 C.3       1 <0>         0.0000
     20 N1         -2.8207   -4.0351   -0.1593 N.am      1 <0>         0.0000
     21 O1         -0.8886   -4.2143    1.0517 O.2       1 <0>         0.0000
     22 O2         -6.5532   -7.7172    3.0362 O.3       1 <0>         0.0000
     23 O3         -6.1953   -5.9235    5.3290 O.3       1 <0>         0.0000
     24 Cl1        -3.9126   -4.1473    5.6961 Cl        1 <0>         0.0000
     25 H1         -2.7032    0.7232   -2.4250 H         1 <0>         0.0000
     26 H2         -0.7021    0.0114   -1.1441 H         1 <0>         0.0000
     27 H3         -4.6877   -0.7856   -2.5802 H         1 <0>         0.0000
     28 H4         -0.6389   -2.2121   -0.0136 H         1 <0>         0.0000
     29 H5         -4.6924   -7.5739    1.3287 H         1 <0>         0.0000
     30 H6         -2.3198   -4.6105    3.3823 H         1 <0>         0.0000
     31 H7         -5.6302   -3.0709   -0.6157 H         1 <0>         0.0000
     32 H8         -5.2977   -3.6385   -2.2549 H         1 <0>         0.0000
     33 H9         -9.0457   -7.4652    4.4111 H         1 <0>         0.0000
     34 H10        -8.2477   -7.8183    5.9499 H         1 <0>         0.0000
     35 H11        -4.6395   -5.1137    0.0734 H         1 <0>         0.0000
     36 H12        -3.8297   -5.3340   -1.4924 H         1 <0>         0.0000
     37 H13        -6.2231   -8.5592    4.9054 H         1 <0>         0.0000
     38 H14        -7.5105   -9.2731    3.9170 H         1 <0>         0.0000
     39 H15        -7.7413   -5.4974    4.0111 H         1 <0>         0.0000
     40 H16        -8.1123   -5.4118    5.7429 H         1 <0>         0.0000
     41 H17        -1.4404   -6.5935    1.4352 H         1 <0>         0.0000
     42 H18        -2.7442   -6.6965    0.2481 H         1 <0>         0.0000
@<TRIPOS>BOND
     1    1    2 ar
     2    1    3 ar
     3    1   25 1
     4    2    4 ar
     5    2   26 1
     6    3    7 ar
     7    3   27 1
     8    4    9 ar
     9    4   28 1
    10    5    8 ar
    11    5   10 ar
    12    5   29 1
    13    6    8 ar
    14    6   12 ar
    15    6   30 1
    16    7    9 ar
    17    7   14 1
    18    8   19 1
    19    9   20 1
    20   10   11 ar
    21   10   22 1
    22   11   12 ar
    23   11   23 1
    24   12   24 1
    25   13   19 1
    26   13   20 am
    27   13   21 2
    28   14   16 1
    29   14   31 1
    30   14   32 1
    31   15   17 1
    32   15   18 1
    33   15   33 1
    34   15   34 1
    35   16   20 1
    36   16   35 1
    37   16   36 1
    38   17   22 1
    39   17   37 1
    40   17   38 1
    41   18   23 1
    42   18   39 1
    43   18   40 1
    44   19   41 1
    45   19   42 1
