@<TRIPOS>MOLECULE
*****
   38    40     0     0     0
SMALL
NO_CHARGES

@<TRIPOS>ATOM
      1 C1         -4.1839    1.9855   -9.3868 C.ar      1 <0>         0.0000
      2 C2         -3.4322    1.5451   -8.2956 C.ar      1 <0>         0.0000
      3 C3         -3.8650    3.1745  -10.0472 C.ar      1 <0>         0.0000
      4 C4         -2.0143    3.5124   -8.5003 C.ar      1 <0>         0.0000
      5 C5         -0.7704    1.2003   -4.7835 C.2       1 <0>         0.0000
      6 C6         -2.3570    2.3210   -7.8496 C.ar      1 <0>         0.0000
      7 C7         -2.7734    3.9195   -9.5945 C.ar      1 <0>         0.0000
      8 C8          0.2751    1.6359   -5.6570 C.2       1 <0>         0.0000
      9 C9         -1.9288    1.4038   -5.5283 C.2       1 <0>         0.0000
     10 C10        -0.5789    0.6855   -3.4366 C.2       1 <0>         0.0000
     11 C11        -0.1047   -0.6157   -0.9352 C.3       1 <0>         0.0000
     12 C12        -2.4834   -1.0438   -1.0144 C.3       1 <0>         0.0000
     13 C13         0.1476   -2.0500   -1.4112 C.3       1 <0>         0.0000
     14 C14        -2.1801   -2.4728   -1.4702 C.3       1 <0>         0.0000
     15 C15         1.7492    1.6433   -5.3900 C.3       1 <0>         0.0000
     16 N1         -0.2008    2.0631   -6.8227 N.2       1 <0>         0.0000
     17 N2         -1.5682    0.2679   -2.7206 N.2       1 <0>         0.0000
     18 N3         -1.5594    1.9095   -6.7489 N.pl3     1 <0>         0.0000
     19 N4         -1.4067   -0.1307   -1.4220 N.pl3     1 <0>         0.0000
     20 O1         -0.9081   -2.9106   -0.9801 O.3       1 <0>         0.0000
     21 Cl1        -2.3498    5.4118  -10.4172 Cl        1 <0>         0.0000
     22 Cl2        -3.5713    1.1983   -5.0619 Cl        1 <0>         0.0000
     23 H1         -5.0197    1.3871   -9.7378 H         1 <0>         0.0000
     24 H2         -3.6690    0.6057   -7.8107 H         1 <0>         0.0000
     25 H3         -4.4436    3.5144  -10.8999 H         1 <0>         0.0000
     26 H4         -1.1671    4.0924   -8.1542 H         1 <0>         0.0000
     27 H5          0.4557    0.6923   -3.0845 H         1 <0>         0.0000
     28 H6         -0.1499   -0.6019    0.1583 H         1 <0>         0.0000
     29 H7          0.6986    0.0620   -1.2315 H         1 <0>         0.0000
     30 H8         -3.4164   -0.6829   -1.4517 H         1 <0>         0.0000
     31 H9         -2.5623   -1.0111    0.0776 H         1 <0>         0.0000
     32 H10         0.2324   -2.0801   -2.5077 H         1 <0>         0.0000
     33 H11         1.0681   -2.4515   -0.9785 H         1 <0>         0.0000
     34 H12        -2.9173   -3.1787   -1.0778 H         1 <0>         0.0000
     35 H13        -2.1944   -2.5190   -2.5698 H         1 <0>         0.0000
     36 H14         2.1241    0.6331   -5.1919 H         1 <0>         0.0000
     37 H15         2.2767    2.0426   -6.2589 H         1 <0>         0.0000
     38 H16         1.9940    2.2640   -4.5209 H         1 <0>         0.0000
@<TRIPOS>BOND
     1    1    2 ar
     2    1    3 ar
     3    1   23 1
     4    2    6 ar
     5    2   24 1
     6    3    7 ar
     7    3   25 1
     8    4    6 ar
     9    4    7 ar
    10    4   26 1
    11    5    8 1
    12    5    9 2
    13    5   10 1
    14    6   18 1
    15    7   21 1
    16    8   15 1
    17    8   16 2
    18    9   18 1
    19    9   22 1
    20   10   17 2
    21   10   27 1
    22   11   13 1
    23   11   19 1
    24   11   28 1
    25   11   29 1
    26   12   14 1
    27   12   19 1
    28   12   30 1
    29   12   31 1
    30   13   20 1
    31   13   32 1
    32   13   33 1
    33   14   20 1
    34   14   34 1
    35   14   35 1
    36   15   36 1
    37   15   37 1
    38   15   38 1
    39   16   18 1
    40   17   19 1
