@<TRIPOS>MOLECULE
*****
   21    21     0     0     0
SMALL
NO_CHARGES

@<TRIPOS>ATOM
      1 C1          1.9217   -0.9937   -0.0610 C.ar      1 <0>         0.0000
      2 C2          2.8551   -1.6222    2.0758 C.ar      1 <0>         0.0000
      3 C3          0.6694   -0.4591    2.0049 C.ar      1 <0>         0.0000
      4 C4          0.8209   -0.4623    0.6021 C.ar      1 <0>         0.0000
      5 C5          2.9474   -1.5923    0.6798 C.ar      1 <0>         0.0000
      6 C6          1.7360   -1.0552    2.6804 C.ar      1 <0>         0.0000
      7 C7         -0.4812    0.1399    2.7773 C.3       1 <0>         0.0000
      8 C8          5.0525   -2.7234    0.6814 C.3       1 <0>         0.0000
      9 N1         -0.2276    0.1171   -0.2626 N.pl3     1 <0>         0.0000
     10 O1         -1.3874    0.1297    0.1634 O.3       1 <0>         0.0000
     11 O2          0.1141    0.5409   -1.3713 O.2       1 <0>         0.0000
     12 O3          3.9821   -2.1101   -0.0370 O.3       1 <0>         0.0000
     13 F1          1.6989   -1.0932    4.0378 F         1 <0>         0.0000
     14 H1          1.9854   -0.9506   -1.1412 H         1 <0>         0.0000
     15 H2          3.6156   -2.0627    2.7088 H         1 <0>         0.0000
     16 H3         -1.3706   -0.4912    2.7053 H         1 <0>         0.0000
     17 H4         -0.2084    0.2425    3.8281 H         1 <0>         0.0000
     18 H5         -0.7564    1.1214    2.3861 H         1 <0>         0.0000
     19 H6          5.7604   -3.0623   -0.0751 H         1 <0>         0.0000
     20 H7          4.6988   -3.5840    1.2616 H         1 <0>         0.0000
     21 H8          5.5461   -2.0053    1.3471 H         1 <0>         0.0000
@<TRIPOS>BOND
     1    1    4 ar
     2    1    5 ar
     3    1   14 1
     4    2    5 ar
     5    2    6 ar
     6    2   15 1
     7    3    4 ar
     8    3    6 ar
     9    3    7 1
    10    4    9 1
    11    5   12 1
    12    6   13 1
    13    7   16 1
    14    7   17 1
    15    7   18 1
    16    8   12 1
    17    8   19 1
    18    8   20 1
    19    8   21 1
    20    9   10 1
    21    9   11 2
