@<TRIPOS>MOLECULE
*****
   28    30     0     0     0
SMALL
NO_CHARGES

@<TRIPOS>ATOM
      1 C1         -0.7798    2.4015   -1.6997 C.ar      1 <0>         0.0000
      2 C2          0.1751    2.0544    2.5324 C.ar      1 <0>         0.0000
      3 C3          0.3582    1.2060    1.4219 C.ar      1 <0>         0.0000
      4 C4         -1.2388    3.6700   -2.0490 C.ar      1 <0>         0.0000
      5 C5         -2.0495    0.7461    1.2954 C.ar      1 <0>         0.0000
      6 C6         -3.4538    2.7432   -2.4566 C.ar      1 <0>         0.0000
      7 C7         -1.6289    1.2871   -1.7352 C.ar      1 <0>         0.0000
      8 C8         -1.1192    2.2319    2.9825 C.ar      1 <0>         0.0000
      9 C9         -2.2028    1.5910    2.3780 C.ar      1 <0>         0.0000
     10 C10        -0.7329    0.5831    0.8243 C.ar      1 <0>         0.0000
     11 C11        -2.9551    1.4904   -2.1182 C.ar      1 <0>         0.0000
     12 C12        -2.5768    3.8279   -2.4216 C.ar      1 <0>         0.0000
     13 C13        -1.1153   -0.0934   -1.4521 C.2       1 <0>         0.0000
     14 C14        -2.9576    2.6891    4.1768 C.3       1 <0>         0.0000
     15 O1         -1.1783   -1.0052   -2.2386 O.2       1 <0>         0.0000
     16 O2         -1.5710    3.0284    4.0138 O.3       1 <0>         0.0000
     17 O3         -3.3691    1.9555    3.0082 O.3       1 <0>         0.0000
     18 O4         -0.4840   -0.2834   -0.2449 O.3       1 <0>         0.0000
     19 F1         -3.8084    0.4445   -2.1186 F         1 <0>         0.0000
     20 Cl1        -3.1726    5.4171   -2.8472 Cl        1 <0>         0.0000
     21 H1          0.2558    2.2733   -1.4020 H         1 <0>         0.0000
     22 H2          1.0137    2.5503    3.0100 H         1 <0>         0.0000
     23 H3          1.3513    1.0236    1.0241 H         1 <0>         0.0000
     24 H4         -0.5726    4.5256   -2.0288 H         1 <0>         0.0000
     25 H5         -2.8894    0.2338    0.8386 H         1 <0>         0.0000
     26 H6         -4.4964    2.8567   -2.7328 H         1 <0>         0.0000
     27 H7         -3.0758    2.0512    5.0627 H         1 <0>         0.0000
     28 H8         -3.5482    3.6040    4.2541 H         1 <0>         0.0000
@<TRIPOS>BOND
     1    1    4 ar
     2    1    7 ar
     3    1   21 1
     4    2    3 ar
     5    2    8 ar
     6    2   22 1
     7    3   10 ar
     8    3   23 1
     9    4   12 ar
    10    4   24 1
    11    5    9 ar
    12    5   10 ar
    13    5   25 1
    14    6   11 ar
    15    6   12 ar
    16    6   26 1
    17    7   11 ar
    18    7   13 1
    19    8    9 ar
    20    8   16 1
    21    9   17 1
    22   10   18 1
    23   11   19 1
    24   12   20 1
    25   13   15 2
    26   13   18 1
    27   14   16 1
    28   14   17 1
    29   14   27 1
    30   14   28 1
