@<TRIPOS>MOLECULE
*****
   50    52     0     0     0
SMALL
NO_CHARGES

@<TRIPOS>ATOM
      1 C1          2.3812   -5.6252    1.1806 C.ar      1 <0>         0.0000
      2 C2          1.2961   -5.6879    2.0573 C.ar      1 <0>         0.0000
      3 C3          2.3902   -4.6744    0.1541 C.ar      1 <0>         0.0000
      4 C4          0.2249   -4.8056    1.8917 C.ar      1 <0>         0.0000
      5 C5         -2.2072   -1.2440    1.0012 C.2       1 <0>         0.0000
      6 C6          1.3344   -3.7736   -0.0202 C.ar      1 <0>         0.0000
      7 C7          0.2426   -3.8580    0.8663 C.ar      1 <0>         0.0000
      8 C8         -2.3922   -1.8574   -0.2671 C.2       1 <0>         0.0000
      9 C9         -1.2046   -1.9677    1.6236 C.2       1 <0>         0.0000
     10 C10         2.0781    0.4312    0.8049 C.3       1 <0>         0.0000
     11 C11         2.3920   -0.8946    0.1094 C.3       1 <0>         0.0000
     12 C12         0.7261   -0.4317   -1.5828 C.3       1 <0>         0.0000
     13 C13         0.3502    0.9088   -0.9400 C.3       1 <0>         0.0000
     14 C14         1.5400    1.5050   -0.1586 C.3       1 <0>         0.0000
     15 C15        -3.3415   -1.4690   -1.3603 C.3       1 <0>         0.0000
     16 C16        -0.5207   -1.7565    2.9366 C.3       1 <0>         0.0000
     17 C17        -0.2520    1.8638   -1.9756 C.3       1 <0>         0.0000
     18 C18         2.6509    2.0521   -1.0652 C.3       1 <0>         0.0000
     19 C19         1.3746   -2.7319   -1.1194 C.3       1 <0>         0.0000
     20 N1         -1.5635   -2.8913   -0.4219 N.2       1 <0>         0.0000
     21 N2         -0.8571   -2.9605    0.7465 N.pl3     1 <0>         0.0000
     22 N3          1.2106   -1.3829   -0.5895 N.3       1 <0>         0.0000
     23 O1          0.9843    2.5951    0.6113 O.3       1 <0>         0.0000
     24 H1          3.2185   -6.3085    1.2956 H         1 <0>         0.0000
     25 H2          1.2745   -6.4235    2.8568 H         1 <0>         0.0000
     26 H3          3.2424   -4.6172   -0.5194 H         1 <0>         0.0000
     27 H4         -0.6409   -4.8571    2.5456 H         1 <0>         0.0000
     28 H5         -2.7192   -0.3782    1.4011 H         1 <0>         0.0000
     29 H6          1.3114    0.2579    1.5661 H         1 <0>         0.0000
     30 H7          2.9775    0.8037    1.3137 H         1 <0>         0.0000
     31 H8          3.2534   -0.7765   -0.5791 H         1 <0>         0.0000
     32 H9          2.6895   -1.6382    0.8563 H         1 <0>         0.0000
     33 H10        -0.1683   -0.8575   -2.0468 H         1 <0>         0.0000
     34 H11         1.4644   -0.2696   -2.3946 H         1 <0>         0.0000
     35 H12        -0.4143    0.6902   -0.1865 H         1 <0>         0.0000
     36 H13        -3.1782   -0.4308   -1.6717 H         1 <0>         0.0000
     37 H14        -3.1991   -2.1181   -2.2277 H         1 <0>         0.0000
     38 H15        -4.3844   -1.5519   -1.0346 H         1 <0>         0.0000
     39 H16        -0.8151   -2.5007    3.6846 H         1 <0>         0.0000
     40 H17         0.5667   -1.8137    2.8270 H         1 <0>         0.0000
     41 H18        -0.7756   -0.7684    3.3264 H         1 <0>         0.0000
     42 H19         0.4151    2.0149   -2.8315 H         1 <0>         0.0000
     43 H20        -0.4628    2.8384   -1.5282 H         1 <0>         0.0000
     44 H21        -1.1926    1.4557   -2.3624 H         1 <0>         0.0000
     45 H22         2.2796    2.8852   -1.6665 H         1 <0>         0.0000
     46 H23         3.0483    1.2897   -1.7409 H         1 <0>         0.0000
     47 H24         3.4881    2.4191   -0.4582 H         1 <0>         0.0000
     48 H25         2.3143   -2.8447   -1.6918 H         1 <0>         0.0000
     49 H26         0.5473   -2.9216   -1.8073 H         1 <0>         0.0000
     50 H27         1.7098    3.0005    1.1134 H         1 <0>         0.0000
@<TRIPOS>BOND
     1    1    2 ar
     2    1    3 ar
     3    1   24 1
     4    2    4 ar
     5    2   25 1
     6    3    6 ar
     7    3   26 1
     8    4    7 ar
     9    4   27 1
    10    5    8 1
    11    5    9 2
    12    5   28 1
    13    6    7 ar
    14    6   19 1
    15    7   21 1
    16    8   15 1
    17    8   20 2
    18    9   16 1
    19    9   21 1
    20   10   11 1
    21   10   14 1
    22   10   29 1
    23   10   30 1
    24   11   22 1
    25   11   31 1
    26   11   32 1
    27   12   13 1
    28   12   22 1
    29   12   33 1
    30   12   34 1
    31   13   14 1
    32   13   17 1
    33   13   35 1
    34   14   18 1
    35   14   23 1
    36   15   36 1
    37   15   37 1
    38   15   38 1
    39   16   39 1
    40   16   40 1
    41   16   41 1
    42   17   42 1
    43   17   43 1
    44   17   44 1
    45   18   45 1
    46   18   46 1
    47   18   47 1
    48   19   22 1
    49   19   48 1
    50   19   49 1
    51   20   21 1
    52   23   50 1
