@<TRIPOS>MOLECULE
*****
   37    40     0     0     0
SMALL
NO_CHARGES

@<TRIPOS>ATOM
      1 C1          2.8709   -3.0107   -3.0023 C.ar      1 <0>         0.0000
      2 C2          2.5195   -1.7172   -2.5962 C.ar      1 <0>         0.0000
      3 C3          2.4537   -4.1381   -2.2832 C.ar      1 <0>         0.0000
      4 C4          3.1329  -10.0479   -2.4164 C.ar      1 <0>         0.0000
      5 C5          3.7469  -10.6387   -3.5369 C.ar      1 <0>         0.0000
      6 C6          1.7411   -1.5190   -1.4470 C.ar      1 <0>         0.0000
      7 C7          2.4402   -8.1073   -3.7288 C.ar      1 <0>         0.0000
      8 C8          1.6684   -3.9455   -1.1411 C.ar      1 <0>         0.0000
      9 C9          2.4917   -8.8008   -2.4899 C.ar      1 <0>         0.0000
     10 C10         3.6884   -9.9379   -4.7259 C.ar      1 <0>         0.0000
     11 C11         3.0460   -8.6991   -4.8135 C.ar      1 <0>         0.0000
     12 C12         1.3379   -2.6454   -0.7505 C.ar      1 <0>         0.0000
     13 C13         1.0823   -4.9101   -0.1631 C.2       1 <0>         0.0000
     14 C14         1.8917   -8.1750   -1.2910 C.2       1 <0>         0.0000
     15 C15         3.9588   -9.1591   -6.8100 C.3       1 <0>         0.0000
     16 C16         1.4053   -9.0183   -0.1343 C.3       1 <0>         0.0000
     17 N1          0.4052   -4.4293    0.8450 N.2       1 <0>         0.0000
     18 N2          1.7987   -6.8831   -1.3091 N.2       1 <0>         0.0000
     19 N3          1.2242   -6.2632   -0.2397 N.pl3     1 <0>         0.0000
     20 O1          1.1214   -2.1702    1.8841 O.2       1 <0>         0.0000
     21 O2         -1.0052   -2.2876    0.5215 O.2       1 <0>         0.0000
     22 O3          4.1630  -10.3043   -5.9618 O.3       1 <0>         0.0000
     23 O4          3.0921   -8.2480   -6.1147 O.3       1 <0>         0.0000
     24 S1          0.3660   -2.7354    0.7658 S.o2      1 <0>         0.0000
     25 H1          3.4806   -3.1450   -3.8915 H         1 <0>         0.0000
     26 H2          2.8556   -0.8596   -3.1724 H         1 <0>         0.0000
     27 H3          2.7322   -5.1355   -2.5943 H         1 <0>         0.0000
     28 H4          3.1959  -10.5722   -1.4689 H         1 <0>         0.0000
     29 H5          4.2447  -11.6006   -3.4704 H         1 <0>         0.0000
     30 H6          1.4664   -0.5230   -1.1128 H         1 <0>         0.0000
     31 H7          1.9207   -7.1599   -3.8119 H         1 <0>         0.0000
     32 H8          4.9247   -8.6727   -6.9978 H         1 <0>         0.0000
     33 H9          3.4799   -9.4789   -7.7379 H         1 <0>         0.0000
     34 H10         1.9579   -8.7935    0.7861 H         1 <0>         0.0000
     35 H11         0.3423   -8.8276    0.0599 H         1 <0>         0.0000
     36 H12         1.4990  -10.0835   -0.3368 H         1 <0>         0.0000
     37 H13         0.7892   -6.7851    0.5192 H         1 <0>         0.0000
@<TRIPOS>BOND
     1    1    2 ar
     2    1    3 ar
     3    1   25 1
     4    2    6 ar
     5    2   26 1
     6    3    8 ar
     7    3   27 1
     8    4    5 ar
     9    4    9 ar
    10    4   28 1
    11    5   10 ar
    12    5   29 1
    13    6   12 ar
    14    6   30 1
    15    7    9 ar
    16    7   11 ar
    17    7   31 1
    18    8   12 ar
    19    8   13 1
    20    9   14 1
    21   10   11 ar
    22   10   22 1
    23   11   23 1
    24   12   24 1
    25   13   17 2
    26   13   19 1
    27   14   16 1
    28   14   18 2
    29   15   22 1
    30   15   23 1
    31   15   32 1
    32   15   33 1
    33   16   34 1
    34   16   35 1
    35   16   36 1
    36   17   24 1
    37   18   19 1
    38   19   37 1
    39   20   24 2
    40   21   24 2
