@<TRIPOS>MOLECULE
*****
   39    40     0     0     0
SMALL
NO_CHARGES

@<TRIPOS>ATOM
      1 C1          2.4453    1.1351   -3.5879 C.2       1 <0>         0.0000
      2 C2          1.9911    0.0259   -2.9144 C.2       1 <0>         0.0000
      3 C3          1.0461    0.3988   -5.1655 C.2       1 <0>         0.0000
      4 C4          1.2567    1.4418   -0.2906 C.3       1 <0>         0.0000
      5 C5          0.0948   -0.6372   -0.4029 C.3       1 <0>         0.0000
      6 C6          0.0692    1.5368    0.6762 C.3       1 <0>         0.0000
      7 C7         -0.8753    0.4564    0.0846 C.3       1 <0>         0.0000
      8 C8          0.2758    0.3571   -6.4516 C.3       1 <0>         0.0000
      9 C9          0.4872    1.2830    2.1300 C.3       1 <0>         0.0000
     10 C10        -1.9645   -0.0640    1.0193 C.3       1 <0>         0.0000
     11 C11         4.7913    2.0180   -3.9096 C.3       1 <0>         0.0000
     12 C12         3.4811    2.1175   -3.1102 C.3       1 <0>         0.0000
     13 C13         2.3272   -0.4405   -1.5144 C.3       1 <0>         0.0000
     14 N1          1.9060    1.3269   -4.8511 N.2       1 <0>         0.0000
     15 N2          1.4233   -0.0052   -0.4535 N.3       1 <0>         0.0000
     16 O1         -1.4843    0.9766   -1.1202 O.3       1 <0>         0.0000
     17 S1          0.8280   -0.8116   -3.9160 S.3       1 <0>         0.0000
     18 H1          1.0190    1.9520   -1.2361 H         1 <0>         0.0000
     19 H2          2.1725    1.8842    0.1198 H         1 <0>         0.0000
     20 H3          0.1124   -1.4937    0.2833 H         1 <0>         0.0000
     21 H4         -0.2610   -0.9912   -1.3777 H         1 <0>         0.0000
     22 H5         -0.4124    2.5205    0.6093 H         1 <0>         0.0000
     23 H6          0.3558   -0.6203   -6.9380 H         1 <0>         0.0000
     24 H7         -0.7875    0.5587   -6.2810 H         1 <0>         0.0000
     25 H8          0.6721    1.1215   -7.1231 H         1 <0>         0.0000
     26 H9          0.9644    0.3043    2.2386 H         1 <0>         0.0000
     27 H10        -0.3666    1.3297    2.8129 H         1 <0>         0.0000
     28 H11         1.2091    2.0413    2.4514 H         1 <0>         0.0000
     29 H12        -2.6175    0.7524    1.3521 H         1 <0>         0.0000
     30 H13        -1.5456   -0.5435    1.9080 H         1 <0>         0.0000
     31 H14        -2.5818   -0.7962    0.4899 H         1 <0>         0.0000
     32 H15         5.2472    1.0294   -3.7886 H         1 <0>         0.0000
     33 H16         5.5122    2.7711   -3.5732 H         1 <0>         0.0000
     34 H17         4.6010    2.1734   -4.9753 H         1 <0>         0.0000
     35 H18         3.0691    3.1280   -3.2137 H         1 <0>         0.0000
     36 H19         3.6802    1.9663   -2.0460 H         1 <0>         0.0000
     37 H20         2.3784   -1.5340   -1.4844 H         1 <0>         0.0000
     38 H21         3.3325   -0.0826   -1.2675 H         1 <0>         0.0000
     39 H22        -2.0128    1.7525   -0.8720 H         1 <0>         0.0000
@<TRIPOS>BOND
     1    1    2 2
     2    1   12 1
     3    1   14 1
     4    2   13 1
     5    2   17 1
     6    3    8 1
     7    3   14 2
     8    3   17 1
     9    4    6 1
    10    4   15 1
    11    4   18 1
    12    4   19 1
    13    5    7 1
    14    5   15 1
    15    5   20 1
    16    5   21 1
    17    6    7 1
    18    6    9 1
    19    6   22 1
    20    7   10 1
    21    7   16 1
    22    8   23 1
    23    8   24 1
    24    8   25 1
    25    9   26 1
    26    9   27 1
    27    9   28 1
    28   10   29 1
    29   10   30 1
    30   10   31 1
    31   11   12 1
    32   11   32 1
    33   11   33 1
    34   11   34 1
    35   12   35 1
    36   12   36 1
    37   13   15 1
    38   13   37 1
    39   13   38 1
    40   16   39 1
