@<TRIPOS>MOLECULE
*****
   28    30     0     0     0
SMALL
NO_CHARGES

@<TRIPOS>ATOM
      1 C1          0.7445   -1.2474   -2.5781 C.ar      1 <0>         0.0000
      2 C2          0.7703    1.8907    2.8608 C.ar      1 <0>         0.0000
      3 C3          1.0099    1.1736    1.6707 C.ar      1 <0>         0.0000
      4 C4          0.9966   -1.7106   -3.8655 C.ar      1 <0>         0.0000
      5 C5         -1.2744    0.2755    1.6747 C.ar      1 <0>         0.0000
      6 C6          1.1309   -3.9808   -3.0007 C.ar      1 <0>         0.0000
      7 C7          0.6765   -2.1187   -1.4751 C.ar      1 <0>         0.0000
      8 C8         -0.4852    1.7700    3.4241 C.ar      1 <0>         0.0000
      9 C9         -1.4810    0.9810    2.8439 C.ar      1 <0>         0.0000
     10 C10         0.0059    0.3946    1.1071 C.ar      1 <0>         0.0000
     11 C11         0.8757   -3.4868   -1.7244 C.ar      1 <0>         0.0000
     12 C12         1.1882   -3.0815   -4.0641 C.ar      1 <0>         0.0000
     13 C13         0.4006   -1.6136   -0.1020 C.2       1 <0>         0.0000
     14 C14        -2.2521    1.7530    4.7953 C.3       1 <0>         0.0000
     15 O1          0.2915   -2.2846    0.8984 O.2       1 <0>         0.0000
     16 O2         -0.9849    2.3848    4.5544 O.3       1 <0>         0.0000
     17 O3         -2.6361    1.0705    3.5887 O.3       1 <0>         0.0000
     18 O4          0.2768   -0.2424   -0.1137 O.3       1 <0>         0.0000
     19 F1          0.8287   -4.3827   -0.7264 F         1 <0>         0.0000
     20 Cl1         1.5061   -3.6849   -5.6737 Cl        1 <0>         0.0000
     21 H1          0.5936   -0.1879   -2.4096 H         1 <0>         0.0000
     22 H2          1.5377    2.5098    3.3135 H         1 <0>         0.0000
     23 H3          1.9786    1.2209    1.1841 H         1 <0>         0.0000
     24 H4          1.0443   -1.0246   -4.7043 H         1 <0>         0.0000
     25 H5         -2.0434   -0.3410    1.2232 H         1 <0>         0.0000
     26 H6          1.2787   -5.0457   -3.1430 H         1 <0>         0.0000
     27 H7         -2.1458    1.0201    5.6067 H         1 <0>         0.0000
     28 H8         -2.9976    2.5146    5.0317 H         1 <0>         0.0000
@<TRIPOS>BOND
     1    1    4 ar
     2    1    7 ar
     3    1   21 1
     4    2    3 ar
     5    2    8 ar
     6    2   22 1
     7    3   10 ar
     8    3   23 1
     9    4   12 ar
    10    4   24 1
    11    5    9 ar
    12    5   10 ar
    13    5   25 1
    14    6   11 ar
    15    6   12 ar
    16    6   26 1
    17    7   11 ar
    18    7   13 1
    19    8    9 ar
    20    8   16 1
    21    9   17 1
    22   10   18 1
    23   11   19 1
    24   12   20 1
    25   13   15 2
    26   13   18 1
    27   14   16 1
    28   14   17 1
    29   14   27 1
    30   14   28 1
