@<TRIPOS>MOLECULE
*****
   33    35     0     0     0
SMALL
NO_CHARGES

@<TRIPOS>ATOM
      1 C1          6.6100   -0.5868    2.2351 C.ar      1 <0>         0.0000
      2 C2          6.0990    0.1634    1.1749 C.ar      1 <0>         0.0000
      3 C3          4.3677   -1.3440    2.7545 C.ar      1 <0>         0.0000
      4 C4          3.8304   -0.6032    1.6914 C.ar      1 <0>         0.0000
      5 C5          5.7386   -1.3423    3.0223 C.ar      1 <0>         0.0000
      6 C6          4.7337    0.1451    0.9146 C.ar      1 <0>         0.0000
      7 C7          0.3593   -0.1053    0.8829 C.2       1 <0>         0.0000
      8 C8          0.3033   -1.4200    1.3402 C.2       1 <0>         0.0000
      9 C9          2.3920   -0.6198    1.4129 C.2       1 <0>         0.0000
     10 C10        -0.7134    0.8234    0.4208 C.2       1 <0>         0.0000
     11 C11        -0.7733   -2.4550    1.4716 C.3       1 <0>         0.0000
     12 C12        -2.1922   -1.9232    1.2530 C.3       1 <0>         0.0000
     13 C13        -2.3329   -1.1040   -0.0377 C.3       1 <0>         0.0000
     14 C14         6.2472   -2.1754    4.1667 C.3       1 <0>         0.0000
     15 N1          1.6589    0.3635    0.9385 N.2       1 <0>         0.0000
     16 N2          1.6038   -1.7257    1.6807 N.pl3     1 <0>         0.0000
     17 N3         -1.9496    0.2937    0.1199 N.am      1 <0>         0.0000
     18 O1         -0.5173    2.0327    0.3282 O.2       1 <0>         0.0000
     19 F1          4.2840    0.8502   -0.1345 F         1 <0>         0.0000
     20 F2          7.5645   -1.9833    4.4023 F         1 <0>         0.0000
     21 F3          5.5863   -1.9059    5.3231 F         1 <0>         0.0000
     22 F4          6.0746   -3.5072    3.9341 F         1 <0>         0.0000
     23 H1          7.6737   -0.5788    2.4462 H         1 <0>         0.0000
     24 H2          6.7457    0.7591    0.5386 H         1 <0>         0.0000
     25 H3          3.7010   -1.9018    3.4061 H         1 <0>         0.0000
     26 H4         -0.5782   -3.2549    0.7433 H         1 <0>         0.0000
     27 H5         -0.7109   -2.9229    2.4623 H         1 <0>         0.0000
     28 H6         -2.8723   -2.7809    1.2129 H         1 <0>         0.0000
     29 H7         -2.5031   -1.2996    2.0971 H         1 <0>         0.0000
     30 H8         -1.7636   -1.5824   -0.8478 H         1 <0>         0.0000
     31 H9         -3.3806   -1.0995   -0.3483 H         1 <0>         0.0000
     32 H10         1.9265   -2.6342    1.9911 H         1 <0>         0.0000
     33 H11        -2.5879    1.0004   -0.2253 H         1 <0>         0.0000
@<TRIPOS>BOND
     1    1    2 ar
     2    1    5 ar
     3    1   23 1
     4    2    6 ar
     5    2   24 1
     6    3    4 ar
     7    3    5 ar
     8    3   25 1
     9    4    6 ar
    10    4    9 1
    11    5   14 1
    12    6   19 1
    13    7    8 2
    14    7   10 1
    15    7   15 1
    16    8   11 1
    17    8   16 1
    18    9   15 2
    19    9   16 1
    20   10   17 am
    21   10   18 2
    22   11   12 1
    23   11   26 1
    24   11   27 1
    25   12   13 1
    26   12   28 1
    27   12   29 1
    28   13   17 1
    29   13   30 1
    30   13   31 1
    31   14   20 1
    32   14   21 1
    33   14   22 1
    34   16   32 1
    35   17   33 1
