@<TRIPOS>MOLECULE
*****
   16    17     0     0     0
SMALL
NO_CHARGES

@<TRIPOS>ATOM
      1 C1          0.3080   -1.0804    1.4950 C.2       1 <0>         0.0000
      2 C2          2.4033   -6.9547    2.8966 C.2       1 <0>         0.0000
      3 C3         -0.7794   -0.9839    0.6571 C.2       1 <0>         0.0000
      4 C4          3.0810   -5.8967    3.4601 C.2       1 <0>         0.0000
      5 C5         -0.0350   -3.2371    1.1495 C.2       1 <0>         0.0000
      6 C6          1.2018   -5.3112    2.0287 C.2       1 <0>         0.0000
      7 C7          0.1088   -4.7152    1.2059 C.2       1 <0>         0.0000
      8 N1          0.7179   -2.3579    1.7647 N.2       1 <0>         0.0000
      9 N2          1.3530   -6.6153    2.0971 N.2       1 <0>         0.0000
     10 O1         -0.6712   -5.4196    0.5769 O.2       1 <0>         0.0000
     11 S1         -1.3202   -2.5489    0.1805 S.3       1 <0>         0.0000
     12 S2          2.3800   -4.4039    2.9734 S.3       1 <0>         0.0000
     13 H1          0.8361   -0.2416    1.9348 H         1 <0>         0.0000
     14 H2          2.6455   -8.0017    3.0450 H         1 <0>         0.0000
     15 H3         -1.2726   -0.0854    0.3087 H         1 <0>         0.0000
     16 H4          3.9380   -5.9289    4.1216 H         1 <0>         0.0000
@<TRIPOS>BOND
     1    1    3 2
     2    1    8 1
     3    1   13 1
     4    2    4 2
     5    2    9 1
     6    2   14 1
     7    3   11 1
     8    3   15 1
     9    4   12 1
    10    4   16 1
    11    5    7 1
    12    5    8 2
    13    5   11 1
    14    6    7 1
    15    6    9 2
    16    6   12 1
    17    7   10 2
