@<TRIPOS>MOLECULE
*****
   32    34     0     0     0
SMALL
NO_CHARGES

@<TRIPOS>ATOM
      1 C1         -0.0756   -0.1744    0.8356 C.ar      1 <0>         0.0000
      2 C2         -1.0040   -1.1844    1.0506 C.ar      1 <0>         0.0000
      3 C3          0.3908   -0.0455    3.1941 C.ar      1 <0>         0.0000
      4 C4         -2.3970   -3.0693    3.7802 C.2       1 <0>         0.0000
      5 C5         -0.5437   -1.0676    3.4452 C.ar      1 <0>         0.0000
      6 C6         -1.8032   -2.6198    4.9224 C.2       1 <0>         0.0000
      7 C7          0.6391    0.4129    1.9046 C.ar      1 <0>         0.0000
      8 C8         -0.7912   -1.5387    4.8312 C.2       1 <0>         0.0000
      9 C9         -1.2283   -1.6218    2.3600 C.ar      1 <0>         0.0000
     10 C10        -3.3361   -5.0078    9.9113 C.2       1 <0>         0.0000
     11 C11        -1.7450   -3.3032    9.6763 C.2       1 <0>         0.0000
     12 C12        -2.2247   -3.2558    6.1694 C.2       1 <0>         0.0000
     13 C13        -3.2323   -4.6651    8.4247 C.3       1 <0>         0.0000
     14 C14         1.6480    1.5044    1.6339 C.3       1 <0>         0.0000
     15 N1         -1.7484   -2.9377    7.3227 N.2       1 <0>         0.0000
     16 N2         -2.4449   -4.1729   10.5464 N.am      1 <0>         0.0000
     17 N3         -2.2265   -3.6072    8.4017 N.am      1 <0>         0.0000
     18 O1         -0.2007   -1.0617    5.7946 O.2       1 <0>         0.0000
     19 O2         -4.0588   -5.8453   10.4155 O.2       1 <0>         0.0000
     20 O3         -0.9173   -2.4887   10.0091 O.2       1 <0>         0.0000
     21 O4         -2.1584   -2.6262    2.5323 O.3       1 <0>         0.0000
     22 H1          0.1039    0.1718   -0.1798 H         1 <0>         0.0000
     23 H2         -1.5558   -1.6379    0.2327 H         1 <0>         0.0000
     24 H3          0.9111    0.3719    4.0516 H         1 <0>         0.0000
     25 H4         -3.1459   -3.8564    3.7709 H         1 <0>         0.0000
     26 H5         -2.9869   -4.0354    6.0498 H         1 <0>         0.0000
     27 H6         -2.9221   -5.5501    7.8577 H         1 <0>         0.0000
     28 H7         -4.2049   -4.3263    8.0503 H         1 <0>         0.0000
     29 H8          1.1956    2.3322    1.0771 H         1 <0>         0.0000
     30 H9          2.0570    1.9069    2.5638 H         1 <0>         0.0000
     31 H10         2.4844    1.1270    1.0346 H         1 <0>         0.0000
     32 H11        -2.2835   -4.1623   11.5467 H         1 <0>         0.0000
@<TRIPOS>BOND
     1    1    2 ar
     2    1    7 ar
     3    1   22 1
     4    2    9 ar
     5    2   23 1
     6    3    5 ar
     7    3    7 ar
     8    3   24 1
     9    4    6 2
    10    4   21 1
    11    4   25 1
    12    5    9 ar
    13    5    8 1
    14    6    8 1
    15    6   12 1
    16    7   14 1
    17    8   18 2
    18    9   21 1
    19   10   13 1
    20   10   16 am
    21   10   19 2
    22   11   16 am
    23   11   17 am
    24   11   20 2
    25   12   15 2
    26   12   26 1
    27   13   17 1
    28   13   27 1
    29   13   28 1
    30   14   29 1
    31   14   30 1
    32   14   31 1
    33   15   17 1
    34   16   32 1
