@<TRIPOS>MOLECULE
*****
   28    30     0     0     0
SMALL
NO_CHARGES

@<TRIPOS>ATOM
      1 C1         -1.1171    2.6419   -2.2104 C.ar      1 <0>         0.0000
      2 C2          1.6942    0.3571    2.2798 C.ar      1 <0>         0.0000
      3 C3          1.5615   -0.0845    0.9490 C.ar      1 <0>         0.0000
      4 C4         -1.0505    4.0282   -2.0899 C.ar      1 <0>         0.0000
      5 C5         -0.7811    0.6440    0.8771 C.ar      1 <0>         0.0000
      6 C6          1.2836    3.8418   -1.4198 C.ar      1 <0>         0.0000
      7 C7         -0.0149    1.8299   -1.9091 C.ar      1 <0>         0.0000
      8 C8          0.5861    0.9399    2.8654 C.ar      1 <0>         0.0000
      9 C9         -0.6211    1.0780    2.1790 C.ar      1 <0>         0.0000
     10 C10         0.3546    0.0689    0.2745 C.ar      1 <0>         0.0000
     11 C11         1.1737    2.4617   -1.5396 C.ar      1 <0>         0.0000
     12 C12         0.1531    4.6148   -1.6870 C.ar      1 <0>         0.0000
     13 C13        -0.1495    0.3444   -2.0626 C.2       1 <0>         0.0000
     14 C14        -0.9366    1.7618    4.2865 C.3       1 <0>         0.0000
     15 O1         -0.6099   -0.1686   -3.0557 O.2       1 <0>         0.0000
     16 O2          0.4636    1.4829    4.1280 O.3       1 <0>         0.0000
     17 O3         -1.5452    1.7059    2.9831 O.3       1 <0>         0.0000
     18 O4          0.2612   -0.4469   -1.0235 O.3       1 <0>         0.0000
     19 F1          2.2807    1.7182   -1.3195 F         1 <0>         0.0000
     20 Cl1         0.2565    6.3539   -1.5292 Cl        1 <0>         0.0000
     21 H1         -2.0384    2.1684   -2.5358 H         1 <0>         0.0000
     22 H2          2.6297    0.2515    2.8190 H         1 <0>         0.0000
     23 H3          2.3979   -0.5399    0.4308 H         1 <0>         0.0000
     24 H4         -1.9139    4.6473   -2.3079 H         1 <0>         0.0000
     25 H5         -1.7253    0.7351    0.3520 H         1 <0>         0.0000
     26 H6          2.2302    4.2882   -1.1355 H         1 <0>         0.0000
     27 H7         -1.3909    0.9964    4.9298 H         1 <0>         0.0000
     28 H8         -1.0620    2.7646    4.6997 H         1 <0>         0.0000
@<TRIPOS>BOND
     1    1    4 ar
     2    1    7 ar
     3    1   21 1
     4    2    3 ar
     5    2    8 ar
     6    2   22 1
     7    3   10 ar
     8    3   23 1
     9    4   12 ar
    10    4   24 1
    11    5    9 ar
    12    5   10 ar
    13    5   25 1
    14    6   11 ar
    15    6   12 ar
    16    6   26 1
    17    7   11 ar
    18    7   13 1
    19    8    9 ar
    20    8   16 1
    21    9   17 1
    22   10   18 1
    23   11   19 1
    24   12   20 1
    25   13   15 2
    26   13   18 1
    27   14   16 1
    28   14   17 1
    29   14   27 1
    30   14   28 1
