@<TRIPOS>MOLECULE
*****
   29    30     0     0     0
SMALL
NO_CHARGES

@<TRIPOS>ATOM
      1 C1          5.9391   -3.2318   -1.3657 C.ar      1 <0>         0.0000
      2 C2          2.9702   -1.6771    2.2765 C.ar      1 <0>         0.0000
      3 C3          1.7372   -0.9054    0.3209 C.ar      1 <0>         0.0000
      4 C4          6.9119   -3.7553   -2.2033 C.ar      1 <0>         0.0000
      5 C5          1.9908   -1.1464    3.1155 C.ar      1 <0>         0.0000
      6 C6          0.7591   -0.3710    1.1503 C.ar      1 <0>         0.0000
      7 C7          5.6367   -3.0243   -4.1487 C.ar      1 <0>         0.0000
      8 C8          2.8484   -1.5647    0.8833 C.ar      1 <0>         0.0000
      9 C9          4.7947   -2.5935   -1.8854 C.ar      1 <0>         0.0000
     10 C10         6.7608   -3.6517   -3.6003 C.ar      1 <0>         0.0000
     11 C11         4.6804   -2.5095   -3.2871 C.ar      1 <0>         0.0000
     12 C12         0.8937   -0.5049    2.5390 C.ar      1 <0>         0.0000
     13 N1          3.9035   -2.1417    0.1312 N.2       1 <0>         0.0000
     14 N2          3.7613   -2.0325   -1.1218 N.2       1 <0>         0.0000
     15 O1          0.1322    0.2294    4.9731 O.2       1 <0>         0.0000
     16 O2         -0.9845    1.3120    2.9398 O.2       1 <0>         0.0000
     17 O3          7.6828   -4.1465   -4.4745 O.3       1 <0>         0.0000
     18 O4         -1.5140   -1.0222    3.5743 O.3       1 <0>         0.0000
     19 F1          3.6036   -1.9082   -3.8252 F         1 <0>         0.0000
     20 S1         -0.3724    0.1729    3.6011 S.o2      1 <0>         0.0000
     21 H1          6.0385   -3.3013   -0.2879 H         1 <0>         0.0000
     22 H2          3.8427   -2.1787    2.6842 H         1 <0>         0.0000
     23 H3          1.6640   -0.8188   -0.7575 H         1 <0>         0.0000
     24 H4          7.7900   -4.2440   -1.7858 H         1 <0>         0.0000
     25 H5          2.0804   -1.2100    4.1951 H         1 <0>         0.0000
     26 H6         -0.0964    0.1545    0.7378 H         1 <0>         0.0000
     27 H7          5.5159   -2.9420   -5.2234 H         1 <0>         0.0000
     28 H8          8.4115   -4.5557   -3.9802 H         1 <0>         0.0000
     29 H9         -1.4378   -1.5236    4.4089 H         1 <0>         0.0000
@<TRIPOS>BOND
     1    1    4 ar
     2    1    9 ar
     3    1   21 1
     4    2    5 ar
     5    2    8 ar
     6    2   22 1
     7    3    6 ar
     8    3    8 ar
     9    3   23 1
    10    4   10 ar
    11    4   24 1
    12    5   12 ar
    13    5   25 1
    14    6   12 ar
    15    6   26 1
    16    7   10 ar
    17    7   11 ar
    18    7   27 1
    19    8   13 1
    20    9   11 ar
    21    9   14 1
    22   10   17 1
    23   11   19 1
    24   12   20 1
    25   13   14 2
    26   15   20 2
    27   16   20 2
    28   17   28 1
    29   18   20 1
    30   18   29 1
