@<TRIPOS>MOLECULE
*****
   25    26     0     0     0
SMALL
NO_CHARGES

@<TRIPOS>ATOM
      1 C1          4.9429   -2.2668   -2.1352 C.ar      1 <0>         0.0000
      2 C2          3.8857   -2.0689   -3.0272 C.ar      1 <0>         0.0000
      3 C3          4.8705   -1.6773   -0.8738 C.ar      1 <0>         0.0000
      4 C4          0.2317   -1.0303    0.7827 C.ar      1 <0>         0.0000
      5 C5          1.4662   -1.3351    2.8184 C.ar      1 <0>         0.0000
      6 C6          2.7998   -1.2864   -2.6172 C.ar      1 <0>         0.0000
      7 C7         -0.6431   -2.0207    1.2248 C.ar      1 <0>         0.0000
      8 C8          1.3114   -0.6670    1.5992 C.ar      1 <0>         0.0000
      9 C9          3.7386   -0.9151   -0.5567 C.ar      1 <0>         0.0000
     10 C10         0.5268   -2.3174    3.1453 C.ar      1 <0>         0.0000
     11 C11         3.6336   -0.2843    0.8056 C.2       1 <0>         0.0000
     12 C12         2.3142    0.3881    1.1748 C.3       1 <0>         0.0000
     13 N1          2.7181   -0.7183   -1.4097 N.ar      1 <0>         0.0000
     14 N2         -0.5027   -2.6653    2.3963 N.ar      1 <0>         0.0000
     15 O1          4.5606   -0.3501    1.6001 O.2       1 <0>         0.0000
     16 Br1         0.7359   -3.2565    4.8187 Br        1 <0>         0.0000
     17 H1          5.8024   -2.8689   -2.4175 H         1 <0>         0.0000
     18 H2          3.8953   -2.5087   -4.0203 H         1 <0>         0.0000
     19 H3          5.6545   -1.7921   -0.1327 H         1 <0>         0.0000
     20 H4          0.0870   -0.5571   -0.1828 H         1 <0>         0.0000
     21 H5          2.2907   -1.1062    3.4852 H         1 <0>         0.0000
     22 H6          1.9619   -1.1119   -3.2901 H         1 <0>         0.0000
     23 H7         -1.4959   -2.3199    0.6185 H         1 <0>         0.0000
     24 H8          1.9252    0.9462    0.3225 H         1 <0>         0.0000
     25 H9          2.5246    1.0682    2.0030 H         1 <0>         0.0000
@<TRIPOS>BOND
     1    1    2 ar
     2    1    3 ar
     3    1   17 1
     4    2    6 ar
     5    2   18 1
     6    3    9 ar
     7    3   19 1
     8    4    7 ar
     9    4    8 ar
    10    4   20 1
    11    5    8 ar
    12    5   10 ar
    13    5   21 1
    14    6   13 ar
    15    6   22 1
    16    7   14 ar
    17    7   23 1
    18    8   12 1
    19    9   11 1
    20    9   13 ar
    21   10   14 ar
    22   10   16 1
    23   11   12 1
    24   11   15 2
    25   12   24 1
    26   12   25 1
