@<TRIPOS>MOLECULE
*****
   32    34     0     0     0
SMALL
NO_CHARGES

@<TRIPOS>ATOM
      1 C1          6.7837   -3.1651    5.0852 C.1       1 <0>         0.0000
      2 C2          7.6779    3.4360    4.9093 C.ar      1 <0>         0.0000
      3 C3          8.0450    4.4119    3.9789 C.ar      1 <0>         0.0000
      4 C4          6.4302   -7.5972    4.2553 C.2       1 <0>         0.0000
      5 C5          7.6090    2.1036    4.5108 C.ar      1 <0>         0.0000
      6 C6          8.3376    4.0419    2.6643 C.ar      1 <0>         0.0000
      7 C7          6.5742   -6.1951    4.3935 C.2       1 <0>         0.0000
      8 C8          6.7021   -8.0419    2.9779 C.2       1 <0>         0.0000
      9 C9          7.9032    1.7261    3.1865 C.ar      1 <0>         0.0000
     10 C10         8.2762    2.7082    2.2355 C.ar      1 <0>         0.0000
     11 C11         6.9588   -5.5693    3.2107 C.2       1 <0>         0.0000
     12 C12         7.7995    0.2919    2.8726 C.2       1 <0>         0.0000
     13 C13         7.4530   -1.7648    3.1896 C.2       1 <0>         0.0000
     14 C14         7.2174   -4.1958    2.8924 C.2       1 <0>         0.0000
     15 C15         7.1495   -3.0943    3.7035 C.2       1 <0>         0.0000
     16 C16         8.6068    2.3870    0.7987 C.3       1 <0>         0.0000
     17 N1          6.4815   -3.2629    6.2065 N.1       1 <0>         0.0000
     18 N2          7.4312   -0.6354    3.8389 N.2       1 <0>         0.0000
     19 N3          8.0353   -0.2466    1.6883 N.2       1 <0>         0.0000
     20 O1          7.8049   -1.6270    1.8931 O.3       1 <0>         0.0000
     21 S1          7.1378   -6.7544    1.9263 S.3       1 <0>         0.0000
     22 H1          7.4474    3.7092    5.9353 H         1 <0>         0.0000
     23 H2          8.1039    5.4569    4.2728 H         1 <0>         0.0000
     24 H3          6.1373   -8.2580    5.0641 H         1 <0>         0.0000
     25 H4          7.3262    1.3321    5.2185 H         1 <0>         0.0000
     26 H5          8.6224    4.8072    1.9464 H         1 <0>         0.0000
     27 H6          6.4037   -5.6626    5.3202 H         1 <0>         0.0000
     28 H7          6.6672   -9.0586    2.6069 H         1 <0>         0.0000
     29 H8          7.5089   -3.9929    1.8643 H         1 <0>         0.0000
     30 H9          9.4457    1.6887    0.7259 H         1 <0>         0.0000
     31 H10         7.7664    1.9041    0.2914 H         1 <0>         0.0000
     32 H11         8.8643    3.3003    0.2561 H         1 <0>         0.0000
@<TRIPOS>BOND
     1    1   15 1
     2    1   17 3
     3    2    3 ar
     4    2    5 ar
     5    2   22 1
     6    3    6 ar
     7    3   23 1
     8    4    7 1
     9    4    8 2
    10    4   24 1
    11    5    9 ar
    12    5   25 1
    13    6   10 ar
    14    6   26 1
    15    7   11 2
    16    7   27 1
    17    8   21 1
    18    8   28 1
    19    9   10 ar
    20    9   12 1
    21   10   16 1
    22   11   14 1
    23   11   21 1
    24   12   18 1
    25   12   19 2
    26   13   15 1
    27   13   18 2
    28   13   20 1
    29   14   15 2
    30   14   29 1
    31   16   30 1
    32   16   31 1
    33   16   32 1
    34   19   20 1
