@<TRIPOS>MOLECULE
*****
   25    27     0     0     0
SMALL
NO_CHARGES

@<TRIPOS>ATOM
      1 C1         -0.5186   -1.6521    2.7015 C.ar      1 <0>         0.0000
      2 C2          5.6734   -1.0560    7.9266 C.ar      1 <0>         0.0000
      3 C3          0.7079   -1.3325    3.2781 C.ar      1 <0>         0.0000
      4 C4          4.8604   -0.9446    6.8115 C.ar      1 <0>         0.0000
      5 C5         -0.7711   -1.1971    1.4054 C.ar      1 <0>         0.0000
      6 C6          6.9299   -0.4420    7.8621 C.ar      1 <0>         0.0000
      7 C7          1.6463   -0.5756    2.5608 C.ar      1 <0>         0.0000
      8 C8          5.3749   -0.2247    5.7200 C.ar      1 <0>         0.0000
      9 C9          1.2777   -0.1708    1.2550 C.ar      1 <0>         0.0000
     10 C10         4.5585   -0.0686    4.4999 C.2       1 <0>         0.0000
     11 C11         2.9212   -0.2586    3.1943 C.2       1 <0>         0.0000
     12 N1          0.1056   -0.4733    0.6975 N.ar      1 <0>         0.0000
     13 N2          7.3697    0.2334    6.7921 N.ar      1 <0>         0.0000
     14 N3          6.5921    0.3432    5.7183 N.ar      1 <0>         0.0000
     15 N4          3.2967   -0.6147    4.4000 N.2       1 <0>         0.0000
     16 N5          4.9545    0.5890    3.4291 N.2       1 <0>         0.0000
     17 O1          3.8626    0.4639    2.5547 O.3       1 <0>         0.0000
     18 O2          2.1345    0.5592    0.5124 O.3       1 <0>         0.0000
     19 H1         -1.2599   -2.2361    3.2367 H         1 <0>         0.0000
     20 H2          5.3593   -1.5938    8.8166 H         1 <0>         0.0000
     21 H3          0.9635   -1.6567    4.2817 H         1 <0>         0.0000
     22 H4          3.8696   -1.3823    6.7568 H         1 <0>         0.0000
     23 H5         -1.7139   -1.4194    0.9093 H         1 <0>         0.0000
     24 H6          7.6271   -0.4835    8.6955 H         1 <0>         0.0000
     25 H7          1.6812    0.7224   -0.3367 H         1 <0>         0.0000
@<TRIPOS>BOND
     1    1    3 ar
     2    1    5 ar
     3    1   19 1
     4    2    4 ar
     5    2    6 ar
     6    2   20 1
     7    3    7 ar
     8    3   21 1
     9    4    8 ar
    10    4   22 1
    11    5   12 ar
    12    5   23 1
    13    6   13 ar
    14    6   24 1
    15    7    9 ar
    16    7   11 1
    17    8   10 1
    18    8   14 ar
    19    9   12 ar
    20    9   18 1
    21   10   15 1
    22   10   16 2
    23   11   15 2
    24   11   17 1
    25   13   14 ar
    26   16   17 1
    27   18   25 1
