@<TRIPOS>MOLECULE
*****
   21    21     0     0     0
SMALL
NO_CHARGES

@<TRIPOS>ATOM
      1 C1         -1.5503    4.0379    0.5012 C.2       1 <0>         0.0000
      2 C2         -2.6396    3.8245   -0.3035 C.2       1 <0>         0.0000
      3 C3         -0.8428    2.8336    0.8265 C.2       1 <0>         0.0000
      4 C4         -1.4294    1.7241    0.2565 C.2       1 <0>         0.0000
      5 C5          1.3941   -0.2078   -0.5239 C.2       1 <0>         0.0000
      6 C6          0.1155    0.0923   -0.7732 C.2       1 <0>         0.0000
      7 C7          0.4177    2.7993    1.6533 C.3       1 <0>         0.0000
      8 C8         -0.9342    0.2995    0.2967 C.3       1 <0>         0.0000
      9 N1         -2.0550   -0.6241    0.0533 N.3       1 <0>         0.0000
     10 S1         -2.8346    2.1469   -0.6879 S.3       1 <0>         0.0000
     11 H1         -1.2564    5.0199    0.8607 H         1 <0>         0.0000
     12 H2         -3.3465    4.5543   -0.6780 H         1 <0>         0.0000
     13 H3          2.1169   -0.3299   -1.3267 H         1 <0>         0.0000
     14 H4          1.7610   -0.3363    0.4932 H         1 <0>         0.0000
     15 H5         -0.2391    0.2208   -1.7955 H         1 <0>         0.0000
     16 H6          0.3818    2.0158    2.4181 H         1 <0>         0.0000
     17 H7          1.2960    2.6006    1.0281 H         1 <0>         0.0000
     18 H8          0.5757    3.7543    2.1622 H         1 <0>         0.0000
     19 H9         -0.4507    0.1429    1.2747 H         1 <0>         0.0000
     20 H10        -2.7345   -0.5503    0.8092 H         1 <0>         0.0000
     21 H11        -1.7098   -1.5823    0.0417 H         1 <0>         0.0000
@<TRIPOS>BOND
     1    1    2 2
     2    1    3 1
     3    1   11 1
     4    2   10 1
     5    2   12 1
     6    3    4 2
     7    3    7 1
     8    4    8 1
     9    4   10 1
    10    5    6 2
    11    5   13 1
    12    5   14 1
    13    6    8 1
    14    6   15 1
    15    7   16 1
    16    7   17 1
    17    7   18 1
    18    8    9 1
    19    8   19 1
    20    9   20 1
    21    9   21 1
