@<TRIPOS>MOLECULE
*****
   39    41     0     0     0
SMALL
NO_CHARGES

@<TRIPOS>ATOM
      1 C1          2.6018   -4.4600    0.2008 C.ar      1 <0>         0.0000
      2 C2          2.8770   -5.7961   -0.1276 C.ar      1 <0>         0.0000
      3 C3          1.3477   -4.0851    0.6952 C.ar      1 <0>         0.0000
      4 C4          1.9035   -6.7913    0.0301 C.ar      1 <0>         0.0000
      5 C5         -3.9721   -9.1635    1.5487 C.2       1 <0>         0.0000
      6 C6          0.3767   -5.0721    0.8539 C.ar      1 <0>         0.0000
      7 C7         -4.5054   -8.0503    0.8048 C.2       1 <0>         0.0000
      8 C8          0.6698   -6.3927    0.5259 C.ar      1 <0>         0.0000
      9 C9         -4.6496  -10.2928    1.1642 C.2       1 <0>         0.0000
     10 C10        -5.5175   -8.5583   -0.0228 C.2       1 <0>         0.0000
     11 C11        -1.0066   -4.8710    1.3777 C.2       1 <0>         0.0000
     12 C12        -4.0630   -6.6653    0.8502 C.2       1 <0>         0.0000
     13 C13        -4.4761  -11.7133    1.5978 C.3       1 <0>         0.0000
     14 C14        -6.4165   -7.8641   -0.9940 C.3       1 <0>         0.0000
     15 C15        -6.5616  -10.7995   -0.4116 C.3       1 <0>         0.0000
     16 C16        -3.0135   -6.2880    1.9195 C.3       1 <0>         0.0000
     17 N1         -5.5895   -9.9085    0.2022 N.pl3     1 <0>         0.0000
     18 N2         -1.6933   -6.0824    1.3258 N.am      1 <0>         0.0000
     19 O1         -1.4678   -3.8288    1.8100 O.2       1 <0>         0.0000
     20 O2         -4.4633   -5.7709    0.1040 O.2       1 <0>         0.0000
     21 O3         -1.2694   -7.9757   -0.4401 O.2       1 <0>         0.0000
     22 O4         -0.5672   -8.3299    1.9557 O.2       1 <0>         0.0000
     23 S1         -0.7528   -7.4325    0.8122 S.o2      1 <0>         0.0000
     24 H1          3.3747   -3.7083    0.0676 H         1 <0>         0.0000
     25 H2          3.8575   -6.0650   -0.5102 H         1 <0>         0.0000
     26 H3          1.1152   -3.0567    0.9547 H         1 <0>         0.0000
     27 H4          2.1066   -7.8270   -0.2245 H         1 <0>         0.0000
     28 H5         -3.1430   -9.1540    2.2432 H         1 <0>         0.0000
     29 H6         -5.3930  -12.1364    2.0261 H         1 <0>         0.0000
     30 H7         -4.1627  -12.3646    0.7722 H         1 <0>         0.0000
     31 H8         -3.6990  -11.7601    2.3639 H         1 <0>         0.0000
     32 H9         -6.2012   -8.1703   -2.0260 H         1 <0>         0.0000
     33 H10        -7.4724   -8.0842   -0.7960 H         1 <0>         0.0000
     34 H11        -6.2561   -6.7894   -0.9263 H         1 <0>         0.0000
     35 H12        -7.5068  -10.8016    0.1435 H         1 <0>         0.0000
     36 H13        -6.7584  -10.4872   -1.4384 H         1 <0>         0.0000
     37 H14        -6.1669  -11.8158   -0.4330 H         1 <0>         0.0000
     38 H15        -2.9345   -7.0186    2.7274 H         1 <0>         0.0000
     39 H16        -3.2987   -5.3195    2.3350 H         1 <0>         0.0000
@<TRIPOS>BOND
     1    1    2 ar
     2    1    3 ar
     3    1   24 1
     4    2    4 ar
     5    2   25 1
     6    3    6 ar
     7    3   26 1
     8    4    8 ar
     9    4   27 1
    10    5    7 1
    11    5    9 2
    12    5   28 1
    13    6    8 ar
    14    6   11 1
    15    7   10 2
    16    7   12 1
    17    8   23 1
    18    9   13 1
    19    9   17 1
    20   10   14 1
    21   10   17 1
    22   11   18 am
    23   11   19 2
    24   12   16 1
    25   12   20 2
    26   13   29 1
    27   13   30 1
    28   13   31 1
    29   14   32 1
    30   14   33 1
    31   14   34 1
    32   15   17 1
    33   15   35 1
    34   15   36 1
    35   15   37 1
    36   16   18 1
    37   16   38 1
    38   16   39 1
    39   18   23 1
    40   21   23 2
    41   22   23 2
