@<TRIPOS>MOLECULE
*****
   43    45     0     0     0
SMALL
NO_CHARGES

@<TRIPOS>ATOM
      1 C1         -2.0722    0.8053    3.3829 C.ar      1 <0>         0.0000
      2 C2         -3.0902    0.8704    4.3583 C.ar      1 <0>         0.0000
      3 C3         -2.7396    2.9300    2.4802 C.ar      1 <0>         0.0000
      4 C4         -1.8648    1.8120    2.4401 C.ar      1 <0>         0.0000
      5 C5         -3.9485    1.9629    4.4438 C.ar      1 <0>         0.0000
      6 C6         -2.8823    4.1476    1.7027 C.2       1 <0>         0.0000
      7 C7         -3.7425    2.9716    3.4899 C.ar      1 <0>         0.0000
      8 C8         -3.9161    4.8751    2.2652 C.2       1 <0>         0.0000
      9 C9         -3.1022    4.8700   -0.7286 C.2       1 <0>         0.0000
     10 C10        -3.9409    2.4945   -0.7375 C.3       1 <0>         0.0000
     11 C11        -4.8698    4.1882   -2.2662 C.3       1 <0>         0.0000
     12 C12        -5.2345    2.2668    0.0507 C.3       1 <0>         0.0000
     13 C13        -6.2713    4.1768   -1.6507 C.3       1 <0>         0.0000
     14 C14        -0.7165    1.6953    1.4628 C.3       1 <0>         0.0000
     15 C15        -5.0370    2.0795    5.4813 C.3       1 <0>         0.0000
     16 C16        -4.5129    6.1900    1.8757 C.3       1 <0>         0.0000
     17 C17        -2.1584    4.5467    0.4367 C.3       1 <0>         0.0000
     18 N1         -4.4362    4.1582    3.3333 N.pl3     1 <0>         0.0000
     19 N2         -3.8498    3.8522   -1.2709 N.am      1 <0>         0.0000
     20 O1         -3.1791    6.0269   -1.1554 O.2       1 <0>         0.0000
     21 S1         -6.7264    2.5301   -0.9821 S.3       1 <0>         0.0000
     22 H1         -1.4141   -0.0606    3.3767 H         1 <0>         0.0000
     23 H2         -3.1982    0.0523    5.0668 H         1 <0>         0.0000
     24 H3         -3.0893    2.2876   -0.0949 H         1 <0>         0.0000
     25 H4         -3.9008    1.7939   -1.5802 H         1 <0>         0.0000
     26 H5         -4.8161    3.4592   -3.0826 H         1 <0>         0.0000
     27 H6         -4.6376    5.1795   -2.6563 H         1 <0>         0.0000
     28 H7         -5.2820    1.2323    0.4016 H         1 <0>         0.0000
     29 H8         -5.2646    2.9246    0.9214 H         1 <0>         0.0000
     30 H9         -6.3361    4.9299   -0.8588 H         1 <0>         0.0000
     31 H10        -7.0227    4.4122   -2.4099 H         1 <0>         0.0000
     32 H11        -1.0533    1.5891    0.4247 H         1 <0>         0.0000
     33 H12        -0.0613    2.5720    1.5042 H         1 <0>         0.0000
     34 H13        -0.1082    0.8165    1.6930 H         1 <0>         0.0000
     35 H14        -4.8886    2.9561    6.1251 H         1 <0>         0.0000
     36 H15        -6.0272    2.1766    5.0177 H         1 <0>         0.0000
     37 H16        -5.0605    1.1979    6.1269 H         1 <0>         0.0000
     38 H17        -5.4954    6.0596    1.4037 H         1 <0>         0.0000
     39 H18        -4.6507    6.8337    2.7527 H         1 <0>         0.0000
     40 H19        -3.8774    6.7130    1.1610 H         1 <0>         0.0000
     41 H20        -1.5730    5.4581    0.5815 H         1 <0>         0.0000
     42 H21        -1.4586    3.7670    0.1360 H         1 <0>         0.0000
     43 H22        -5.1787    4.4843    3.9354 H         1 <0>         0.0000
@<TRIPOS>BOND
     1    1    2 ar
     2    1    4 ar
     3    1   22 1
     4    2    5 ar
     5    2   23 1
     6    3    4 ar
     7    3    6 1
     8    3    7 ar
     9    4   14 1
    10    5    7 ar
    11    5   15 1
    12    6    8 2
    13    6   17 1
    14    7   18 1
    15    8   16 1
    16    8   18 1
    17    9   17 1
    18    9   19 am
    19    9   20 2
    20   10   12 1
    21   10   19 1
    22   10   24 1
    23   10   25 1
    24   11   13 1
    25   11   19 1
    26   11   26 1
    27   11   27 1
    28   12   21 1
    29   12   28 1
    30   12   29 1
    31   13   21 1
    32   13   30 1
    33   13   31 1
    34   14   32 1
    35   14   33 1
    36   14   34 1
    37   15   35 1
    38   15   36 1
    39   15   37 1
    40   16   38 1
    41   16   39 1
    42   16   40 1
    43   17   41 1
    44   17   42 1
    45   18   43 1
