@<TRIPOS>MOLECULE
*****
   43    45     0     0     0
SMALL
NO_CHARGES

@<TRIPOS>ATOM
      1 C1         -1.6191   -2.3917    2.5093 C.ar      1 <0>         0.0000
      2 C2         -2.4023   -3.0599    3.4754 C.ar      1 <0>         0.0000
      3 C3         -3.5764   -1.9014    1.2084 C.ar      1 <0>         0.0000
      4 C4         -2.1721   -1.8046    1.3719 C.ar      1 <0>         0.0000
      5 C5         -3.7860   -3.1611    3.3525 C.ar      1 <0>         0.0000
      6 C6         -4.5160   -1.4420    0.2060 C.2       1 <0>         0.0000
      7 C7         -4.3396   -2.5629    2.2098 C.ar      1 <0>         0.0000
      8 C8         -5.7780   -1.8048    0.6273 C.2       1 <0>         0.0000
      9 C9         -4.1567    0.8682   -0.7407 C.2       1 <0>         0.0000
     10 C10        -3.1727    3.0498   -1.2236 C.3       1 <0>         0.0000
     11 C11        -2.5132    1.0497   -2.6199 C.3       1 <0>         0.0000
     12 C12        -1.7177    3.4452   -0.9929 C.3       1 <0>         0.0000
     13 C13        -1.8453    2.1379   -3.4555 C.3       1 <0>         0.0000
     14 C14        -1.2872   -1.0905    0.3766 C.3       1 <0>         0.0000
     15 C15        -4.6558   -3.8517    4.3733 C.3       1 <0>         0.0000
     16 C16        -7.1197   -1.5096    0.0398 C.3       1 <0>         0.0000
     17 C17        -4.2130   -0.6408   -1.0248 C.3       1 <0>         0.0000
     18 N1         -5.6689   -2.4853    1.8320 N.pl3     1 <0>         0.0000
     19 N2         -3.3097    1.6216   -1.5221 N.am      1 <0>         0.0000
     20 O1         -4.8610    1.3712    0.1347 O.2       1 <0>         0.0000
     21 S1         -0.6679    3.1545   -2.4881 S.3       1 <0>         0.0000
     22 H1         -0.5440   -2.3298    2.6634 H         1 <0>         0.0000
     23 H2         -1.9130   -3.4988    4.3422 H         1 <0>         0.0000
     24 H3         -3.7542    3.2326   -0.3195 H         1 <0>         0.0000
     25 H4         -3.6112    3.6566   -2.0246 H         1 <0>         0.0000
     26 H5         -3.1608    0.4583   -3.2778 H         1 <0>         0.0000
     27 H6         -1.7332    0.3871   -2.2274 H         1 <0>         0.0000
     28 H7         -1.6589    4.5094   -0.7499 H         1 <0>         0.0000
     29 H8         -1.3063    2.8730   -0.1573 H         1 <0>         0.0000
     30 H9         -1.2507    1.6642   -4.2407 H         1 <0>         0.0000
     31 H10        -2.5906    2.7726   -3.9425 H         1 <0>         0.0000
     32 H11        -1.2724   -1.6004   -0.5942 H         1 <0>         0.0000
     33 H12        -1.6199   -0.0609    0.2039 H         1 <0>         0.0000
     34 H13        -0.2555   -1.0473    0.7364 H         1 <0>         0.0000
     35 H14        -5.3885   -3.1615    4.8116 H         1 <0>         0.0000
     36 H15        -5.2156   -4.6856    3.9299 H         1 <0>         0.0000
     37 H16        -4.0552   -4.2569    5.1918 H         1 <0>         0.0000
     38 H17        -7.7971   -2.3671    0.1280 H         1 <0>         0.0000
     39 H18        -7.5859   -0.6519    0.5388 H         1 <0>         0.0000
     40 H19        -7.0347   -1.2600   -1.0201 H         1 <0>         0.0000
     41 H20        -3.2933   -0.9944   -1.4885 H         1 <0>         0.0000
     42 H21        -5.0018   -0.7836   -1.7743 H         1 <0>         0.0000
     43 H22        -6.4460   -2.8759    2.3446 H         1 <0>         0.0000
@<TRIPOS>BOND
     1    1    2 ar
     2    1    4 ar
     3    1   22 1
     4    2    5 ar
     5    2   23 1
     6    3    4 ar
     7    3    6 1
     8    3    7 ar
     9    4   14 1
    10    5    7 ar
    11    5   15 1
    12    6    8 2
    13    6   17 1
    14    7   18 1
    15    8   16 1
    16    8   18 1
    17    9   17 1
    18    9   19 am
    19    9   20 2
    20   10   12 1
    21   10   19 1
    22   10   24 1
    23   10   25 1
    24   11   13 1
    25   11   19 1
    26   11   26 1
    27   11   27 1
    28   12   21 1
    29   12   28 1
    30   12   29 1
    31   13   21 1
    32   13   30 1
    33   13   31 1
    34   14   32 1
    35   14   33 1
    36   14   34 1
    37   15   35 1
    38   15   36 1
    39   15   37 1
    40   16   38 1
    41   16   39 1
    42   16   40 1
    43   17   41 1
    44   17   42 1
    45   18   43 1
