@<TRIPOS>MOLECULE
*****
   42    45     0     0     0
SMALL
NO_CHARGES

@<TRIPOS>ATOM
      1 C1         -1.3853   -0.1322    1.3944 C.ar      1 <0>         0.0000
      2 C2         -1.4663   -0.9203    0.2415 C.ar      1 <0>         0.0000
      3 C3         -1.3690   -0.7389    2.6594 C.ar      1 <0>         0.0000
      4 C4         -1.5262   -2.3194    0.3133 C.ar      1 <0>         0.0000
      5 C5         -2.6339   -8.1816   -0.0971 C.ar      1 <0>         0.0000
      6 C6         -0.3192   -8.5341    0.4609 C.ar      1 <0>         0.0000
      7 C7         -1.4269   -2.1248    2.7448 C.ar      1 <0>         0.0000
      8 C8         -1.5129   -7.8357    0.6604 C.ar      1 <0>         0.0000
      9 C9         -1.4993   -2.9069    1.5816 C.ar      1 <0>         0.0000
     10 C10        -2.5771   -9.1995   -1.0486 C.ar      1 <0>         0.0000
     11 C11        -1.3635   -9.8856   -1.2863 C.ar      1 <0>         0.0000
     12 C12        -0.2527   -9.5395   -0.5034 C.ar      1 <0>         0.0000
     13 C13        -1.6432   -5.3296    1.0460 C.2       1 <0>         0.0000
     14 C14        -1.4795   -3.0144    3.9661 C.3       1 <0>         0.0000
     15 C15        -3.3317  -11.2142   -3.4126 C.3       1 <0>         0.0000
     16 C16        -1.2625   -4.4279    3.3818 C.3       1 <0>         0.0000
     17 C17        -3.9899  -10.8344   -2.0862 C.3       1 <0>         0.0000
     18 C18        -1.9025  -10.6745   -3.4706 C.3       1 <0>         0.0000
     19 C19        -1.5846   -6.7281    1.6809 C.3       1 <0>         0.0000
     20 N1         -1.5283   -4.2822    1.9309 N.am      1 <0>         0.0000
     21 O1         -1.8044   -5.1634   -0.1598 O.2       1 <0>         0.0000
     22 O2         -3.7371   -9.4586   -1.7456 O.3       1 <0>         0.0000
     23 O3         -1.2182  -10.8802   -2.2190 O.3       1 <0>         0.0000
     24 Cl1         1.2633  -10.3813   -0.7599 Cl        1 <0>         0.0000
     25 H1         -1.3367    0.9501    1.3108 H         1 <0>         0.0000
     26 H2         -1.4811   -0.4440   -0.7355 H         1 <0>         0.0000
     27 H3         -1.3133   -0.1333    3.5612 H         1 <0>         0.0000
     28 H4         -1.5906   -2.9317   -0.5754 H         1 <0>         0.0000
     29 H5         -3.5796   -7.6641    0.0329 H         1 <0>         0.0000
     30 H6          0.5697   -8.2948    1.0364 H         1 <0>         0.0000
     31 H7         -0.7209   -2.7664    4.7132 H         1 <0>         0.0000
     32 H8         -2.4589   -2.9381    4.4528 H         1 <0>         0.0000
     33 H9         -3.3380  -12.3061   -3.5061 H         1 <0>         0.0000
     34 H10        -3.8974  -10.8045   -4.2570 H         1 <0>         0.0000
     35 H11        -0.2283   -4.7597    3.5346 H         1 <0>         0.0000
     36 H12        -1.9285   -5.1684    3.8273 H         1 <0>         0.0000
     37 H13        -5.0772  -10.9262   -2.1438 H         1 <0>         0.0000
     38 H14        -3.6327  -11.4788   -1.2766 H         1 <0>         0.0000
     39 H15        -1.3064  -11.2009   -4.2195 H         1 <0>         0.0000
     40 H16        -1.8966   -9.6073   -3.7124 H         1 <0>         0.0000
     41 H17        -2.4766   -6.8481    2.3090 H         1 <0>         0.0000
     42 H18        -0.7271   -6.7879    2.3583 H         1 <0>         0.0000
@<TRIPOS>BOND
     1    1    2 ar
     2    1    3 ar
     3    1   25 1
     4    2    4 ar
     5    2   26 1
     6    3    7 ar
     7    3   27 1
     8    4    9 ar
     9    4   28 1
    10    5    8 ar
    11    5   10 ar
    12    5   29 1
    13    6    8 ar
    14    6   12 ar
    15    6   30 1
    16    7    9 ar
    17    7   14 1
    18    8   19 1
    19    9   20 1
    20   10   11 ar
    21   10   22 1
    22   11   12 ar
    23   11   23 1
    24   12   24 1
    25   13   19 1
    26   13   20 am
    27   13   21 2
    28   14   16 1
    29   14   31 1
    30   14   32 1
    31   15   17 1
    32   15   18 1
    33   15   33 1
    34   15   34 1
    35   16   20 1
    36   16   35 1
    37   16   36 1
    38   17   22 1
    39   17   37 1
    40   17   38 1
    41   18   23 1
    42   18   39 1
    43   18   40 1
    44   19   41 1
    45   19   42 1
