@<TRIPOS>MOLECULE
*****
   43    45     0     0     0
SMALL
NO_CHARGES

@<TRIPOS>ATOM
      1 C1          8.8678    1.9396   -0.6831 C.ar      1 <0>         0.0000
      2 C2          8.3737    3.1724   -0.2069 C.ar      1 <0>         0.0000
      3 C3          7.9921    0.8990   -0.9898 C.ar      1 <0>         0.0000
      4 C4          7.0069    3.4024   -0.0404 C.ar      1 <0>         0.0000
      5 C5          6.6230    1.1175   -0.8107 C.ar      1 <0>         0.0000
      6 C6          6.1386    2.3539   -0.3623 C.ar      1 <0>         0.0000
      7 C7          5.4645    0.2339   -1.0203 C.2       1 <0>         0.0000
      8 C8          2.0489    1.0416    0.1682 C.2       1 <0>         0.0000
      9 C9         -1.1792   -0.0411    1.3875 C.3       1 <0>         0.0000
     10 C10        -0.2696    1.1221    0.9482 C.3       1 <0>         0.0000
     11 C11         0.2389    0.0938   -1.2691 C.3       1 <0>         0.0000
     12 C12        -1.1246   -0.6230   -1.0824 C.3       1 <0>         0.0000
     13 C13        -1.2233   -1.1896    0.3551 C.3       1 <0>         0.0000
     14 C14        -2.3140    0.2600   -1.4939 C.3       1 <0>         0.0000
     15 C15        -2.4602   -2.0614    0.5585 C.3       1 <0>         0.0000
     16 C16         3.0206    0.6939   -0.9646 C.3       1 <0>         0.0000
     17 N1          4.7331    2.3468   -0.3366 N.pl3     1 <0>         0.0000
     18 N2          4.3766    0.9970   -0.6014 N.am      1 <0>         0.0000
     19 N3          0.7465    0.6607   -0.0071 N.am      1 <0>         0.0000
     20 O1          5.3866   -0.9086   -1.4728 O.2       1 <0>         0.0000
     21 O2          2.4393    1.6497    1.1701 O.2       1 <0>         0.0000
     22 O3         -0.1102   -2.0874    0.5646 O.3       1 <0>         0.0000
     23 H1          9.9387    1.8056   -0.8063 H         1 <0>         0.0000
     24 H2          9.0751    3.9681    0.0307 H         1 <0>         0.0000
     25 H3          8.3479   -0.0621   -1.3501 H         1 <0>         0.0000
     26 H4          6.6355    4.3597    0.3148 H         1 <0>         0.0000
     27 H5         -0.8326   -0.4665    2.3343 H         1 <0>         0.0000
     28 H6         -2.1878    0.3458    1.5627 H         1 <0>         0.0000
     29 H7         -0.8555    1.9166    0.4697 H         1 <0>         0.0000
     30 H8          0.2546    1.5673    1.7916 H         1 <0>         0.0000
     31 H9          0.9647   -0.6273   -1.6444 H         1 <0>         0.0000
     32 H10         0.1409    0.8860   -2.0236 H         1 <0>         0.0000
     33 H11        -1.1102   -1.4880   -1.7535 H         1 <0>         0.0000
     34 H12        -2.4451    1.1268   -0.8391 H         1 <0>         0.0000
     35 H13        -3.2485   -0.3068   -1.4871 H         1 <0>         0.0000
     36 H14        -2.1707    0.6373   -2.5119 H         1 <0>         0.0000
     37 H15        -2.4540   -2.8973   -0.1478 H         1 <0>         0.0000
     38 H16        -3.3841   -1.4935    0.4263 H         1 <0>         0.0000
     39 H17        -2.4501   -2.4745    1.5712 H         1 <0>         0.0000
     40 H18         2.7230    1.2372   -1.8736 H         1 <0>         0.0000
     41 H19         3.0122   -0.3737   -1.1993 H         1 <0>         0.0000
     42 H20         4.3012    2.6223    0.5481 H         1 <0>         0.0000
     43 H21         0.6859   -1.5498    0.7069 H         1 <0>         0.0000
@<TRIPOS>BOND
     1    1    2 ar
     2    1    3 ar
     3    1   23 1
     4    2    4 ar
     5    2   24 1
     6    3    5 ar
     7    3   25 1
     8    4    6 ar
     9    4   26 1
    10    5    6 ar
    11    5    7 1
    12    6   17 1
    13    7   18 am
    14    7   20 2
    15    8   16 1
    16    8   19 am
    17    8   21 2
    18    9   10 1
    19    9   13 1
    20    9   27 1
    21    9   28 1
    22   10   19 1
    23   10   29 1
    24   10   30 1
    25   11   12 1
    26   11   19 1
    27   11   31 1
    28   11   32 1
    29   12   13 1
    30   12   14 1
    31   12   33 1
    32   13   15 1
    33   13   22 1
    34   14   34 1
    35   14   35 1
    36   14   36 1
    37   15   37 1
    38   15   38 1
    39   15   39 1
    40   16   18 1
    41   16   40 1
    42   16   41 1
    43   17   18 1
    44   17   42 1
    45   22   43 1
