@<TRIPOS>MOLECULE
*****
   39    41     0     0     0
SMALL
NO_CHARGES

@<TRIPOS>ATOM
      1 C1         -5.5857   -3.3600    6.1062 C.ar      1 <0>         0.0000
      2 C2         -6.0169   -2.5563    5.0401 C.ar      1 <0>         0.0000
      3 C3         -4.5932   -4.3286    5.9198 C.ar      1 <0>         0.0000
      4 C4         -5.4653   -2.7010    3.7601 C.ar      1 <0>         0.0000
      5 C5         -3.8247   -8.2531    2.6574 C.2       1 <0>         0.0000
      6 C6         -4.0425   -4.4754    4.6481 C.ar      1 <0>         0.0000
      7 C7         -3.3968   -7.8113    1.3566 C.2       1 <0>         0.0000
      8 C8         -4.4823   -3.6680    3.6030 C.ar      1 <0>         0.0000
      9 C9         -4.9441   -9.0313    2.4887 C.2       1 <0>         0.0000
     10 C10        -4.2984   -8.3340    0.4235 C.2       1 <0>         0.0000
     11 C11        -2.9826   -5.4476    4.2551 C.2       1 <0>         0.0000
     12 C12        -2.2749   -6.9398    1.0382 C.2       1 <0>         0.0000
     13 C13        -5.7690   -9.7646    3.4979 C.3       1 <0>         0.0000
     14 C14        -4.3865   -8.1255   -1.0531 C.3       1 <0>         0.0000
     15 C15        -6.3925   -9.7069    0.5324 C.3       1 <0>         0.0000
     16 C16        -1.6989   -6.0715    2.1764 C.3       1 <0>         0.0000
     17 N1         -5.2245   -9.0705    1.1199 N.pl3     1 <0>         0.0000
     18 N2         -2.7115   -5.3090    2.9024 N.am      1 <0>         0.0000
     19 O1         -2.4332   -6.2523    4.9942 O.2       1 <0>         0.0000
     20 O2         -1.7540   -6.8426   -0.0725 O.2       1 <0>         0.0000
     21 O3         -4.5025   -4.6662    1.1067 O.2       1 <0>         0.0000
     22 O4         -2.6967   -3.0033    1.6958 O.2       1 <0>         0.0000
     23 S1         -3.6105   -4.0703    2.0971 S.o2      1 <0>         0.0000
     24 H1         -6.0296   -3.2259    7.0886 H         1 <0>         0.0000
     25 H2         -6.7884   -1.8100    5.2069 H         1 <0>         0.0000
     26 H3         -4.2454   -4.9597    6.7320 H         1 <0>         0.0000
     27 H4         -5.7933   -2.0833    2.9297 H         1 <0>         0.0000
     28 H5         -3.3375   -8.0643    3.6046 H         1 <0>         0.0000
     29 H6         -6.8199   -9.4503    3.4858 H         1 <0>         0.0000
     30 H7         -5.7469  -10.8514    3.3466 H         1 <0>         0.0000
     31 H8         -5.3743   -9.5638    4.4966 H         1 <0>         0.0000
     32 H9         -4.1819   -9.0514   -1.6058 H         1 <0>         0.0000
     33 H10        -5.3804   -7.7701   -1.3487 H         1 <0>         0.0000
     34 H11        -3.6430   -7.3903   -1.3572 H         1 <0>         0.0000
     35 H12        -7.2490   -9.0230    0.5073 H         1 <0>         0.0000
     36 H13        -6.1691  -10.0257   -0.4866 H         1 <0>         0.0000
     37 H14        -6.6657  -10.5887    1.1141 H         1 <0>         0.0000
     38 H15        -0.9627   -5.3930    1.7393 H         1 <0>         0.0000
     39 H16        -1.2078   -6.6992    2.9258 H         1 <0>         0.0000
@<TRIPOS>BOND
     1    1    2 ar
     2    1    3 ar
     3    1   24 1
     4    2    4 ar
     5    2   25 1
     6    3    6 ar
     7    3   26 1
     8    4    8 ar
     9    4   27 1
    10    5    7 1
    11    5    9 2
    12    5   28 1
    13    6    8 ar
    14    6   11 1
    15    7   10 2
    16    7   12 1
    17    8   23 1
    18    9   13 1
    19    9   17 1
    20   10   14 1
    21   10   17 1
    22   11   18 am
    23   11   19 2
    24   12   16 1
    25   12   20 2
    26   13   29 1
    27   13   30 1
    28   13   31 1
    29   14   32 1
    30   14   33 1
    31   14   34 1
    32   15   17 1
    33   15   35 1
    34   15   36 1
    35   15   37 1
    36   16   18 1
    37   16   38 1
    38   16   39 1
    39   18   23 1
    40   21   23 2
    41   22   23 2
