@<TRIPOS>MOLECULE
*****
   37    40     0     0     0
SMALL
NO_CHARGES

@<TRIPOS>ATOM
      1 C1         -0.4417   -4.7561    3.0532 C.ar      1 <0>         0.0000
      2 C2          0.0149   -5.4146    4.2034 C.ar      1 <0>         0.0000
      3 C3         -0.0499   -5.1805    1.7773 C.ar      1 <0>         0.0000
      4 C4          3.0309   -7.4163   -4.3369 C.ar      1 <0>         0.0000
      5 C5          3.7948   -7.7167   -5.4737 C.ar      1 <0>         0.0000
      6 C6          0.8730   -6.5188    4.1029 C.ar      1 <0>         0.0000
      7 C7          2.7124   -9.7860   -3.8312 C.ar      1 <0>         0.0000
      8 C8          0.8137   -6.2735    1.6761 C.ar      1 <0>         0.0000
      9 C9          2.4866   -8.4220   -3.5178 C.ar      1 <0>         0.0000
     10 C10         4.0069   -9.0571   -5.7520 C.ar      1 <0>         0.0000
     11 C11         3.4780  -10.0630   -4.9448 C.ar      1 <0>         0.0000
     12 C12         1.2496   -6.9190    2.8309 C.ar      1 <0>         0.0000
     13 C13         1.3994   -6.9383    0.4740 C.2       1 <0>         0.0000
     14 C14         1.6875   -8.0645   -2.3198 C.2       1 <0>         0.0000
     15 C15         4.7615  -11.0243   -6.5076 C.3       1 <0>         0.0000
     16 C16         0.8240   -9.1184   -1.6794 C.3       1 <0>         0.0000
     17 N1          2.1867   -7.9602    0.6651 N.2       1 <0>         0.0000
     18 N2          1.7740   -6.8323   -1.9271 N.2       1 <0>         0.0000
     19 N3          1.0634   -6.4818   -0.7666 N.pl3     1 <0>         0.0000
     20 O1          3.6817   -8.0751    2.7776 O.2       1 <0>         0.0000
     21 O2          1.6467   -9.5669    2.6129 O.2       1 <0>         0.0000
     22 O3          4.6946   -9.6162   -6.8027 O.3       1 <0>         0.0000
     23 O4          3.8144  -11.2969   -5.4633 O.3       1 <0>         0.0000
     24 S1          2.3091   -8.2935    2.3242 S.o2      1 <0>         0.0000
     25 H1         -1.1117   -3.9069    3.1523 H         1 <0>         0.0000
     26 H2         -0.3030   -5.0683    5.1827 H         1 <0>         0.0000
     27 H3         -0.4279   -4.6649    0.8982 H         1 <0>         0.0000
     28 H4          2.8516   -6.3814   -4.0698 H         1 <0>         0.0000
     29 H5          4.2044   -6.9367   -6.1075 H         1 <0>         0.0000
     30 H6          1.2279   -7.0413    4.9861 H         1 <0>         0.0000
     31 H7          2.3257  -10.5918   -3.2183 H         1 <0>         0.0000
     32 H8          4.4915  -11.5926   -7.4000 H         1 <0>         0.0000
     33 H9          5.7728  -11.2707   -6.1582 H         1 <0>         0.0000
     34 H10         1.4164   -9.7387   -1.0007 H         1 <0>         0.0000
     35 H11         0.0306   -8.6581   -1.0889 H         1 <0>         0.0000
     36 H12         0.3705   -9.7553   -2.4423 H         1 <0>         0.0000
     37 H13         0.8028   -5.5026   -0.7981 H         1 <0>         0.0000
@<TRIPOS>BOND
     1    1    2 ar
     2    1    3 ar
     3    1   25 1
     4    2    6 ar
     5    2   26 1
     6    3    8 ar
     7    3   27 1
     8    4    5 ar
     9    4    9 ar
    10    4   28 1
    11    5   10 ar
    12    5   29 1
    13    6   12 ar
    14    6   30 1
    15    7    9 ar
    16    7   11 ar
    17    7   31 1
    18    8   12 ar
    19    8   13 1
    20    9   14 1
    21   10   11 ar
    22   10   22 1
    23   11   23 1
    24   12   24 1
    25   13   17 2
    26   13   19 1
    27   14   16 1
    28   14   18 2
    29   15   22 1
    30   15   23 1
    31   15   32 1
    32   15   33 1
    33   16   34 1
    34   16   35 1
    35   16   36 1
    36   17   24 1
    37   18   19 1
    38   19   37 1
    39   20   24 2
    40   21   24 2
