@<TRIPOS>MOLECULE
*****
   32    34     0     0     0
SMALL
NO_CHARGES

@<TRIPOS>ATOM
      1 C1          5.5194   -2.7394    3.4435 C.1       1 <0>         0.0000
      2 C2          9.3645    4.0134    4.0894 C.ar      1 <0>         0.0000
      3 C3          8.2707    4.7530    3.6298 C.ar      1 <0>         0.0000
      4 C4          5.7752   -7.2545    3.4908 C.2       1 <0>         0.0000
      5 C5          9.3234    2.6235    4.0225 C.ar      1 <0>         0.0000
      6 C6          7.1573    4.0931    3.1065 C.ar      1 <0>         0.0000
      7 C7          5.8225   -5.8392    3.4786 C.2       1 <0>         0.0000
      8 C8          7.0271   -7.8337    3.5153 C.2       1 <0>         0.0000
      9 C9          8.2001    1.9552    3.4999 C.ar      1 <0>         0.0000
     10 C10         7.0896    2.6936    3.0263 C.ar      1 <0>         0.0000
     11 C11         7.1219   -5.3389    3.4939 C.2       1 <0>         0.0000
     12 C12         8.2436    0.4830    3.4644 C.2       1 <0>         0.0000
     13 C13         7.6523   -1.5390    3.4659 C.2       1 <0>         0.0000
     14 C14         7.6337   -4.0001    3.4898 C.2       1 <0>         0.0000
     15 C15         6.9483   -2.8144    3.4681 C.2       1 <0>         0.0000
     16 C16         5.8559    2.0562    2.4288 C.3       1 <0>         0.0000
     17 N1          4.3543   -2.7161    3.4215 N.1       1 <0>         0.0000
     18 N2          7.1311   -0.3420    3.4602 N.2       1 <0>         0.0000
     19 N3          9.3911   -0.1740    3.4642 N.2       1 <0>         0.0000
     20 O1          9.0020   -1.5306    3.4723 O.3       1 <0>         0.0000
     21 S1          8.2811   -6.6585    3.5238 S.3       1 <0>         0.0000
     22 H1         10.2371    4.5136    4.5004 H         1 <0>         0.0000
     23 H2          8.2834    5.8390    3.6775 H         1 <0>         0.0000
     24 H3          4.8554   -7.8294    3.4819 H         1 <0>         0.0000
     25 H4         10.1609    2.0344    4.3828 H         1 <0>         0.0000
     26 H5          6.3144    4.6765    2.7444 H         1 <0>         0.0000
     27 H6          4.9424   -5.2094    3.4594 H         1 <0>         0.0000
     28 H7          7.2710   -8.8886    3.5285 H         1 <0>         0.0000
     29 H8          8.7173   -3.9051    3.5055 H         1 <0>         0.0000
     30 H9          6.1087    1.3376    1.6444 H         1 <0>         0.0000
     31 H10         5.2865    1.5024    3.1792 H         1 <0>         0.0000
     32 H11         5.2096    2.8244    1.9961 H         1 <0>         0.0000
@<TRIPOS>BOND
     1    1   15 1
     2    1   17 3
     3    2    3 ar
     4    2    5 ar
     5    2   22 1
     6    3    6 ar
     7    3   23 1
     8    4    7 1
     9    4    8 2
    10    4   24 1
    11    5    9 ar
    12    5   25 1
    13    6   10 ar
    14    6   26 1
    15    7   11 2
    16    7   27 1
    17    8   21 1
    18    8   28 1
    19    9   10 ar
    20    9   12 1
    21   10   16 1
    22   11   14 1
    23   11   21 1
    24   12   18 1
    25   12   19 2
    26   13   15 1
    27   13   18 2
    28   13   20 1
    29   14   15 2
    30   14   29 1
    31   16   30 1
    32   16   31 1
    33   16   32 1
    34   19   20 1
