@<TRIPOS>MOLECULE
*****
   45    49     0     0     0
SMALL
NO_CHARGES

@<TRIPOS>ATOM
      1 C1         -2.5598    5.5313    1.3197 C.ar      1 <0>         0.0000
      2 C2         -3.5072    4.8088    0.5727 C.ar      1 <0>         0.0000
      3 C3         -1.2869    5.0122    1.5614 C.ar      1 <0>         0.0000
      4 C4         -3.2252    3.5480    0.0404 C.ar      1 <0>         0.0000
      5 C5         -1.9422    3.0179    0.2806 C.ar      1 <0>         0.0000
      6 C6         -0.9951    3.7527    1.0335 C.ar      1 <0>         0.0000
      7 C7         -0.2985    1.5464    0.1835 C.2       1 <0>         0.0000
      8 C8          0.0843   -0.7119   -0.8344 C.2       1 <0>         0.0000
      9 C9          3.9168   -2.7814   -0.3578 C.3       1 <0>         0.0000
     10 C10         2.1339   -4.5509   -0.4864 C.3       1 <0>         0.0000
     11 C11         2.9810   -3.4641   -2.5904 C.3       1 <0>         0.0000
     12 C12         1.5963   -2.2877    0.4723 C.3       1 <0>         0.0000
     13 C13         2.4469   -1.1964   -1.6406 C.3       1 <0>         0.0000
     14 C14         0.6614   -2.9625   -1.7620 C.3       1 <0>         0.0000
     15 C15         2.6799   -3.3746    0.3429 C.3       1 <0>         0.0000
     16 C16         3.5282   -2.2864   -1.7638 C.3       1 <0>         0.0000
     17 C17         1.7423   -4.0494   -1.8882 C.3       1 <0>         0.0000
     18 C18         1.1908   -1.7724   -0.9342 C.3       1 <0>         0.0000
     19 C19        -4.2282    2.7598   -0.7619 C.3       1 <0>         0.0000
     20 N1         -1.5130    1.7781   -0.1815 N.2       1 <0>         0.0000
     21 N2          0.4580    0.4180   -0.0912 N.am      1 <0>         0.0000
     22 O1         -1.0128   -0.8288   -1.3468 O.2       1 <0>         0.0000
     23 S1          0.4956    2.8292    1.1544 S.3       1 <0>         0.0000
     24 H1         -2.8215    6.5090    1.7153 H         1 <0>         0.0000
     25 H2         -4.4896    5.2431    0.4032 H         1 <0>         0.0000
     26 H3         -0.5556    5.5706    2.1383 H         1 <0>         0.0000
     27 H4          4.3266   -1.9530    0.2351 H         1 <0>         0.0000
     28 H5          4.7049   -3.5407   -0.4327 H         1 <0>         0.0000
     29 H6          1.2622   -4.9917    0.0134 H         1 <0>         0.0000
     30 H7          2.8937   -5.3388   -0.5632 H         1 <0>         0.0000
     31 H8          3.7545   -4.2345   -2.7012 H         1 <0>         0.0000
     32 H9          2.7170   -3.1253   -3.6001 H         1 <0>         0.0000
     33 H10         0.7129   -2.6870    0.9845 H         1 <0>         0.0000
     34 H11         1.9813   -1.4709    1.0970 H         1 <0>         0.0000
     35 H12         2.8580   -0.3447   -1.0827 H         1 <0>         0.0000
     36 H13         2.1686   -0.8196   -2.6319 H         1 <0>         0.0000
     37 H14         0.3531   -2.6088   -2.7508 H         1 <0>         0.0000
     38 H15        -0.2371   -3.3661   -1.2846 H         1 <0>         0.0000
     39 H16         2.9546   -3.7230    1.3456 H         1 <0>         0.0000
     40 H17         4.4070   -1.8598   -2.2616 H         1 <0>         0.0000
     41 H18         1.3427   -4.8818   -2.4791 H         1 <0>         0.0000
     42 H19        -3.8408    2.5390   -1.7615 H         1 <0>         0.0000
     43 H20        -4.4329    1.7940   -0.2892 H         1 <0>         0.0000
     44 H21        -5.1684    3.3086   -0.8620 H         1 <0>         0.0000
     45 H22         1.3947    0.4154    0.2892 H         1 <0>         0.0000
@<TRIPOS>BOND
     1    1    2 ar
     2    1    3 ar
     3    1   24 1
     4    2    4 ar
     5    2   25 1
     6    3    6 ar
     7    3   26 1
     8    4    5 ar
     9    4   19 1
    10    5    6 ar
    11    5   20 1
    12    6   23 1
    13    7   20 2
    14    7   21 1
    15    7   23 1
    16    8   18 1
    17    8   21 am
    18    8   22 2
    19    9   15 1
    20    9   16 1
    21    9   27 1
    22    9   28 1
    23   10   17 1
    24   10   15 1
    25   10   29 1
    26   10   30 1
    27   11   17 1
    28   11   16 1
    29   11   31 1
    30   11   32 1
    31   12   15 1
    32   12   18 1
    33   12   33 1
    34   12   34 1
    35   13   16 1
    36   13   18 1
    37   13   35 1
    38   13   36 1
    39   14   17 1
    40   14   18 1
    41   14   37 1
    42   14   38 1
    43   15   39 1
    44   16   40 1
    45   17   41 1
    46   19   42 1
    47   19   43 1
    48   19   44 1
    49   21   45 1
