@<TRIPOS>MOLECULE
*****
   22    22     0     0     0
SMALL
NO_CHARGES

@<TRIPOS>ATOM
      1 C1          2.0358   -0.8605   -0.3169 C.ar      1 <0>         0.0000
      2 C2          0.9132   -0.2553    0.2489 C.ar      1 <0>         0.0000
      3 C3          1.6177   -1.0339    2.4427 C.ar      1 <0>         0.0000
      4 C4          2.9580   -1.5507    0.4745 C.ar      1 <0>         0.0000
      5 C5          0.7156   -0.3496    1.6272 C.ar      1 <0>         0.0000
      6 C6          2.7354   -1.6322    1.8584 C.ar      1 <0>         0.0000
      7 C7          3.1983   -3.6516   -1.7403 C.2       1 <0>         0.0000
      8 C8          3.9601   -3.4977   -0.4513 C.3       1 <0>         0.0000
      9 N1          2.1756   -4.4392   -1.7268 N.2       1 <0>         0.0000
     10 N2          3.6885   -2.9817   -2.8404 N.pl3     1 <0>         0.0000
     11 O1          1.5890   -4.4774   -3.0290 O.3       1 <0>         0.0000
     12 O2          4.0877   -2.1010   -0.0899 O.3       1 <0>         0.0000
     13 Cl1        -0.6901    0.4058    2.3560 Cl        1 <0>         0.0000
     14 Cl2         3.8735   -2.4897    2.8721 Cl        1 <0>         0.0000
     15 H1          2.2091   -0.8029   -1.3868 H         1 <0>         0.0000
     16 H2          0.2009    0.2794   -0.3707 H         1 <0>         0.0000
     17 H3          1.4595   -1.0999    3.5135 H         1 <0>         0.0000
     18 H4          4.9880   -3.8492   -0.5687 H         1 <0>         0.0000
     19 H5          3.4653   -4.0678    0.3369 H         1 <0>         0.0000
     20 H6          3.0544   -2.9208   -3.6284 H         1 <0>         0.0000
     21 H7          4.2144   -2.1403   -2.6371 H         1 <0>         0.0000
     22 H8          0.8315   -5.0682   -2.8959 H         1 <0>         0.0000
@<TRIPOS>BOND
     1    1    2 ar
     2    1    4 ar
     3    1   15 1
     4    2    5 ar
     5    2   16 1
     6    3    5 ar
     7    3    6 ar
     8    3   17 1
     9    4    6 ar
    10    4   12 1
    11    5   13 1
    12    6   14 1
    13    7    8 1
    14    7    9 2
    15    7   10 1
    16    8   12 1
    17    8   18 1
    18    8   19 1
    19    9   11 1
    20   10   20 1
    21   10   21 1
    22   11   22 1
