@<TRIPOS>MOLECULE
*****
   32    34     0     0     0
SMALL
NO_CHARGES

@<TRIPOS>ATOM
      1 C1          6.6842   -4.2612    2.6529 C.1       1 <0>         0.0000
      2 C2          6.7265    2.9742    5.9323 C.ar      1 <0>         0.0000
      3 C3          7.3038    4.0510    5.2539 C.ar      1 <0>         0.0000
      4 C4          4.6651   -7.1525    5.4891 C.2       1 <0>         0.0000
      5 C5          6.7292    1.7140    5.3403 C.ar      1 <0>         0.0000
      6 C6          7.8746    3.8516    3.9952 C.ar      1 <0>         0.0000
      7 C7          5.2759   -6.1580    4.6875 C.2       1 <0>         0.0000
      8 C8          4.1966   -6.6620    6.6907 C.2       1 <0>         0.0000
      9 C9          7.3030    1.5074    4.0714 C.ar      1 <0>         0.0000
     10 C10         7.8910    2.5932    3.3760 C.ar      1 <0>         0.0000
     11 C11         5.2716   -4.9001    5.2853 C.2       1 <0>         0.0000
     12 C12         7.2512    0.1362    3.5370 C.2       1 <0>         0.0000
     13 C13         6.8243   -1.9268    3.4557 C.2       1 <0>         0.0000
     14 C14         5.7687   -3.6299    4.8487 C.2       1 <0>         0.0000
     15 C15         6.4051   -3.3058    3.6798 C.2       1 <0>         0.0000
     16 C16         8.5272    2.4596    2.0143 C.3       1 <0>         0.0000
     17 N1          6.8968   -5.0645    1.8352 N.1       1 <0>         0.0000
     18 N2          6.6727   -0.9026    4.2511 N.2       1 <0>         0.0000
     19 N3          7.7326   -0.2364    2.3623 N.2       1 <0>         0.0000
     20 O1          7.4488   -1.6167    2.3041 O.3       1 <0>         0.0000
     21 S1          4.4953   -4.9782    6.8594 S.3       1 <0>         0.0000
     22 H1          6.2789    3.1146    6.9124 H         1 <0>         0.0000
     23 H2          7.3109    5.0420    5.7006 H         1 <0>         0.0000
     24 H3          4.5715   -8.1927    5.1961 H         1 <0>         0.0000
     25 H4          6.2860    0.8667    5.8516 H         1 <0>         0.0000
     26 H5          8.3221    4.6942    3.4738 H         1 <0>         0.0000
     27 H6          5.7024   -6.3518    3.7117 H         1 <0>         0.0000
     28 H7          3.6934   -7.2068    7.4797 H         1 <0>         0.0000
     29 H8          5.6297   -2.7926    5.5297 H         1 <0>         0.0000
     30 H9          9.3467    1.7352    2.0228 H         1 <0>         0.0000
     31 H10         7.8118    2.0967    1.2706 H         1 <0>         0.0000
     32 H11         8.9170    3.4254    1.6826 H         1 <0>         0.0000
@<TRIPOS>BOND
     1    1   15 1
     2    1   17 3
     3    2    3 ar
     4    2    5 ar
     5    2   22 1
     6    3    6 ar
     7    3   23 1
     8    4    7 1
     9    4    8 2
    10    4   24 1
    11    5    9 ar
    12    5   25 1
    13    6   10 ar
    14    6   26 1
    15    7   11 2
    16    7   27 1
    17    8   21 1
    18    8   28 1
    19    9   10 ar
    20    9   12 1
    21   10   16 1
    22   11   14 1
    23   11   21 1
    24   12   18 1
    25   12   19 2
    26   13   15 1
    27   13   18 2
    28   13   20 1
    29   14   15 2
    30   14   29 1
    31   16   30 1
    32   16   31 1
    33   16   32 1
    34   19   20 1
