@<TRIPOS>MOLECULE
*****
   32    34     0     0     0
SMALL
NO_CHARGES

@<TRIPOS>ATOM
      1 C1          8.3282   -4.0695    4.3387 C.1       1 <0>         0.0000
      2 C2          9.2288    3.9856    3.0943 C.ar      1 <0>         0.0000
      3 C3          7.9903    4.5702    2.8144 C.ar      1 <0>         0.0000
      4 C4          5.1828   -6.8455    2.6393 C.2       1 <0>         0.0000
      5 C5          9.2895    2.6280    3.3982 C.ar      1 <0>         0.0000
      6 C6          6.8319    3.7913    2.8484 C.ar      1 <0>         0.0000
      7 C7          6.1026   -5.8818    3.1187 C.2       1 <0>         0.0000
      8 C8          4.1551   -6.2889    1.9058 C.2       1 <0>         0.0000
      9 C9          8.1245    1.8391    3.4267 C.ar      1 <0>         0.0000
     10 C10         6.8654    2.4220    3.1521 C.ar      1 <0>         0.0000
     11 C11         5.7710   -4.5814    2.7462 C.2       1 <0>         0.0000
     12 C12         8.2806    0.4117    3.7595 C.2       1 <0>         0.0000
     13 C13         7.9939   -1.6722    3.8352 C.2       1 <0>         0.0000
     14 C14         6.4012   -3.3211    3.0019 C.2       1 <0>         0.0000
     15 C15         7.5434   -3.0531    3.7093 C.2       1 <0>         0.0000
     16 C16         5.5659    1.6498    3.1884 C.3       1 <0>         0.0000
     17 N1          8.9467   -4.9210    4.8402 N.1       1 <0>         0.0000
     18 N2          7.4359   -0.5986    3.3374 N.2       1 <0>         0.0000
     19 N3          9.2998   -0.0167    4.4856 N.2       1 <0>         0.0000
     20 O1          9.1147   -1.4117    4.5327 O.3       1 <0>         0.0000
     21 S1          4.2969   -4.5802    1.7904 S.3       1 <0>         0.0000
     22 H1         10.1383    4.5796    3.0716 H         1 <0>         0.0000
     23 H2          7.9246    5.6279    2.5723 H         1 <0>         0.0000
     24 H3          5.2701   -7.9106    2.8251 H         1 <0>         0.0000
     25 H4         10.2441    2.1574    3.6111 H         1 <0>         0.0000
     26 H5          5.8714    4.2560    2.6393 H         1 <0>         0.0000
     27 H6          6.9736   -6.1268    3.7128 H         1 <0>         0.0000
     28 H7          3.3265   -6.7989    1.4305 H         1 <0>         0.0000
     29 H8          5.9179   -2.4411    2.5823 H         1 <0>         0.0000
     30 H9          5.4983    0.9461    2.3545 H         1 <0>         0.0000
     31 H10         5.4696    1.0588    4.1033 H         1 <0>         0.0000
     32 H11         4.7182    2.3377    3.1321 H         1 <0>         0.0000
@<TRIPOS>BOND
     1    1   15 1
     2    1   17 3
     3    2    3 ar
     4    2    5 ar
     5    2   22 1
     6    3    6 ar
     7    3   23 1
     8    4    7 1
     9    4    8 2
    10    4   24 1
    11    5    9 ar
    12    5   25 1
    13    6   10 ar
    14    6   26 1
    15    7   11 2
    16    7   27 1
    17    8   21 1
    18    8   28 1
    19    9   10 ar
    20    9   12 1
    21   10   16 1
    22   11   14 1
    23   11   21 1
    24   12   18 1
    25   12   19 2
    26   13   15 1
    27   13   18 2
    28   13   20 1
    29   14   15 2
    30   14   29 1
    31   16   30 1
    32   16   31 1
    33   16   32 1
    34   19   20 1
