@<TRIPOS>MOLECULE
*****
   30    31     0     0     0
SMALL
NO_CHARGES

@<TRIPOS>ATOM
      1 C1          2.4315   -0.7885    0.1076 C.ar      1 <0>         0.0000
      2 C2          1.7475    0.2017    0.8194 C.ar      1 <0>         0.0000
      3 C3          2.8369   -1.9524    0.7717 C.ar      1 <0>         0.0000
      4 C4          1.4657    0.0359    2.1779 C.ar      1 <0>         0.0000
      5 C5          2.5794   -2.1148    2.1336 C.ar      1 <0>         0.0000
      6 C6          1.5628    1.7594    6.2328 C.ar      1 <0>         0.0000
      7 C7         -0.2405    0.2789    6.7648 C.ar      1 <0>         0.0000
      8 C8          0.3975    1.5057    6.9827 C.ar      1 <0>         0.0000
      9 C9          2.0285    0.8412    5.3012 C.ar      1 <0>         0.0000
     10 C10         1.8908   -1.1214    2.8480 C.ar      1 <0>         0.0000
     11 C11         1.2480   -0.3353    5.1211 C.ar      1 <0>         0.0000
     12 C12        -0.1365    2.4319    7.9785 C.2       1 <0>         0.0000
     13 C13         3.3376    1.0580    4.5849 C.3       1 <0>         0.0000
     14 N1          0.1606   -0.6139    5.8555 N.ar      1 <0>         0.0000
     15 N2          0.4108    3.5736    8.1972 N.2       1 <0>         0.0000
     16 N3          1.6276   -1.3411    4.2269 N.pl3     1 <0>         0.0000
     17 O1         -0.2855    4.2740    9.2026 O.3       1 <0>         0.0000
     18 H1          2.6426   -0.6579   -0.9500 H         1 <0>         0.0000
     19 H2          1.4146    1.1043    0.3131 H         1 <0>         0.0000
     20 H3          3.3689   -2.7310    0.2310 H         1 <0>         0.0000
     21 H4          0.9019    0.7932    2.7145 H         1 <0>         0.0000
     22 H5          2.9188   -3.0050    2.6575 H         1 <0>         0.0000
     23 H6          2.1198    2.6743    6.4165 H         1 <0>         0.0000
     24 H7         -1.1211    0.0059    7.3462 H         1 <0>         0.0000
     25 H8         -1.0248    2.1299    8.5415 H         1 <0>         0.0000
     26 H9          3.8911    0.1187    4.4940 H         1 <0>         0.0000
     27 H10         3.1966    1.4411    3.5691 H         1 <0>         0.0000
     28 H11         3.9549    1.7742    5.1339 H         1 <0>         0.0000
     29 H12         1.1031   -2.1920    4.4086 H         1 <0>         0.0000
     30 H13         0.2141    5.1039    9.2703 H         1 <0>         0.0000
@<TRIPOS>BOND
     1    1    3 ar
     2    1    2 ar
     3    1   18 1
     4    2    4 ar
     5    2   19 1
     6    3    5 ar
     7    3   20 1
     8    4   10 ar
     9    4   21 1
    10    5   10 ar
    11    5   22 1
    12    6    8 ar
    13    6    9 ar
    14    6   23 1
    15    7    8 ar
    16    7   14 ar
    17    7   24 1
    18    8   12 1
    19    9   11 ar
    20    9   13 1
    21   10   16 1
    22   11   14 ar
    23   11   16 1
    24   12   15 2
    25   12   25 1
    26   13   26 1
    27   13   27 1
    28   13   28 1
    29   15   17 1
    30   16   29 1
    31   17   30 1
