@<TRIPOS>MOLECULE
*****
   21    22     0     0     0
SMALL
NO_CHARGES

@<TRIPOS>ATOM
      1 C1         -1.9034   -1.8097    2.2324 C.2       1 <0>         0.0000
      2 C2         -3.1930   -2.2100    2.6996 C.2       1 <0>         0.0000
      3 C3         -2.1044   -1.1739    1.0316 C.2       1 <0>         0.0000
      4 C4         -4.0740   -1.7817    1.7434 C.2       1 <0>         0.0000
      5 C5          1.0477    0.2007   -0.0495 C.2       1 <0>         0.0000
      6 C6         -1.1247    1.0414    0.2324 C.3       1 <0>         0.0000
      7 C7         -1.1895   -0.5031    0.0617 C.3       1 <0>         0.0000
      8 N1          0.2317    1.3111   -0.2317 N.am      1 <0>         0.0000
      9 N2          0.2043   -0.8698    0.2873 N.am      1 <0>         0.0000
     10 N3         -5.4954   -1.8968    1.6627 N.pl3     1 <0>         0.0000
     11 O1         -6.0480   -2.4814    2.6070 O.3       1 <0>         0.0000
     12 O2          2.2607    0.1512   -0.1612 O.2       1 <0>         0.0000
     13 O3         -6.0638   -1.4134    0.6774 O.2       1 <0>         0.0000
     14 O4         -3.4346   -1.1526    0.7197 O.3       1 <0>         0.0000
     15 H1         -0.9466   -1.9631    2.7116 H         1 <0>         0.0000
     16 H2         -3.4503   -2.7387    3.6063 H         1 <0>         0.0000
     17 H3         -1.8799    1.5448   -0.3745 H         1 <0>         0.0000
     18 H4         -1.2686    1.3118    1.2868 H         1 <0>         0.0000
     19 H5         -1.5209   -0.7365   -0.9604 H         1 <0>         0.0000
     20 H6          0.6613    2.2168   -0.0885 H         1 <0>         0.0000
     21 H7          0.5290   -1.7840   -0.0063 H         1 <0>         0.0000
@<TRIPOS>BOND
     1    1    2 1
     2    1    3 2
     3    1   15 1
     4    2    4 2
     5    2   16 1
     6    3    7 1
     7    3   14 1
     8    4   10 1
     9    4   14 1
    10    5    8 am
    11    5    9 am
    12    5   12 2
    13    6    7 1
    14    6    8 1
    15    6   17 1
    16    6   18 1
    17    7    9 1
    18    7   19 1
    19    8   20 1
    20    9   21 1
    21   10   11 1
    22   10   13 2
