@<TRIPOS>MOLECULE
*****
   36    38     0     0     0
SMALL
NO_CHARGES

@<TRIPOS>ATOM
      1 C1          4.6151   -2.7284    1.3038 C.1       1 <0>         0.0000
      2 C2         -2.0938   -1.7312    2.0249 C.1       1 <0>         0.0000
      3 C3         -7.5075    2.7092    5.3994 C.ar      1 <0>         0.0000
      4 C4         -8.5330    1.8231    5.0556 C.ar      1 <0>         0.0000
      5 C5          2.1528   -2.6733    1.2517 C.ar      1 <0>         0.0000
      6 C6          3.3586   -1.2257    2.7938 C.ar      1 <0>         0.0000
      7 C7         -6.1838    2.3311    5.1940 C.ar      1 <0>         0.0000
      8 C8          0.9436   -2.1708    1.7148 C.ar      1 <0>         0.0000
      9 C9          2.1458   -0.7277    3.2523 C.ar      1 <0>         0.0000
     10 C10        -8.2201    0.5732    4.5182 C.ar      1 <0>         0.0000
     11 C11         3.3677   -2.2058    1.7862 C.ar      1 <0>         0.0000
     12 C12        -5.8657    1.0734    4.6472 C.ar      1 <0>         0.0000
     13 C13         0.9158   -1.1850    2.7273 C.ar      1 <0>         0.0000
     14 C14        -6.8949    0.1657    4.3013 C.ar      1 <0>         0.0000
     15 C15        -4.4394    0.7560    4.4658 C.2       1 <0>         0.0000
     16 C16        -2.6502   -0.0657    3.7176 C.2       1 <0>         0.0000
     17 C17        -0.2906   -0.5908    3.2844 C.2       1 <0>         0.0000
     18 C18        -1.6083   -0.8027    3.0043 C.2       1 <0>         0.0000
     19 C19        -6.6389   -1.2117    3.7333 C.3       1 <0>         0.0000
     20 N1          5.6283   -3.1515    0.9133 N.1       1 <0>         0.0000
     21 N2         -2.4818   -2.4890    1.2299 N.1       1 <0>         0.0000
     22 N3         -3.9397   -0.1511    3.5445 N.2       1 <0>         0.0000
     23 N4         -3.4993    1.3598    5.1739 N.2       1 <0>         0.0000
     24 O1         -2.2977    0.8189    4.6721 O.3       1 <0>         0.0000
     25 H1         -7.7370    3.6855    5.8171 H         1 <0>         0.0000
     26 H2         -9.5727    2.1027    5.2054 H         1 <0>         0.0000
     27 H3          2.1656   -3.4303    0.4738 H         1 <0>         0.0000
     28 H4          4.2958   -0.8654    3.2058 H         1 <0>         0.0000
     29 H5         -5.3764    3.0110    5.4472 H         1 <0>         0.0000
     30 H6          0.0255   -2.5491    1.2851 H         1 <0>         0.0000
     31 H7          2.1432    0.0299    4.0315 H         1 <0>         0.0000
     32 H8         -9.0241   -0.1121    4.2615 H         1 <0>         0.0000
     33 H9         -0.1087    0.1509    4.0582 H         1 <0>         0.0000
     34 H10        -6.2223   -1.1594    2.7245 H         1 <0>         0.0000
     35 H11        -5.9183   -1.7725    4.3350 H         1 <0>         0.0000
     36 H12        -7.5713   -1.7808    3.6965 H         1 <0>         0.0000
@<TRIPOS>BOND
     1    1   11 1
     2    1   20 3
     3    2   18 1
     4    2   21 3
     5    3    4 ar
     6    3    7 ar
     7    3   25 1
     8    4   10 ar
     9    4   26 1
    10    5    8 ar
    11    5   11 ar
    12    5   27 1
    13    6    9 ar
    14    6   11 ar
    15    6   28 1
    16    7   12 ar
    17    7   29 1
    18    8   13 ar
    19    8   30 1
    20    9   13 ar
    21    9   31 1
    22   10   14 ar
    23   10   32 1
    24   12   14 ar
    25   12   15 1
    26   13   17 1
    27   14   19 1
    28   15   22 1
    29   15   23 2
    30   16   18 1
    31   16   22 2
    32   16   24 1
    33   17   18 2
    34   17   33 1
    35   19   34 1
    36   19   35 1
    37   19   36 1
    38   23   24 1
