@<TRIPOS>MOLECULE
*****
   25    26     0     0     0
SMALL
NO_CHARGES

@<TRIPOS>ATOM
      1 C1         -0.2666    2.2290    1.6991 C.3       1 <0>         0.0000
      2 C2          0.0309    0.7737    2.1183 C.3       1 <0>         0.0000
      3 C3         -1.1100   -1.1993    0.9026 C.3       1 <0>         0.0000
      4 C4          1.2876   -0.7111    0.4467 C.3       1 <0>         0.0000
      5 C5         -0.0001    2.2092    0.1830 C.3       1 <0>         0.0000
      6 C6         -1.1008   -2.0963   -0.3388 C.3       1 <0>         0.0000
      7 C7          1.1713   -1.6263   -0.7715 C.3       1 <0>         0.0000
      8 C8         -0.0713   -0.0712    0.8030 C.3       1 <0>         0.0000
      9 N1         -0.4431    0.8837   -0.2795 N.3       1 <0>         0.0000
     10 O1          0.1918   -2.6502   -0.5706 O.3       1 <0>         0.0000
     11 H1         -1.3188    2.4762    1.8829 H         1 <0>         0.0000
     12 H2          0.3431    2.9621    2.2369 H         1 <0>         0.0000
     13 H3          1.0357    0.6882    2.5451 H         1 <0>         0.0000
     14 H4         -0.6707    0.4161    2.8783 H         1 <0>         0.0000
     15 H5         -2.1135   -0.7782    1.0566 H         1 <0>         0.0000
     16 H6         -0.8789   -1.8140    1.7799 H         1 <0>         0.0000
     17 H7          1.6472   -1.2918    1.3050 H         1 <0>         0.0000
     18 H8          2.0283    0.0727    0.2469 H         1 <0>         0.0000
     19 H9         -0.5171    2.9984   -0.3706 H         1 <0>         0.0000
     20 H10         1.0724    2.3174   -0.0192 H         1 <0>         0.0000
     21 H11        -1.7760   -2.9469   -0.2080 H         1 <0>         0.0000
     22 H12        -1.4286   -1.5301   -1.2240 H         1 <0>         0.0000
     23 H13         0.9104   -1.0303   -1.6570 H         1 <0>         0.0000
     24 H14         2.1130   -2.1480   -0.9628 H         1 <0>         0.0000
     25 H15        -1.4603    0.9048   -0.3485 H         1 <0>         0.0000
@<TRIPOS>BOND
     1    1    2 1
     2    1    5 1
     3    1   11 1
     4    1   12 1
     5    2    8 1
     6    2   13 1
     7    2   14 1
     8    3    6 1
     9    3    8 1
    10    3   15 1
    11    3   16 1
    12    4    7 1
    13    4    8 1
    14    4   17 1
    15    4   18 1
    16    5    9 1
    17    5   19 1
    18    5   20 1
    19    6   10 1
    20    6   21 1
    21    6   22 1
    22    7   10 1
    23    7   23 1
    24    7   24 1
    25    8    9 1
    26    9   25 1
