@<TRIPOS>MOLECULE
*****
   31    33     0     0     0
SMALL
NO_CHARGES

@<TRIPOS>ATOM
      1 C1          3.2052   -3.1804    1.8855 C.ar      1 <0>         0.0000
      2 C2          3.5106   -1.8271    2.0766 C.ar      1 <0>         0.0000
      3 C3          2.1791   -3.5801    1.0195 C.ar      1 <0>         0.0000
      4 C4         -1.6732   -7.2211   -2.9544 C.ar      1 <0>         0.0000
      5 C5         -2.7425   -5.4557   -1.6931 C.ar      1 <0>         0.0000
      6 C6          2.7900   -0.8321    1.4008 C.ar      1 <0>         0.0000
      7 C7         -2.8305   -7.3954   -3.7105 C.ar      1 <0>         0.0000
      8 C8         -3.9106   -5.6291   -2.4356 C.ar      1 <0>         0.0000
      9 C9          1.4579   -2.5907    0.3422 C.ar      1 <0>         0.0000
     10 C10        -1.6003   -6.2390   -1.9497 C.ar      1 <0>         0.0000
     11 C11         1.7803   -1.2471    0.5498 C.ar      1 <0>         0.0000
     12 C12        -3.9434   -6.5913   -3.4479 C.ar      1 <0>         0.0000
     13 C13         0.3249   -2.6742   -0.6265 C.2       1 <0>         0.0000
     14 C14        -0.3487   -6.1172   -1.1748 C.2       1 <0>         0.0000
     15 N1         -0.1598   -1.5622   -1.1050 N.2       1 <0>         0.0000
     16 N2          0.2510   -5.0633   -0.7335 N.2       1 <0>         0.0000
     17 N3         -0.2709   -3.8383   -1.0231 N.pl3     1 <0>         0.0000
     18 O1         -0.2281    0.5324    0.4112 O.2       1 <0>         0.0000
     19 O2          1.4185    0.4470   -1.5069 O.2       1 <0>         0.0000
     20 S1          0.6731   -0.2339   -0.4491 S.o2      1 <0>         0.0000
     21 Cl1        -5.4023   -6.8036   -4.3899 Cl        1 <0>         0.0000
     22 H1          3.7747   -3.9370    2.4179 H         1 <0>         0.0000
     23 H2          4.3118   -1.5443    2.7537 H         1 <0>         0.0000
     24 H3          1.9482   -4.6260    0.8700 H         1 <0>         0.0000
     25 H4         -0.8088   -7.8496   -3.1538 H         1 <0>         0.0000
     26 H5         -2.7447   -4.7350   -0.8806 H         1 <0>         0.0000
     27 H6          3.0124    0.2218    1.5382 H         1 <0>         0.0000
     28 H7         -2.8740   -8.1470   -4.4922 H         1 <0>         0.0000
     29 H8         -4.7896   -5.0281   -2.2265 H         1 <0>         0.0000
     30 H9          0.1799   -7.0424   -0.9495 H         1 <0>         0.0000
     31 H10        -0.9989   -3.7312   -1.7301 H         1 <0>         0.0000
@<TRIPOS>BOND
     1    1    2 ar
     2    1    3 ar
     3    1   22 1
     4    2    6 ar
     5    2   23 1
     6    3    9 ar
     7    3   24 1
     8    4    7 ar
     9    4   10 ar
    10    4   25 1
    11    5    8 ar
    12    5   10 ar
    13    5   26 1
    14    6   11 ar
    15    6   27 1
    16    7   12 ar
    17    7   28 1
    18    8   12 ar
    19    8   29 1
    20    9   11 ar
    21    9   13 1
    22   10   14 1
    23   11   20 1
    24   12   21 1
    25   13   15 2
    26   13   17 1
    27   14   16 2
    28   14   30 1
    29   15   20 1
    30   16   17 1
    31   17   31 1
    32   18   20 2
    33   19   20 2
