@<TRIPOS>MOLECULE
*****
   25    26     0     0     0
SMALL
NO_CHARGES

@<TRIPOS>ATOM
      1 C1          1.5266   -1.9383    0.2290 C.ar      1 <0>         0.0000
      2 C2          0.4362   -1.3314    0.8379 C.ar      1 <0>         0.0000
      3 C3          1.9537   -0.0864    2.2713 C.ar      1 <0>         0.0000
      4 C4          3.9655   -6.0886   -3.9687 C.2       1 <0>         0.0000
      5 C5          2.8531   -1.6543    0.6139 C.ar      1 <0>         0.0000
      6 C6          0.6603   -0.4042    1.8620 C.ar      1 <0>         0.0000
      7 C7          3.0331   -0.7124    1.6450 C.ar      1 <0>         0.0000
      8 C8          4.7317   -4.5983   -2.5900 C.2       1 <0>         0.0000
      9 C9          3.9863   -2.3068   -0.0467 C.2       1 <0>         0.0000
     10 N1          4.9974   -5.5219   -4.5419 N.2       1 <0>         0.0000
     11 N2          5.4846   -4.5532   -3.6637 N.2       1 <0>         0.0000
     12 N3          3.8025   -3.2708   -0.8805 N.2       1 <0>         0.0000
     13 N4          3.7523   -5.5517   -2.7187 N.pl3     1 <0>         0.0000
     14 N5          2.7831   -5.9857   -1.7947 N.3       1 <0>         0.0000
     15 N6          4.9222   -3.8464   -1.4341 N.pl3     1 <0>         0.0000
     16 Cl1        -0.6995    0.3758    2.6386 Cl        1 <0>         0.0000
     17 Cl2         4.6427   -0.2815    2.2080 Cl        1 <0>         0.0000
     18 H1          1.3686   -2.6447   -0.5792 H         1 <0>         0.0000
     19 H2         -0.5761   -1.5619    0.5227 H         1 <0>         0.0000
     20 H3          2.1228    0.6333    3.0643 H         1 <0>         0.0000
     21 H4          3.3353   -6.8647   -4.3812 H         1 <0>         0.0000
     22 H5          4.9909   -1.9476    0.1922 H         1 <0>         0.0000
     23 H6          2.3381   -5.1498   -1.4167 H         1 <0>         0.0000
     24 H7          3.2718   -6.4386   -1.0207 H         1 <0>         0.0000
     25 H8          5.7699   -3.2786   -1.4794 H         1 <0>         0.0000
@<TRIPOS>BOND
     1    1    2 ar
     2    1    5 ar
     3    1   18 1
     4    2    6 ar
     5    2   19 1
     6    3    6 ar
     7    3    7 ar
     8    3   20 1
     9    4   10 2
    10    4   13 1
    11    4   21 1
    12    5    7 ar
    13    5    9 1
    14    6   16 1
    15    7   17 1
    16    8   11 2
    17    8   13 1
    18    8   15 1
    19    9   12 2
    20    9   22 1
    21   10   11 1
    22   12   15 1
    23   13   14 1
    24   14   23 1
    25   14   24 1
    26   15   25 1
