@<TRIPOS>MOLECULE
*****
   39    41     0     0     0
SMALL
NO_CHARGES

@<TRIPOS>ATOM
      1 C1         -1.9388   -0.8085    0.4661 C.ar      1 <0>         0.0000
      2 C2         -0.7382   -1.1866   -0.1542 C.ar      1 <0>         0.0000
      3 C3         -2.7215   -1.7467    1.1475 C.ar      1 <0>         0.0000
      4 C4         -0.2913   -2.5135   -0.1081 C.ar      1 <0>         0.0000
      5 C5         -4.0768   -9.3780    1.6797 C.2       1 <0>         0.0000
      6 C6         -2.2832   -3.0688    1.1912 C.ar      1 <0>         0.0000
      7 C7         -4.3369   -8.3314    0.7254 C.2       1 <0>         0.0000
      8 C8         -1.0920   -3.4258    0.5652 C.ar      1 <0>         0.0000
      9 C9         -4.8191  -10.4757    1.3179 C.2       1 <0>         0.0000
     10 C10        -5.2514   -8.8416   -0.2041 C.2       1 <0>         0.0000
     11 C11        -2.9816   -4.2072    1.8540 C.2       1 <0>         0.0000
     12 C12        -3.7633   -6.9916    0.7178 C.2       1 <0>         0.0000
     13 C13        -4.9251  -11.8238    1.9567 C.3       1 <0>         0.0000
     14 C14        -5.8781   -8.1985   -1.3990 C.3       1 <0>         0.0000
     15 C15        -6.4804  -11.0047   -0.5097 C.3       1 <0>         0.0000
     16 C16        -2.7869   -6.6784    1.8748 C.3       1 <0>         0.0000
     17 N1         -5.5246  -10.1366    0.1610 N.pl3     1 <0>         0.0000
     18 N2         -2.2010   -5.3593    1.7359 N.am      1 <0>         0.0000
     19 O1         -4.0487   -4.1627    2.4418 O.2       1 <0>         0.0000
     20 O2         -4.0143   -6.1188   -0.1087 O.2       1 <0>         0.0000
     21 O3         -0.8582   -5.9394   -0.4353 O.2       1 <0>         0.0000
     22 O4          0.3996   -5.3621    1.6664 O.2       1 <0>         0.0000
     23 S1         -0.7630   -5.1655    0.8003 S.o2      1 <0>         0.0000
     24 H1         -2.2620    0.2274    0.4149 H         1 <0>         0.0000
     25 H2         -0.1458   -0.4421   -0.6785 H         1 <0>         0.0000
     26 H3         -3.6531   -1.4740    1.6340 H         1 <0>         0.0000
     27 H4          0.6375   -2.8144   -0.5829 H         1 <0>         0.0000
     28 H5         -3.4172   -9.3363    2.5367 H         1 <0>         0.0000
     29 H6         -5.9547  -12.0688    2.2445 H         1 <0>         0.0000
     30 H7         -4.5643  -12.6260    1.3008 H         1 <0>         0.0000
     31 H8         -4.3150  -11.8417    2.8626 H         1 <0>         0.0000
     32 H9         -5.5727   -8.6948   -2.3290 H         1 <0>         0.0000
     33 H10        -6.9730   -8.2346   -1.3476 H         1 <0>         0.0000
     34 H11        -5.5627   -7.1577   -1.4497 H         1 <0>         0.0000
     35 H12        -7.4895  -10.8755   -0.1018 H         1 <0>         0.0000
     36 H13        -6.5025  -10.7799   -1.5768 H         1 <0>         0.0000
     37 H14        -6.1836  -12.0471   -0.3860 H         1 <0>         0.0000
     38 H15        -1.9878   -7.4221    1.9219 H         1 <0>         0.0000
     39 H16        -3.3271   -6.7092    2.8250 H         1 <0>         0.0000
@<TRIPOS>BOND
     1    1    2 ar
     2    1    3 ar
     3    1   24 1
     4    2    4 ar
     5    2   25 1
     6    3    6 ar
     7    3   26 1
     8    4    8 ar
     9    4   27 1
    10    5    7 1
    11    5    9 2
    12    5   28 1
    13    6    8 ar
    14    6   11 1
    15    7   10 2
    16    7   12 1
    17    8   23 1
    18    9   13 1
    19    9   17 1
    20   10   14 1
    21   10   17 1
    22   11   18 am
    23   11   19 2
    24   12   16 1
    25   12   20 2
    26   13   29 1
    27   13   30 1
    28   13   31 1
    29   14   32 1
    30   14   33 1
    31   14   34 1
    32   15   17 1
    33   15   35 1
    34   15   36 1
    35   15   37 1
    36   16   18 1
    37   16   38 1
    38   16   39 1
    39   18   23 1
    40   21   23 2
    41   22   23 2
