@<TRIPOS>MOLECULE
*****
   55    57     0     0     0
SMALL
NO_CHARGES

@<TRIPOS>ATOM
      1 C1          0.7254  -11.1071    3.7654 C.ar      1 <0>         0.0000
      2 C2          0.0063  -10.8990    4.9649 C.ar      1 <0>         0.0000
      3 C3          0.8413  -10.0855    2.8443 C.ar      1 <0>         0.0000
      4 C4         -0.5632   -9.6708    5.2289 C.ar      1 <0>         0.0000
      5 C5          1.4022   -7.3255   -2.6336 C.ar      1 <0>         0.0000
      6 C6          3.1527   -7.9632   -1.1097 C.ar      1 <0>         0.0000
      7 C7         -0.2227   -6.5204    2.3973 C.ar      1 <0>         0.0000
      8 C8          2.1909   -7.7155   -3.7167 C.ar      1 <0>         0.0000
      9 C9          3.9572   -8.3640   -2.1815 C.ar      1 <0>         0.0000
     10 C10        -0.8795   -6.2927    3.6297 C.ar      1 <0>         0.0000
     11 C11         0.2441   -8.8155    3.0687 C.ar      1 <0>         0.0000
     12 C12        -0.4569   -8.5988    4.3023 C.ar      1 <0>         0.0000
     13 C13         1.8721   -7.4367   -1.3181 C.ar      1 <0>         0.0000
     14 C14         0.3307   -7.7545    2.1000 C.ar      1 <0>         0.0000
     15 C15         3.4665   -8.2306   -3.4823 C.ar      1 <0>         0.0000
     16 C16        -1.0062   -7.3041    4.5497 C.ar      1 <0>         0.0000
     17 C17         6.0726   -5.7199   -7.2977 C.3       1 <0>         0.0000
     18 C18         6.8522   -9.0046   -8.8674 C.3       1 <0>         0.0000
     19 C19         1.0293   -6.9854   -0.1446 C.3       1 <0>         0.0000
     20 C20         6.5473   -6.9538   -6.5427 C.3       1 <0>         0.0000
     21 C21         5.5365   -8.5826   -8.2302 C.3       1 <0>         0.0000
     22 C22         6.0342   -9.3214   -5.8691 C.3       1 <0>         0.0000
     23 C23         5.5248   -9.0548   -4.4554 C.3       1 <0>         0.0000
     24 N1          1.0130   -8.0071    0.8939 N.pl3     1 <0>         0.0000
     25 N2          5.6652   -8.1663   -6.7746 N.4       1 <0>         0.0000
     26 O1          4.1908   -8.5983   -4.6205 O.3       1 <0>         0.0000
     27 Cl1        -1.8619   -6.9762    6.0507 Cl        1 <0>         0.0000
     28 H1          1.1957  -12.0681    3.5751 H         1 <0>         0.0000
     29 H2         -0.0867  -11.7057    5.6868 H         1 <0>         0.0000
     30 H3          1.4293  -10.2526    1.9472 H         1 <0>         0.0000
     31 H4         -1.0999   -9.5092    6.1570 H         1 <0>         0.0000
     32 H5          0.4057   -6.9329   -2.8194 H         1 <0>         0.0000
     33 H6          3.5216   -8.0681   -0.0936 H         1 <0>         0.0000
     34 H7         -0.1827   -5.7042    1.6854 H         1 <0>         0.0000
     35 H8          1.8198   -7.6383   -4.7349 H         1 <0>         0.0000
     36 H9          4.9409   -8.7742   -1.9794 H         1 <0>         0.0000
     37 H10        -1.3036   -5.3154    3.8369 H         1 <0>         0.0000
     38 H11         6.1988   -5.8110   -8.3786 H         1 <0>         0.0000
     39 H12         5.0248   -5.4902   -7.0787 H         1 <0>         0.0000
     40 H13         6.6696   -4.8652   -6.9696 H         1 <0>         0.0000
     41 H14         7.5708   -8.1836   -8.9251 H         1 <0>         0.0000
     42 H15         7.3158   -9.8467   -8.3473 H         1 <0>         0.0000
     43 H16         6.6458   -9.3279   -9.8910 H         1 <0>         0.0000
     44 H17         1.4697   -6.0766    0.2820 H         1 <0>         0.0000
     45 H18         0.0204   -6.7138   -0.4938 H         1 <0>         0.0000
     46 H19         6.5281   -6.7712   -5.4678 H         1 <0>         0.0000
     47 H20         7.5623   -7.2410   -6.8198 H         1 <0>         0.0000
     48 H21         4.8102   -9.3983   -8.2386 H         1 <0>         0.0000
     49 H22         5.0907   -7.7382   -8.7565 H         1 <0>         0.0000
     50 H23         5.5485  -10.2086   -6.2779 H         1 <0>         0.0000
     51 H24         7.1153   -9.4614   -5.8898 H         1 <0>         0.0000
     52 H25         5.5677   -9.9913   -3.8872 H         1 <0>         0.0000
     53 H26         6.1321   -8.3083   -3.9295 H         1 <0>         0.0000
     54 H27         0.7933   -8.9209    0.5106 H         1 <0>         0.0000
     55 H28         4.7204   -7.9059   -6.4540 H         1 <0>         0.0000
@<TRIPOS>BOND
     1    1    2 ar
     2    1    3 ar
     3    1   28 1
     4    2    4 ar
     5    2   29 1
     6    3   11 ar
     7    3   30 1
     8    4   12 ar
     9    4   31 1
    10    5    8 ar
    11    5   13 ar
    12    5   32 1
    13    6    9 ar
    14    6   13 ar
    15    6   33 1
    16    7   10 ar
    17    7   14 ar
    18    7   34 1
    19    8   15 ar
    20    8   35 1
    21    9   15 ar
    22    9   36 1
    23   10   16 ar
    24   10   37 1
    25   11   12 ar
    26   11   14 ar
    27   12   16 ar
    28   13   19 1
    29   14   24 1
    30   15   26 1
    31   16   27 1
    32   17   20 1
    33   17   38 1
    34   17   39 1
    35   17   40 1
    36   18   21 1
    37   18   41 1
    38   18   42 1
    39   18   43 1
    40   19   24 1
    41   19   44 1
    42   19   45 1
    43   20   25 1
    44   20   46 1
    45   20   47 1
    46   21   25 1
    47   21   48 1
    48   21   49 1
    49   22   23 1
    50   22   25 1
    51   22   50 1
    52   22   51 1
    53   23   26 1
    54   23   52 1
    55   23   53 1
    56   24   54 1
    57   25   55 1
