@<TRIPOS>MOLECULE
*****
   68    72     0     0     0
SMALL
NO_CHARGES

@<TRIPOS>ATOM
      1 C1          5.3542    7.6758   -6.1863 C.ar      1 <0>         0.0000
      2 C2          4.6713    8.2386   -5.1033 C.ar      1 <0>         0.0000
      3 C3          5.7872    6.3458   -6.1248 C.ar      1 <0>         0.0000
      4 C4        -10.7342   -5.9003   -2.2452 C.ar      1 <0>         0.0000
      5 C5         -0.9508    0.6998   -0.0786 C.ar      1 <0>         0.0000
      6 C6          0.3913    4.1556    0.1997 C.ar      1 <0>         0.0000
      7 C7          1.5953    2.2354   -0.6453 C.ar      1 <0>         0.0000
      8 C8          4.4343    7.4794   -3.9549 C.ar      1 <0>         0.0000
      9 C9          5.5415    5.5822   -4.9839 C.ar      1 <0>         0.0000
     10 C10        -9.6642   -5.0528   -2.5389 C.ar      1 <0>         0.0000
     11 C11        -2.1482   -0.0006   -0.1683 C.ar      1 <0>         0.0000
     12 C12         1.5818    4.8719    0.2909 C.ar      1 <0>         0.0000
     13 C13         2.7972    2.9337   -0.5559 C.ar      1 <0>         0.0000
     14 C14        -2.0864    2.7124   -0.7504 C.ar      1 <0>         0.0000
     15 C15       -10.7115   -6.6241   -1.0495 C.ar      1 <0>         0.0000
     16 C16        -8.6824   -5.7442   -0.4663 C.ar      1 <0>         0.0000
     17 C17         0.3745    2.8288   -0.2723 C.ar      1 <0>         0.0000
     18 C18        -0.8961    2.0757   -0.3707 C.ar      1 <0>         0.0000
     19 C19         4.8741    6.1479   -3.8871 C.ar      1 <0>         0.0000
     20 C20        -3.3028    2.0312   -0.8533 C.ar      1 <0>         0.0000
     21 C21        -8.6082   -4.9627   -1.6273 C.ar      1 <0>         0.0000
     22 C22        -3.3212    0.6578   -0.5592 C.ar      1 <0>         0.0000
     23 C23         2.7734    4.2510   -0.0927 C.ar      1 <0>         0.0000
     24 C24         4.6472    5.2687   -2.6963 C.2       1 <0>         0.0000
     25 C25        -4.5745    2.7421   -1.2646 C.3       1 <0>         0.0000
     26 C26        -5.8058    1.9251   -0.8619 C.3       1 <0>         0.0000
     27 C27        -5.6105    0.4713   -1.2773 C.3       1 <0>         0.0000
     28 C28        -6.7863   -0.4260   -0.9268 C.3       1 <0>         0.0000
     29 C29        -7.6227   -2.7287   -1.0337 C.3       1 <0>         0.0000
     30 C30        -7.4444   -4.0247   -1.8463 C.3       1 <0>         0.0000
     31 N1         -9.7041   -6.5566   -0.1666 N.ar      1 <0>         0.0000
     32 N2          4.4264    5.9360   -1.4946 N.am      1 <0>         0.0000
     33 N3         -6.5570   -1.7915   -1.4005 N.3       1 <0>         0.0000
     34 O1          4.6386    4.0469   -2.7653 O.2       1 <0>         0.0000
     35 O2          5.4038    4.2355    0.2209 O.2       1 <0>         0.0000
     36 O3          4.1044    6.3133    0.9297 O.2       1 <0>         0.0000
     37 O4         -4.4641   -0.1009   -0.6061 O.3       1 <0>         0.0000
     38 O5         -7.3319   -3.6993   -3.2259 O.3       1 <0>         0.0000
     39 S1          4.2966    5.1637    0.0415 S.o2      1 <0>         0.0000
     40 H1          5.5422    8.2692   -7.0772 H         1 <0>         0.0000
     41 H2          4.3182    9.2649   -5.1550 H         1 <0>         0.0000
     42 H3          6.3135    5.9056   -6.9674 H         1 <0>         0.0000
     43 H4        -11.5716   -6.0050   -2.9298 H         1 <0>         0.0000
     44 H5         -0.0557    0.1797    0.2504 H         1 <0>         0.0000
     45 H6         -0.5324    4.6192    0.5332 H         1 <0>         0.0000
     46 H7          1.6025    1.2227   -1.0372 H         1 <0>         0.0000
     47 H8          3.8719    7.9225   -3.1372 H         1 <0>         0.0000
     48 H9          5.8588    4.5461   -4.9210 H         1 <0>         0.0000
     49 H10        -9.6269   -4.4779   -3.4587 H         1 <0>         0.0000
     50 H11        -2.1975   -1.0594    0.0691 H         1 <0>         0.0000
     51 H12         1.5983    5.8852    0.6796 H         1 <0>         0.0000
     52 H13         3.7351    2.4834   -0.8591 H         1 <0>         0.0000
     53 H14        -2.0688    3.7713   -0.9993 H         1 <0>         0.0000
     54 H15       -11.5324   -7.2916   -0.7910 H         1 <0>         0.0000
     55 H16        -7.8689   -5.7186    0.2603 H         1 <0>         0.0000
     56 H17        -4.6090    3.7378   -0.8105 H         1 <0>         0.0000
     57 H18        -4.5768    2.8948   -2.3516 H         1 <0>         0.0000
     58 H19        -5.9548    1.9682    0.2231 H         1 <0>         0.0000
     59 H20        -6.7071    2.3242   -1.3384 H         1 <0>         0.0000
     60 H21        -5.4235    0.4117   -2.3588 H         1 <0>         0.0000
     61 H22        -7.6834   -0.0333   -1.4182 H         1 <0>         0.0000
     62 H23        -6.9559   -0.3777    0.1622 H         1 <0>         0.0000
     63 H24        -7.6589   -2.9555    0.0436 H         1 <0>         0.0000
     64 H25        -8.5838   -2.2806   -1.3094 H         1 <0>         0.0000
     65 H26        -6.5210   -4.5229   -1.5049 H         1 <0>         0.0000
     66 H27         4.6112    6.9305   -1.4040 H         1 <0>         0.0000
     67 H28        -5.6703   -2.1149   -1.0146 H         1 <0>         0.0000
     68 H29        -6.8466   -2.8500   -3.2377 H         1 <0>         0.0000
@<TRIPOS>BOND
     1    1    3 ar
     2    1    2 ar
     3    1   40 1
     4    2    8 ar
     5    2   41 1
     6    3    9 ar
     7    3   42 1
     8    4   10 ar
     9    4   15 ar
    10    4   43 1
    11    5   11 ar
    12    5   18 ar
    13    5   44 1
    14    6   12 ar
    15    6   17 ar
    16    6   45 1
    17    7   13 ar
    18    7   17 ar
    19    7   46 1
    20    8   19 ar
    21    8   47 1
    22    9   19 ar
    23    9   48 1
    24   10   21 ar
    25   10   49 1
    26   11   22 ar
    27   11   50 1
    28   12   23 ar
    29   12   51 1
    30   13   23 ar
    31   13   52 1
    32   14   18 ar
    33   14   20 ar
    34   14   53 1
    35   15   31 ar
    36   15   54 1
    37   16   21 ar
    38   16   31 ar
    39   16   55 1
    40   17   18 1
    41   19   24 1
    42   20   22 ar
    43   20   25 1
    44   21   30 1
    45   22   37 1
    46   23   39 1
    47   24   32 am
    48   24   34 2
    49   25   26 1
    50   25   56 1
    51   25   57 1
    52   26   27 1
    53   26   58 1
    54   26   59 1
    55   27   28 1
    56   27   37 1
    57   27   60 1
    58   28   33 1
    59   28   61 1
    60   28   62 1
    61   29   30 1
    62   29   33 1
    63   29   63 1
    64   29   64 1
    65   30   38 1
    66   30   65 1
    67   32   39 1
    68   32   66 1
    69   33   67 1
    70   35   39 2
    71   36   39 2
    72   38   68 1
