@<TRIPOS>MOLECULE
*****
   27    28     0     0     0
SMALL
NO_CHARGES

@<TRIPOS>ATOM
      1 C1          4.5529   -2.2275    6.0057 C.ar      1 <0>         0.0000
      2 C2         -1.2799   -4.2416    3.7611 C.ar      1 <0>         0.0000
      3 C3          4.3728   -0.8516    6.1880 C.ar      1 <0>         0.0000
      4 C4          3.8263   -2.9020    5.0184 C.ar      1 <0>         0.0000
      5 C5         -1.2604   -3.3979    2.6428 C.ar      1 <0>         0.0000
      6 C6         -0.8614   -3.7716    5.0101 C.ar      1 <0>         0.0000
      7 C7          3.4620   -0.1518    5.3928 C.ar      1 <0>         0.0000
      8 C8          2.9286   -2.2028    4.2076 C.ar      1 <0>         0.0000
      9 C9         -0.8147   -2.0809    2.7677 C.ar      1 <0>         0.0000
     10 C10        -0.4153   -2.4542    5.1499 C.ar      1 <0>         0.0000
     11 C11         2.7480   -0.8274    4.3951 C.ar      1 <0>         0.0000
     12 C12        -0.3955   -1.6324    4.0225 C.ar      1 <0>         0.0000
     13 N1          1.8051   -0.1478    3.5468 N.pl3     1 <0>         0.0000
     14 O1          0.2535    0.3735    5.6081 O.2       1 <0>         0.0000
     15 O2         -0.4503    0.9230    3.2194 O.2       1 <0>         0.0000
     16 S1          0.2179    0.0406    4.1799 S.o2      1 <0>         0.0000
     17 H1          5.2569   -2.7709    6.6304 H         1 <0>         0.0000
     18 H2         -1.6268   -5.2664    3.6577 H         1 <0>         0.0000
     19 H3          4.9305   -0.3262    6.9587 H         1 <0>         0.0000
     20 H4          3.9656   -3.9697    4.8718 H         1 <0>         0.0000
     21 H5         -1.5947   -3.7649    1.6764 H         1 <0>         0.0000
     22 H6         -0.8819   -4.4276    5.8758 H         1 <0>         0.0000
     23 H7          3.2880    0.9085    5.5546 H         1 <0>         0.0000
     24 H8          2.3678   -2.7068    3.4265 H         1 <0>         0.0000
     25 H9         -0.7942   -1.4075    1.9166 H         1 <0>         0.0000
     26 H10        -0.0867   -2.0637    6.1073 H         1 <0>         0.0000
     27 H11         2.1081    0.7838    3.2575 H         1 <0>         0.0000
@<TRIPOS>BOND
     1    1    4 ar
     2    1    3 ar
     3    1   17 1
     4    2    6 ar
     5    2    5 ar
     6    2   18 1
     7    3    7 ar
     8    3   19 1
     9    4    8 ar
    10    4   20 1
    11    5    9 ar
    12    5   21 1
    13    6   10 ar
    14    6   22 1
    15    7   11 ar
    16    7   23 1
    17    8   11 ar
    18    8   24 1
    19    9   12 ar
    20    9   25 1
    21   10   12 ar
    22   10   26 1
    23   11   13 1
    24   12   16 1
    25   13   16 1
    26   13   27 1
    27   14   16 2
    28   15   16 2
