@<TRIPOS>MOLECULE
*****
   56    57     0     0     0
SMALL
NO_CHARGES

@<TRIPOS>ATOM
      1 C1         -2.6808   -0.7916   -1.3669 C.2       1 <0>         0.0000
      2 C2         -1.6164    0.1593   -1.1371 C.2       1 <0>         0.0000
      3 C3         -0.6185   -0.3687   -0.3632 C.2       1 <0>         0.0000
      4 C4         -3.8992   -0.5937   -2.1327 C.2       1 <0>         0.0000
      5 C5         -2.4650   -2.0077   -0.7508 C.2       1 <0>         0.0000
      6 C6         -4.5003   -2.9634   -1.6016 C.2       1 <0>         0.0000
      7 C7         -1.6123    1.5633   -1.6744 C.3       1 <0>         0.0000
      8 C8         -8.4818   -0.8393   -2.6778 C.3       1 <0>         0.0000
      9 C9         -6.8459    0.2340   -1.1031 C.3       1 <0>         0.0000
     10 C10        -8.1020   -3.2161   -1.0882 C.3       1 <0>         0.0000
     11 C11         0.6342    0.2887    0.1440 C.3       1 <0>         0.0000
     12 C12        -2.1776   -5.2322   -1.2603 C.3       1 <0>         0.0000
     13 C13        -2.9980   -4.3848   -0.2813 C.3       1 <0>         0.0000
     14 C14        -6.0881   -1.5328   -2.7855 C.3       1 <0>         0.0000
     15 C15         1.1642    2.9999    2.7367 C.3       1 <0>         0.0000
     16 C16         1.5313    1.8941    1.7491 C.3       1 <0>         0.0000
     17 C17        -1.6936   -6.5267   -0.6335 C.3       1 <0>         0.0000
     18 C18        -7.2168   -1.0587   -1.8338 C.3       1 <0>         0.0000
     19 N1         -4.7884   -1.6983   -2.1182 N.am      1 <0>         0.0000
     20 N2         -3.3348   -3.0688   -0.8371 N.am      1 <0>         0.0000
     21 N3          2.3818    3.5587    3.3430 N.3       1 <0>         0.0000
     22 N4          0.3305    1.3313    1.1307 N.3       1 <0>         0.0000
     23 O1         -4.1832    0.4315   -2.7491 O.2       1 <0>         0.0000
     24 O2         -5.2065   -3.9458   -1.8025 O.2       1 <0>         0.0000
     25 O3         -7.4208   -2.0064   -0.7714 O.3       1 <0>         0.0000
     26 F1         -2.7878   -7.3001   -0.2059 F         1 <0>         0.0000
     27 S1         -0.9601   -2.0363    0.1156 S.3       1 <0>         0.0000
     28 H1         -2.5105    2.0973   -1.3526 H         1 <0>         0.0000
     29 H2         -0.7386    2.1114   -1.3192 H         1 <0>         0.0000
     30 H3         -1.6311    1.5586   -2.7681 H         1 <0>         0.0000
     31 H4         -8.7377   -1.7158   -3.2811 H         1 <0>         0.0000
     32 H5         -9.3305   -0.6077   -2.0272 H         1 <0>         0.0000
     33 H6         -8.3352    0.0044   -3.3588 H         1 <0>         0.0000
     34 H7         -6.0070    0.0598   -0.4243 H         1 <0>         0.0000
     35 H8         -7.6986    0.5636   -0.5025 H         1 <0>         0.0000
     36 H9         -6.5653    1.0220   -1.8043 H         1 <0>         0.0000
     37 H10        -8.0240   -3.8450   -0.1985 H         1 <0>         0.0000
     38 H11        -7.6366   -3.7519   -1.9215 H         1 <0>         0.0000
     39 H12        -9.1639   -3.0379   -1.3030 H         1 <0>         0.0000
     40 H13         1.3205   -0.4821    0.5402 H         1 <0>         0.0000
     41 H14         1.1636    0.7619   -0.6920 H         1 <0>         0.0000
     42 H15        -1.2958   -4.6725   -1.5953 H         1 <0>         0.0000
     43 H16        -2.7890   -5.4509   -2.1408 H         1 <0>         0.0000
     44 H17        -2.4511   -4.2206    0.6529 H         1 <0>         0.0000
     45 H18        -3.9326   -4.8883   -0.0406 H         1 <0>         0.0000
     46 H19        -6.3525   -2.4895   -3.2346 H         1 <0>         0.0000
     47 H20        -5.9502   -0.7949   -3.5756 H         1 <0>         0.0000
     48 H21         0.4436    2.6023    3.4742 H         1 <0>         0.0000
     49 H22         0.6510    3.7967    2.1899 H         1 <0>         0.0000
     50 H23         2.1625    2.3223    0.9629 H         1 <0>         0.0000
     51 H24         2.1433    1.1264    2.2624 H         1 <0>         0.0000
     52 H25        -1.0693   -6.3413    0.2482 H         1 <0>         0.0000
     53 H26        -1.1305   -7.1299   -1.3520 H         1 <0>         0.0000
     54 H27         2.8011    2.8743    3.9709 H         1 <0>         0.0000
     55 H28         2.1429    4.3656    3.9163 H         1 <0>         0.0000
     56 H29        -0.2749    0.9347    1.8479 H         1 <0>         0.0000
@<TRIPOS>BOND
     1    1    2 1
     2    1    5 2
     3    1    4 1
     4    2    3 2
     5    2    7 1
     6    3   11 1
     7    3   27 1
     8    4   19 am
     9    4   23 2
    10    5   20 1
    11    5   27 1
    12    6   20 am
    13    6   19 am
    14    6   24 2
    15    7   28 1
    16    7   29 1
    17    7   30 1
    18    8   18 1
    19    8   31 1
    20    8   32 1
    21    8   33 1
    22    9   18 1
    23    9   34 1
    24    9   35 1
    25    9   36 1
    26   10   25 1
    27   10   37 1
    28   10   38 1
    29   10   39 1
    30   11   22 1
    31   11   40 1
    32   11   41 1
    33   12   13 1
    34   12   17 1
    35   12   42 1
    36   12   43 1
    37   13   20 1
    38   13   44 1
    39   13   45 1
    40   14   18 1
    41   14   19 1
    42   14   46 1
    43   14   47 1
    44   15   16 1
    45   15   21 1
    46   15   48 1
    47   15   49 1
    48   16   22 1
    49   16   50 1
    50   16   51 1
    51   17   26 1
    52   17   52 1
    53   17   53 1
    54   18   25 1
    55   21   54 1
    56   21   55 1
    57   22   56 1
