@<TRIPOS>MOLECULE
*****
   49    51     0     0     0
SMALL
NO_CHARGES

@<TRIPOS>ATOM
      1 C1          0.4347   -1.5139    0.0110 C.ar      1 <0>         0.0000
      2 C2          0.5633   -2.0843    1.2834 C.ar      1 <0>         0.0000
      3 C3         -0.5630   -4.0903    0.5426 C.ar      1 <0>         0.0000
      4 C4         -3.9350   -7.0116   -0.4340 C.ar      1 <0>         0.0000
      5 C5         -5.2874   -6.7541   -0.1491 C.ar      1 <0>         0.0000
      6 C6         -0.1957   -2.2407   -0.9987 C.ar      1 <0>         0.0000
      7 C7         -0.6860   -3.5237   -0.7249 C.ar      1 <0>         0.0000
      8 C8          0.0690   -3.3692    1.5681 C.ar      1 <0>         0.0000
      9 C9         -5.7288   -5.4286   -0.4479 C.ar      1 <0>         0.0000
     10 C10        -3.6217   -4.9205   -1.2387 C.ar      1 <0>         0.0000
     11 C11        -6.1554   -7.8087    0.4349 C.2       1 <0>         0.0000
     12 C12        -0.4738   -1.8621   -2.4383 C.3       1 <0>         0.0000
     13 C13        -1.3774   -4.0996   -1.9491 C.3       1 <0>         0.0000
     14 C14        -0.8077   -3.2237   -3.1016 C.3       1 <0>         0.0000
     15 C15         0.1925   -3.9514    2.9584 C.3       1 <0>         0.0000
     16 C16        -1.6675   -3.1427   -4.3605 C.3       1 <0>         0.0000
     17 C17        -8.0472   -5.2716   -1.4118 C.3       1 <0>         0.0000
     18 C18        -6.4960  -10.0890    1.5218 C.3       1 <0>         0.0000
     19 C19        -7.1316   -4.9245   -0.2224 C.3       1 <0>         0.0000
     20 C20        -5.5057   -9.1262    0.8675 C.3       1 <0>         0.0000
     21 N1         -3.0906   -6.1336   -0.9671 N.ar      1 <0>         0.0000
     22 N2         -4.8935   -4.5370   -0.9810 N.ar      1 <0>         0.0000
     23 N3         -2.8355   -3.9874   -1.8365 N.pl3     1 <0>         0.0000
     24 O1         -7.3678   -7.6567    0.5760 O.2       1 <0>         0.0000
     25 H1          0.8310   -0.5191   -0.1817 H         1 <0>         0.0000
     26 H2          1.0622   -1.5234    2.0713 H         1 <0>         0.0000
     27 H3         -0.9527   -5.0882    0.7319 H         1 <0>         0.0000
     28 H4         -3.5039   -7.9867   -0.2202 H         1 <0>         0.0000
     29 H5         -1.3274   -1.1716   -2.5017 H         1 <0>         0.0000
     30 H6          0.3703   -1.3629   -2.9252 H         1 <0>         0.0000
     31 H7         -1.1634   -5.1573   -2.0996 H         1 <0>         0.0000
     32 H8          0.1502   -3.6881   -3.3646 H         1 <0>         0.0000
     33 H9         -0.6787   -3.6899    3.5716 H         1 <0>         0.0000
     34 H10         0.2558   -5.0433    2.9298 H         1 <0>         0.0000
     35 H11         1.0807   -3.5739    3.4741 H         1 <0>         0.0000
     36 H12        -2.6277   -2.6530   -4.1690 H         1 <0>         0.0000
     37 H13        -1.8811   -4.1400   -4.7589 H         1 <0>         0.0000
     38 H14        -1.1526   -2.5700   -5.1394 H         1 <0>         0.0000
     39 H15        -7.6505   -4.8501   -2.3412 H         1 <0>         0.0000
     40 H16        -9.0475   -4.8585   -1.2475 H         1 <0>         0.0000
     41 H17        -8.1428   -6.3541   -1.5237 H         1 <0>         0.0000
     42 H18        -6.9415   -9.6465    2.4167 H         1 <0>         0.0000
     43 H19        -7.3136  -10.3351    0.8399 H         1 <0>         0.0000
     44 H20        -5.9889  -11.0161    1.8079 H         1 <0>         0.0000
     45 H21        -7.5506   -5.3535    0.6880 H         1 <0>         0.0000
     46 H22        -7.0656   -3.8382   -0.1161 H         1 <0>         0.0000
     47 H23        -5.0499   -9.5956   -0.0140 H         1 <0>         0.0000
     48 H24        -4.6756   -8.9061    1.5503 H         1 <0>         0.0000
     49 H25        -3.2436   -3.0596   -1.8341 H         1 <0>         0.0000
@<TRIPOS>BOND
     1    1    2 ar
     2    1    6 ar
     3    1   25 1
     4    2    8 ar
     5    2   26 1
     6    3    7 ar
     7    3    8 ar
     8    3   27 1
     9    4    5 ar
    10    4   21 ar
    11    4   28 1
    12    5    9 ar
    13    5   11 1
    14    6    7 ar
    15    6   12 1
    16    7   13 1
    17    8   15 1
    18    9   19 1
    19    9   22 ar
    20   10   21 ar
    21   10   22 ar
    22   10   23 1
    23   11   20 1
    24   11   24 2
    25   12   14 1
    26   12   29 1
    27   12   30 1
    28   13   14 1
    29   13   23 1
    30   13   31 1
    31   14   16 1
    32   14   32 1
    33   15   33 1
    34   15   34 1
    35   15   35 1
    36   16   36 1
    37   16   37 1
    38   16   38 1
    39   17   19 1
    40   17   39 1
    41   17   40 1
    42   17   41 1
    43   18   20 1
    44   18   42 1
    45   18   43 1
    46   18   44 1
    47   19   45 1
    48   19   46 1
    49   20   47 1
    50   20   48 1
    51   23   49 1
