@<TRIPOS>MOLECULE
*****
   54    57     0     0     0
SMALL
NO_CHARGES

@<TRIPOS>ATOM
      1 C1         -2.5447   -0.5236   -1.8572 C.2       1 <0>         0.0000
      2 C2         -1.5203    0.4975   -1.8325 C.2       1 <0>         0.0000
      3 C3         -0.4329    0.1011   -1.1009 C.2       1 <0>         0.0000
      4 C4         -3.8455   -0.4630   -2.5040 C.2       1 <0>         0.0000
      5 C5         -2.1911   -1.6623   -1.1566 C.2       1 <0>         0.0000
      6 C6         -4.2868   -2.7606   -1.6115 C.2       1 <0>         0.0000
      7 C7          2.1317    2.2163   -2.5143 C.2       1 <0>         0.0000
      8 C8         -6.9251   -0.4191   -2.4177 C.3       1 <0>         0.0000
      9 C9         -7.1834   -1.8067   -1.8777 C.3       1 <0>         0.0000
     10 C10         2.7955    0.5996   -4.0743 C.3       1 <0>         0.0000
     11 C11         2.2069   -0.1098   -2.8373 C.3       1 <0>         0.0000
     12 C12        -6.0290   -1.5644   -2.8185 C.3       1 <0>         0.0000
     13 C13        -6.0742   -2.1049   -4.2322 C.3       1 <0>         0.0000
     14 C14        -1.3041    1.6697   -4.0639 C.3       1 <0>         0.0000
     15 C15        -0.3704   -5.3711   -2.9398 C.3       1 <0>         0.0000
     16 C16        -1.5998    1.8155   -2.5606 C.3       1 <0>         0.0000
     17 C17         0.8616    0.8405   -0.8851 C.3       1 <0>         0.0000
     18 C18        -2.5965   -3.9899   -0.3510 C.3       1 <0>         0.0000
     19 C19        -2.0584   -5.0313   -1.3210 C.3       1 <0>         0.0000
     20 N1         -4.6907   -1.5749   -2.2312 N.am      1 <0>         0.0000
     21 N2         -3.0207   -2.7537   -1.0197 N.am      1 <0>         0.0000
     22 N3          3.0199    1.9540   -3.5612 N.am      1 <0>         0.0000
     23 N4          1.6088    1.0019   -2.1166 N.am      1 <0>         0.0000
     24 O1         -4.2348    0.4508   -3.2253 O.2       1 <0>         0.0000
     25 O2         -4.9930   -3.7635   -1.5644 O.2       1 <0>         0.0000
     26 O3          1.8708    3.3157   -2.0376 O.2       1 <0>         0.0000
     27 O4         -0.8731   -4.5262   -1.9160 O.3       1 <0>         0.0000
     28 S1         -0.6085   -1.5314   -0.4597 S.3       1 <0>         0.0000
     29 H1         -7.5728   -0.0147   -3.1895 H         1 <0>         0.0000
     30 H2         -6.5187    0.3239   -1.7408 H         1 <0>         0.0000
     31 H3         -6.9520   -2.0001   -0.8360 H         1 <0>         0.0000
     32 H4         -8.0144   -2.3873   -2.2666 H         1 <0>         0.0000
     33 H5          3.7256    0.1364   -4.4128 H         1 <0>         0.0000
     34 H6          2.0733    0.5918   -4.9018 H         1 <0>         0.0000
     35 H7          1.4589   -0.8625   -3.1027 H         1 <0>         0.0000
     36 H8          2.9924   -0.5935   -2.2370 H         1 <0>         0.0000
     37 H9         -5.4357   -1.5067   -4.8893 H         1 <0>         0.0000
     38 H10        -7.0957   -2.0662   -4.6221 H         1 <0>         0.0000
     39 H11        -5.7415   -3.1475   -4.2531 H         1 <0>         0.0000
     40 H12        -0.3081    1.2438   -4.2213 H         1 <0>         0.0000
     41 H13        -1.3376    2.6490   -4.5526 H         1 <0>         0.0000
     42 H14        -2.0450    1.0243   -4.5421 H         1 <0>         0.0000
     43 H15         0.5294   -4.8947   -3.3352 H         1 <0>         0.0000
     44 H16        -1.1017   -5.4932   -3.7521 H         1 <0>         0.0000
     45 H17        -0.1086   -6.3654   -2.5480 H         1 <0>         0.0000
     46 H18        -2.6024    2.2326   -2.4380 H         1 <0>         0.0000
     47 H19        -0.8880    2.5186   -2.1195 H         1 <0>         0.0000
     48 H20         0.6733    1.8490   -0.5073 H         1 <0>         0.0000
     49 H21         1.4738    0.3222   -0.1325 H         1 <0>         0.0000
     50 H22        -3.4623   -4.4009    0.1696 H         1 <0>         0.0000
     51 H23        -1.8353   -3.7318    0.3891 H         1 <0>         0.0000
     52 H24        -2.8174   -5.2519   -2.0833 H         1 <0>         0.0000
     53 H25        -1.8505   -5.9606   -0.7660 H         1 <0>         0.0000
     54 H26         3.1415    2.7195   -4.2132 H         1 <0>         0.0000
@<TRIPOS>BOND
     1    1    2 1
     2    1    5 2
     3    1    4 1
     4    2    3 2
     5    2   16 1
     6    3   17 1
     7    3   28 1
     8    4   20 am
     9    4   24 2
    10    5   21 1
    11    5   28 1
    12    6   21 am
    13    6   20 am
    14    6   25 2
    15    7   22 am
    16    7   23 am
    17    7   26 2
    18    8    9 1
    19    8   12 1
    20    8   29 1
    21    8   30 1
    22    9   12 1
    23    9   31 1
    24    9   32 1
    25   10   11 1
    26   10   22 1
    27   10   33 1
    28   10   34 1
    29   11   23 1
    30   11   35 1
    31   11   36 1
    32   12   13 1
    33   12   20 1
    34   13   37 1
    35   13   38 1
    36   13   39 1
    37   14   16 1
    38   14   40 1
    39   14   41 1
    40   14   42 1
    41   15   27 1
    42   15   43 1
    43   15   44 1
    44   15   45 1
    45   16   46 1
    46   16   47 1
    47   17   23 1
    48   17   48 1
    49   17   49 1
    50   18   19 1
    51   18   21 1
    52   18   50 1
    53   18   51 1
    54   19   27 1
    55   19   52 1
    56   19   53 1
    57   22   54 1
