@<TRIPOS>MOLECULE
*****
   40    42     0     0     0
SMALL
NO_CHARGES

@<TRIPOS>ATOM
      1 C1         -0.0421   -2.6745   -1.2808 C.ar      1 <0>         0.0000
      2 C2          2.3096   -2.5491   -0.7883 C.ar      1 <0>         0.0000
      3 C3          0.2186   -3.4989   -2.3754 C.ar      1 <0>         0.0000
      4 C4          2.5902   -3.3739   -1.8805 C.ar      1 <0>         0.0000
      5 C5          1.8835   -5.4359    1.8598 C.2       1 <0>         0.0000
      6 C6          0.7778   -4.6847    1.5342 C.2       1 <0>         0.0000
      7 C7          2.2444   -3.4765    2.6666 C.2       1 <0>         0.0000
      8 C8          0.9972   -2.1781   -0.4816 C.ar      1 <0>         0.0000
      9 C9          1.5403   -3.8399   -2.6706 C.ar      1 <0>         0.0000
     10 C10        -1.1306    0.4462    1.5127 C.3       1 <0>         0.0000
     11 C11        -1.7575   -0.3054    0.3642 C.3       1 <0>         0.0000
     12 C12        -0.2508   -0.1566    0.4332 C.3       1 <0>         0.0000
     13 C13         0.5374    1.5955   -3.3330 C.3       1 <0>         0.0000
     14 C14         0.1839   -2.2476    1.8859 C.3       1 <0>         0.0000
     15 C15         0.3091    0.4568   -2.3386 C.3       1 <0>         0.0000
     16 C16         0.7106   -1.3233    0.7566 C.3       1 <0>         0.0000
     17 N1          2.7927   -4.6730    2.5679 N.2       1 <0>         0.0000
     18 N2          1.0108   -3.4265    2.0662 N.pl3     1 <0>         0.0000
     19 O1          1.9155   -0.7776    1.2949 O.3       1 <0>         0.0000
     20 S1          0.4898    1.1179   -0.6301 S.3       1 <0>         0.0000
     21 Cl1         1.8798   -4.8742   -4.0492 Cl        1 <0>         0.0000
     22 H1         -1.0724   -2.4117   -1.0677 H         1 <0>         0.0000
     23 H2          3.1191   -2.2058   -0.1542 H         1 <0>         0.0000
     24 H3         -0.5921   -3.8715   -2.9939 H         1 <0>         0.0000
     25 H4          3.6123   -3.6603   -2.1067 H         1 <0>         0.0000
     26 H5          2.0746   -6.4759    1.6286 H         1 <0>         0.0000
     27 H6         -0.1219   -4.9111    0.9804 H         1 <0>         0.0000
     28 H7          2.6810   -2.6080    3.1408 H         1 <0>         0.0000
     29 H8         -1.2264    1.5263    1.5320 H         1 <0>         0.0000
     30 H9         -1.1355   -0.0209    2.4912 H         1 <0>         0.0000
     31 H10        -2.1954   -1.2756    0.5793 H         1 <0>         0.0000
     32 H11        -2.2808    0.2611   -0.3995 H         1 <0>         0.0000
     33 H12        -0.1967    2.3958   -3.2003 H         1 <0>         0.0000
     34 H13         1.5371    2.0276   -3.2216 H         1 <0>         0.0000
     35 H14         0.4511    1.2146   -4.3561 H         1 <0>         0.0000
     36 H15         0.1769   -1.6820    2.8192 H         1 <0>         0.0000
     37 H16        -0.8319   -2.5814    1.6705 H         1 <0>         0.0000
     38 H17         1.0234   -0.3510   -2.4994 H         1 <0>         0.0000
     39 H18        -0.6992    0.0460   -2.4368 H         1 <0>         0.0000
     40 H19         2.1759   -0.0439    0.7046 H         1 <0>         0.0000
@<TRIPOS>BOND
     1    1    3 ar
     2    1    8 ar
     3    1   22 1
     4    2    4 ar
     5    2    8 ar
     6    2   23 1
     7    3    9 ar
     8    3   24 1
     9    4    9 ar
    10    4   25 1
    11    5    6 2
    12    5   17 1
    13    5   26 1
    14    6   18 1
    15    6   27 1
    16    7   17 2
    17    7   18 1
    18    7   28 1
    19    8   16 1
    20    9   21 1
    21   10   11 1
    22   10   12 1
    23   10   29 1
    24   10   30 1
    25   11   12 1
    26   11   31 1
    27   11   32 1
    28   12   16 1
    29   12   20 1
    30   13   15 1
    31   13   33 1
    32   13   34 1
    33   13   35 1
    34   14   16 1
    35   14   18 1
    36   14   36 1
    37   14   37 1
    38   15   20 1
    39   15   38 1
    40   15   39 1
    41   16   19 1
    42   19   40 1
