@<TRIPOS>MOLECULE
*****
   64    66     0     0     0
SMALL
NO_CHARGES

@<TRIPOS>ATOM
      1 C1         -0.4143    5.3302   -1.7668 C.ar      1 <0>         0.0000
      2 C2          1.5788    6.5211   -2.4295 C.ar      1 <0>         0.0000
      3 C3         -1.2091    6.3314   -2.3307 C.ar      1 <0>         0.0000
      4 C4          0.8012    7.5342   -2.9963 C.ar      1 <0>         0.0000
      5 C5          0.9862    5.4066   -1.8173 C.ar      1 <0>         0.0000
      6 C6          1.8230    4.3144   -1.2350 C.ar      1 <0>         0.0000
      7 C7          2.5480    3.4508   -2.0769 C.ar      1 <0>         0.0000
      8 C8          1.8743    4.1317    0.1602 C.ar      1 <0>         0.0000
      9 C9         -0.5836    7.4149   -2.9393 C.ar      1 <0>         0.0000
     10 C10         3.3429    2.4574   -1.4712 C.ar      1 <0>         0.0000
     11 C11         2.6323    3.0567    0.6594 C.ar      1 <0>         0.0000
     12 C12         4.5887    4.9079   -8.2892 C.3       1 <0>         0.0000
     13 C13         3.4255    3.9653   -7.9522 C.3       1 <0>         0.0000
     14 C14         4.6406    6.0915   -7.3131 C.3       1 <0>         0.0000
     15 C15         3.4872    3.4931   -6.4924 C.3       1 <0>         0.0000
     16 C16         4.6974    5.6099   -5.8572 C.3       1 <0>         0.0000
     17 C17         3.5289    4.6773   -5.5154 C.3       1 <0>         0.0000
     18 C18         3.6410    0.0778   -2.2015 C.3       1 <0>         0.0000
     19 C19         5.6666    1.5459   -1.7638 C.3       1 <0>         0.0000
     20 C20         4.0787    3.1245    2.7056 C.3       1 <0>         0.0000
     21 C21         2.4370    1.2178    2.3686 C.3       1 <0>         0.0000
     22 C22         2.4655    3.5724   -3.5827 C.3       1 <0>         0.0000
     23 C23         1.1353    5.0638    1.0861 C.3       1 <0>         0.0000
     24 C24         4.2162    1.5039   -2.2720 C.3       1 <0>         0.0000
     25 C25         2.7068    2.7139    2.1401 C.3       1 <0>         0.0000
     26 N1          3.3579    2.2715   -0.1458 N.ar      1 <0>         0.0000
     27 N2          3.6720    4.2118   -4.1297 N.3       1 <0>         0.0000
     28 O1         -0.1369    4.4720    1.4185 O.3       1 <0>         0.0000
     29 F1         -1.3498    8.3924   -3.4910 F         1 <0>         0.0000
     30 H1         -0.8810    4.4824   -1.2754 H         1 <0>         0.0000
     31 H2          2.6615    6.6065   -2.4548 H         1 <0>         0.0000
     32 H3         -2.2933    6.2798   -2.3028 H         1 <0>         0.0000
     33 H4          1.2510    8.4008   -3.4712 H         1 <0>         0.0000
     34 H5          4.4989    5.2700   -9.3203 H         1 <0>         0.0000
     35 H6          5.5338    4.3506   -8.2312 H         1 <0>         0.0000
     36 H7          2.4749    4.4884   -8.1250 H         1 <0>         0.0000
     37 H8          3.4305    3.0989   -8.6236 H         1 <0>         0.0000
     38 H9          5.5067    6.7275   -7.5297 H         1 <0>         0.0000
     39 H10         3.7487    6.7171   -7.4556 H         1 <0>         0.0000
     40 H11         2.6258    2.8518   -6.2754 H         1 <0>         0.0000
     41 H12         4.3870    2.8855   -6.3291 H         1 <0>         0.0000
     42 H13         5.6353    5.0680   -5.6786 H         1 <0>         0.0000
     43 H14         4.6929    6.4713   -5.1751 H         1 <0>         0.0000
     44 H15         2.5881    5.2495   -5.6384 H         1 <0>         0.0000
     45 H16         3.6169   -0.2725   -1.1651 H         1 <0>         0.0000
     46 H17         4.2558   -0.6142   -2.7881 H         1 <0>         0.0000
     47 H18         2.6187    0.0405   -2.5949 H         1 <0>         0.0000
     48 H19         5.7169    1.2460   -0.7135 H         1 <0>         0.0000
     49 H20         6.0814    2.5554   -1.8539 H         1 <0>         0.0000
     50 H21         6.2940    0.8674   -2.3525 H         1 <0>         0.0000
     51 H22         4.8774    2.5869    2.1851 H         1 <0>         0.0000
     52 H23         4.1430    2.8905    3.7742 H         1 <0>         0.0000
     53 H24         4.2580    4.1986    2.5808 H         1 <0>         0.0000
     54 H25         3.1865    0.6088    1.8569 H         1 <0>         0.0000
     55 H26         1.4499    0.9362    1.9876 H         1 <0>         0.0000
     56 H27         2.4686    0.9875    3.4393 H         1 <0>         0.0000
     57 H28         2.3699    2.5742   -4.0210 H         1 <0>         0.0000
     58 H29         1.5522    4.1201   -3.8584 H         1 <0>         0.0000
     59 H30         1.7209    5.2387    1.9971 H         1 <0>         0.0000
     60 H31         0.9851    6.0324    0.5969 H         1 <0>         0.0000
     61 H32         4.2274    1.8334   -3.3121 H         1 <0>         0.0000
     62 H33         1.9280    3.2685    2.6685 H         1 <0>         0.0000
     63 H34         3.9002    5.0107   -3.5416 H         1 <0>         0.0000
     64 H35        -0.6099    5.0926    1.9962 H         1 <0>         0.0000
@<TRIPOS>BOND
     1    1    3 ar
     2    1    5 ar
     3    1   30 1
     4    2    4 ar
     5    2    5 ar
     6    2   31 1
     7    3    9 ar
     8    3   32 1
     9    4    9 ar
    10    4   33 1
    11    5    6 1
    12    6    7 ar
    13    6    8 ar
    14    7   10 ar
    15    7   22 1
    16    8   11 ar
    17    8   23 1
    18    9   29 1
    19   10   24 1
    20   10   26 ar
    21   11   25 1
    22   11   26 ar
    23   12   14 1
    24   12   13 1
    25   12   34 1
    26   12   35 1
    27   13   15 1
    28   13   36 1
    29   13   37 1
    30   14   16 1
    31   14   38 1
    32   14   39 1
    33   15   17 1
    34   15   40 1
    35   15   41 1
    36   16   17 1
    37   16   42 1
    38   16   43 1
    39   17   27 1
    40   17   44 1
    41   18   24 1
    42   18   45 1
    43   18   46 1
    44   18   47 1
    45   19   24 1
    46   19   48 1
    47   19   49 1
    48   19   50 1
    49   20   25 1
    50   20   51 1
    51   20   52 1
    52   20   53 1
    53   21   25 1
    54   21   54 1
    55   21   55 1
    56   21   56 1
    57   22   27 1
    58   22   57 1
    59   22   58 1
    60   23   28 1
    61   23   59 1
    62   23   60 1
    63   24   61 1
    64   25   62 1
    65   27   63 1
    66   28   64 1
