@<TRIPOS>MOLECULE
*****
   22    23     0     0     0
SMALL
NO_CHARGES

@<TRIPOS>ATOM
      1 C1          2.0354   -1.2399    0.2030 C.ar      1 <0>         0.0000
      2 C2          2.7879   -1.7537    1.2652 C.ar      1 <0>         0.0000
      3 C3          0.9531   -0.3915    0.4628 C.ar      1 <0>         0.0000
      4 C4         -1.3008   -2.8256    5.1533 C.ar      1 <0>         0.0000
      5 C5         -1.5296   -2.3706    6.4559 C.ar      1 <0>         0.0000
      6 C6          2.4592   -1.4262    2.5845 C.ar      1 <0>         0.0000
      7 C7          0.6166   -0.0583    1.7786 C.ar      1 <0>         0.0000
      8 C8         -0.4240   -2.1278    4.3246 C.ar      1 <0>         0.0000
      9 C9         -0.8551   -1.2191    6.8665 C.ar      1 <0>         0.0000
     10 C10         1.3744   -0.5821    2.8272 C.ar      1 <0>         0.0000
     11 C11         0.1951   -0.9819    4.8533 C.ar      1 <0>         0.0000
     12 N1         -0.0082   -0.5323    6.0878 N.ar      1 <0>         0.0000
     13 O1          1.0772   -0.2116    4.1353 O.3       1 <0>         0.0000
     14 H1          2.2943   -1.4945   -0.8211 H         1 <0>         0.0000
     15 H2          3.6335   -2.4073    1.0684 H         1 <0>         0.0000
     16 H3          0.3705    0.0152   -0.3596 H         1 <0>         0.0000
     17 H4         -1.7995   -3.7170    4.7812 H         1 <0>         0.0000
     18 H5         -2.2052   -2.8869    7.1308 H         1 <0>         0.0000
     19 H6          3.0324   -1.8103    3.4233 H         1 <0>         0.0000
     20 H7         -0.2167    0.6017    2.0016 H         1 <0>         0.0000
     21 H8         -0.2270   -2.4562    3.3110 H         1 <0>         0.0000
     22 H9         -0.9982   -0.8232    7.8709 H         1 <0>         0.0000
@<TRIPOS>BOND
     1    1    3 ar
     2    1    2 ar
     3    1   14 1
     4    2    6 ar
     5    2   15 1
     6    3    7 ar
     7    3   16 1
     8    4    5 ar
     9    4    8 ar
    10    4   17 1
    11    5    9 ar
    12    5   18 1
    13    6   10 ar
    14    6   19 1
    15    7   10 ar
    16    7   20 1
    17    8   11 ar
    18    8   21 1
    19    9   12 ar
    20    9   22 1
    21   10   13 1
    22   11   12 ar
    23   11   13 1
