@<TRIPOS>MOLECULE
*****
   57    58     0     0     0
SMALL
NO_CHARGES

@<TRIPOS>ATOM
      1 C1         -2.8450   -1.4064   -1.0680 C.2       1 <0>         0.0000
      2 C2         -1.8468   -0.4237   -0.7699 C.2       1 <0>         0.0000
      3 C3         -0.7286   -0.9935   -0.1964 C.2       1 <0>         0.0000
      4 C4         -4.1548   -1.1785   -1.6725 C.2       1 <0>         0.0000
      5 C5         -2.4740   -2.6923   -0.7152 C.2       1 <0>         0.0000
      6 C6         -4.5162   -3.6405   -1.5549 C.2       1 <0>         0.0000
      7 C7         -2.0168    1.0408   -1.0625 C.3       1 <0>         0.0000
      8 C8         -7.1804   -2.2243   -5.0263 C.3       1 <0>         0.0000
      9 C9         -5.1252   -3.6270   -4.6934 C.3       1 <0>         0.0000
     10 C10        -5.4050    0.0254   -4.8609 C.3       1 <0>         0.0000
     11 C11         0.4921   -0.3123    0.2847 C.3       1 <0>         0.0000
     12 C12        -2.1506   -5.8580   -1.6816 C.3       1 <0>         0.0000
     13 C13        -2.8505   -5.1397   -0.5232 C.3       1 <0>         0.0000
     14 C14        -6.0954   -2.2304   -2.7809 C.3       1 <0>         0.0000
     15 C15         1.1745    1.4787    3.7226 C.3       1 <0>         0.0000
     16 C16         1.4862    0.9320    2.3250 C.3       1 <0>         0.0000
     17 C17        -1.6282   -7.2229   -1.2623 C.3       1 <0>         0.0000
     18 C18        -5.8278   -2.3228   -4.3068 C.3       1 <0>         0.0000
     19 N1         -4.8642   -2.3568   -1.9763 N.am      1 <0>         0.0000
     20 N2         -3.2742   -3.7776   -0.8936 N.am      1 <0>         0.0000
     21 N3          2.3885    2.1082    4.2287 N.3       1 <0>         0.0000
     22 N4          0.2928    0.2317    1.7203 N.4       1 <0>         0.0000
     23 O1         -4.6174   -0.0644   -1.8896 O.2       1 <0>         0.0000
     24 O2         -5.2221   -4.6183   -1.7345 O.2       1 <0>         0.0000
     25 O3         -4.9003   -1.2991   -4.7059 O.3       1 <0>         0.0000
     26 F1         -2.6820   -8.0014   -0.7630 F         1 <0>         0.0000
     27 S1         -0.8820   -2.7483   -0.0104 S.3       1 <0>         0.0000
     28 H1         -2.8656    1.4502   -0.5080 H         1 <0>         0.0000
     29 H2         -1.1183    1.6191   -0.8245 H         1 <0>         0.0000
     30 H3         -2.2515    1.1910   -2.1191 H         1 <0>         0.0000
     31 H4         -7.7509   -1.3406   -4.7262 H         1 <0>         0.0000
     32 H5         -7.0271   -2.1862   -6.1084 H         1 <0>         0.0000
     33 H6         -7.7875   -3.1062   -4.8022 H         1 <0>         0.0000
     34 H7         -4.1152   -3.6578   -4.2741 H         1 <0>         0.0000
     35 H8         -5.0296   -3.6717   -5.7814 H         1 <0>         0.0000
     36 H9         -5.6774   -4.5005   -4.3421 H         1 <0>         0.0000
     37 H10        -4.5327    0.6583   -5.0382 H         1 <0>         0.0000
     38 H11        -5.9125    0.3869   -3.9603 H         1 <0>         0.0000
     39 H12        -6.0766    0.1030   -5.7238 H         1 <0>         0.0000
     40 H13         1.3635   -0.9675    0.3407 H         1 <0>         0.0000
     41 H14         0.7538    0.5586   -0.3180 H         1 <0>         0.0000
     42 H15        -1.3025   -5.2653   -2.0463 H         1 <0>         0.0000
     43 H16        -2.8585   -5.9712   -2.5076 H         1 <0>         0.0000
     44 H17        -2.1979   -5.0580    0.3522 H         1 <0>         0.0000
     45 H18        -3.7416   -5.6893   -0.2251 H         1 <0>         0.0000
     46 H19        -6.5368   -1.2657   -2.5332 H         1 <0>         0.0000
     47 H20        -6.7759   -3.0226   -2.4720 H         1 <0>         0.0000
     48 H21         0.2948    2.1433    3.6765 H         1 <0>         0.0000
     49 H22         0.9127    0.6452    4.3838 H         1 <0>         0.0000
     50 H23         2.3043    0.2116    2.3698 H         1 <0>         0.0000
     51 H24         1.7641    1.7328    1.6355 H         1 <0>         0.0000
     52 H25        -0.8794   -7.1446   -0.4654 H         1 <0>         0.0000
     53 H26        -1.1940   -7.7576   -2.1116 H         1 <0>         0.0000
     54 H27         2.3943    2.1307    5.2452 H         1 <0>         0.0000
     55 H28         2.4753    3.0684    3.9038 H         1 <0>         0.0000
     56 H29        -0.5165    0.8633    1.6985 H         1 <0>         0.0000
     57 H30         0.0054   -0.5542    2.3154 H         1 <0>         0.0000
@<TRIPOS>BOND
     1    1    2 1
     2    1    5 2
     3    1    4 1
     4    2    3 2
     5    2    7 1
     6    3   11 1
     7    3   27 1
     8    4   19 am
     9    4   23 2
    10    5   20 1
    11    5   27 1
    12    6   20 am
    13    6   19 am
    14    6   24 2
    15    7   28 1
    16    7   29 1
    17    7   30 1
    18    8   18 1
    19    8   31 1
    20    8   32 1
    21    8   33 1
    22    9   18 1
    23    9   34 1
    24    9   35 1
    25    9   36 1
    26   10   25 1
    27   10   37 1
    28   10   38 1
    29   10   39 1
    30   11   22 1
    31   11   40 1
    32   11   41 1
    33   12   13 1
    34   12   17 1
    35   12   42 1
    36   12   43 1
    37   13   20 1
    38   13   44 1
    39   13   45 1
    40   14   18 1
    41   14   19 1
    42   14   46 1
    43   14   47 1
    44   15   16 1
    45   15   21 1
    46   15   48 1
    47   15   49 1
    48   16   22 1
    49   16   50 1
    50   16   51 1
    51   17   26 1
    52   17   52 1
    53   17   53 1
    54   18   25 1
    55   21   54 1
    56   21   55 1
    57   22   56 1
    58   22   57 1
