@<TRIPOS>MOLECULE
*****
   71    76     0     0     0
SMALL
NO_CHARGES

@<TRIPOS>ATOM
      1 C1         -1.1553    1.7302    0.2574 C.ar      1 <0>         0.0000
      2 C2         -1.4307   -0.2473    6.8034 C.ar      1 <0>         0.0000
      3 C3         -1.2450    1.3329    1.5872 C.ar      1 <0>         0.0000
      4 C4         -2.0622    0.6911    5.9846 C.ar      1 <0>         0.0000
      5 C5         -2.5755    3.6298    0.6937 C.ar      1 <0>         0.0000
      6 C6         -1.8028    2.8828   -0.2109 C.ar      1 <0>         0.0000
      7 C7         -0.3804   -1.0161    6.3065 C.ar      1 <0>         0.0000
      8 C8         -2.0048    2.0871    2.5038 C.ar      1 <0>         0.0000
      9 C9         -2.6685    3.2425    2.0216 C.ar      1 <0>         0.0000
     10 C10        -0.0062   -0.8140    4.9532 C.ar      1 <0>         0.0000
     11 C11        -1.6074    0.8276    4.6636 C.ar      1 <0>         0.0000
     12 C12         1.1393   -2.8972    6.5138 C.2       1 <0>         0.0000
     13 C13        -1.6670    3.2295   -1.6517 C.2       1 <0>         0.0000
     14 C14         2.9823   -1.5835    1.2112 C.3       1 <0>         0.0000
     15 C15         2.8090   -0.0571    1.4670 C.3       1 <0>         0.0000
     16 C16         2.5265   -2.2726    2.5126 C.3       1 <0>         0.0000
     17 C17         2.1147    0.0584    2.8424 C.3       1 <0>         0.0000
     18 C18        -1.6299    7.7728   -3.1428 C.3       1 <0>         0.0000
     19 C19        -1.4705    5.0623   -3.3235 C.3       1 <0>         0.0000
     20 C20        -1.5537    5.7866   -1.2966 C.3       1 <0>         0.0000
     21 C21        -0.2978    8.5722   -3.1098 C.3       1 <0>         0.0000
     22 C22         1.1342   -2.9228    4.9872 C.3       1 <0>         0.0000
     23 C23         1.4509   -1.3167    3.0507 C.3       1 <0>         0.0000
     24 C24        -1.1180    6.4005   -2.6443 C.3       1 <0>         0.0000
     25 C25         0.0221   -3.8640    4.4848 C.3       1 <0>         0.0000
     26 C26         0.2255   -1.8996    8.5508 C.3       1 <0>         0.0000
     27 C27        -2.8568    5.1891    3.3547 C.3       1 <0>         0.0000
     28 N1         -0.6173    0.0766    4.1665 N.ar      1 <0>         0.0000
     29 N2          0.3483   -1.9332    7.0968 N.am      1 <0>         0.0000
     30 N3          1.0412   -1.5618    4.4436 N.pl3     1 <0>         0.0000
     31 N4         -1.9128    4.5416   -2.0159 N.am      1 <0>         0.0000
     32 N5         -2.1970    1.7879    3.8458 N.pl3     1 <0>         0.0000
     33 O1          1.7791   -3.7251    7.1593 O.2       1 <0>         0.0000
     34 O2         -1.3662    2.3987   -2.5109 O.2       1 <0>         0.0000
     35 O3          1.2901    7.0490   -1.4323 O.2       1 <0>         0.0000
     36 O4          1.3166    6.5060   -3.9335 O.2       1 <0>         0.0000
     37 O5         -3.4532    3.9563    2.9225 O.3       1 <0>         0.0000
     38 S1          0.6243    7.0245   -2.7442 S.o2      1 <0>         0.0000
     39 H1         -0.5802    1.1395   -0.4488 H         1 <0>         0.0000
     40 H2         -1.7586   -0.3622    7.8309 H         1 <0>         0.0000
     41 H3         -0.7395    0.4452    1.9346 H         1 <0>         0.0000
     42 H4         -2.8782    1.2986    6.3644 H         1 <0>         0.0000
     43 H5         -3.1465    4.4939    0.3699 H         1 <0>         0.0000
     44 H6          2.3486   -1.9049    0.3782 H         1 <0>         0.0000
     45 H7          4.0090   -1.8547    0.9509 H         1 <0>         0.0000
     46 H8          3.7672    0.4699    1.4618 H         1 <0>         0.0000
     47 H9          2.1966    0.3985    0.6830 H         1 <0>         0.0000
     48 H10         2.1702   -3.2928    2.3429 H         1 <0>         0.0000
     49 H11         3.3602   -2.3201    3.2234 H         1 <0>         0.0000
     50 H12         2.8505    0.1983    3.6429 H         1 <0>         0.0000
     51 H13         1.4037    0.8817    2.8963 H         1 <0>         0.0000
     52 H14        -2.3993    8.1950   -2.4930 H         1 <0>         0.0000
     53 H15        -2.0292    7.6958   -4.1563 H         1 <0>         0.0000
     54 H16        -2.2707    5.1262   -4.0679 H         1 <0>         0.0000
     55 H17        -0.6216    4.5171   -3.7467 H         1 <0>         0.0000
     56 H18        -0.7473    5.6757   -0.5651 H         1 <0>         0.0000
     57 H19        -2.4058    6.2962   -0.8338 H         1 <0>         0.0000
     58 H20         0.0157    9.0267   -4.0498 H         1 <0>         0.0000
     59 H21        -0.2004    9.2738   -2.2804 H         1 <0>         0.0000
     60 H22         2.1033   -3.3355    4.7175 H         1 <0>         0.0000
     61 H23         0.5675   -1.3870    2.3987 H         1 <0>         0.0000
     62 H24        -0.9661   -3.4916    4.7727 H         1 <0>         0.0000
     63 H25         0.1573   -4.8638    4.9070 H         1 <0>         0.0000
     64 H26         0.0535   -3.9396    3.3940 H         1 <0>         0.0000
     65 H27        -0.7666   -2.2380    8.8713 H         1 <0>         0.0000
     66 H28         0.3933   -0.8820    8.9162 H         1 <0>         0.0000
     67 H29         0.9762   -2.5704    8.9650 H         1 <0>         0.0000
     68 H30        -3.5415    5.6277    4.0836 H         1 <0>         0.0000
     69 H31        -2.7298    5.8795    2.5126 H         1 <0>         0.0000
     70 H32        -1.8804    5.0086    3.8207 H         1 <0>         0.0000
     71 H33        -2.8972    2.3736    4.2857 H         1 <0>         0.0000
@<TRIPOS>BOND
     1    1    3 ar
     2    1    6 ar
     3    1   39 1
     4    2    4 ar
     5    2    7 ar
     6    2   40 1
     7    3    8 ar
     8    3   41 1
     9    4   11 ar
    10    4   42 1
    11    5    6 ar
    12    5    9 ar
    13    5   43 1
    14    6   13 1
    15    7   10 ar
    16    7   29 1
    17    8    9 ar
    18    8   32 1
    19    9   37 1
    20   10   28 ar
    21   10   30 1
    22   11   28 ar
    23   11   32 1
    24   12   22 1
    25   12   29 am
    26   12   33 2
    27   13   31 am
    28   13   34 2
    29   14   15 1
    30   14   16 1
    31   14   44 1
    32   14   45 1
    33   15   17 1
    34   15   46 1
    35   15   47 1
    36   16   23 1
    37   16   48 1
    38   16   49 1
    39   17   23 1
    40   17   50 1
    41   17   51 1
    42   18   21 1
    43   18   24 1
    44   18   52 1
    45   18   53 1
    46   19   24 1
    47   19   31 1
    48   19   54 1
    49   19   55 1
    50   20   24 1
    51   20   31 1
    52   20   56 1
    53   20   57 1
    54   21   38 1
    55   21   58 1
    56   21   59 1
    57   22   25 1
    58   22   30 1
    59   22   60 1
    60   23   30 1
    61   23   61 1
    62   24   38 1
    63   25   62 1
    64   25   63 1
    65   25   64 1
    66   26   29 1
    67   26   65 1
    68   26   66 1
    69   26   67 1
    70   27   37 1
    71   27   68 1
    72   27   69 1
    73   27   70 1
    74   32   71 1
    75   35   38 2
    76   36   38 2
