@<TRIPOS>MOLECULE
*****
   52    55     0     0     0
SMALL
NO_CHARGES

@<TRIPOS>ATOM
      1 C1          3.8174   -0.4793    3.1291 C.1       1 <0>         0.0000
      2 C2          0.0689    3.0377   -1.0793 C.ar      1 <0>         0.0000
      3 C3          0.7282    2.0374   -0.3243 C.ar      1 <0>         0.0000
      4 C4         -1.1600    2.8207   -1.7101 C.ar      1 <0>         0.0000
      5 C5         -1.0695    0.5600   -0.8004 C.ar      1 <0>         0.0000
      6 C6          0.1629    0.7707   -0.1733 C.ar      1 <0>         0.0000
      7 C7         -1.8460   -0.6392   -0.8307 C.2       1 <0>         0.0000
      8 C8         -1.7322    1.5510   -1.5573 C.ar      1 <0>         0.0000
      9 C9         -2.9573   -0.3665   -1.5934 C.2       1 <0>         0.0000
     10 C10        -1.3621   -1.8188   -0.0414 C.3       1 <0>         0.0000
     11 C11         2.2892   -0.4435    0.4751 C.3       1 <0>         0.0000
     12 C12         2.1934   -2.9536    0.6362 C.3       1 <0>         0.0000
     13 C13         0.7529   -0.4168    0.5760 C.3       1 <0>         0.0000
     14 C14         2.9208   -1.6832    1.1262 C.3       1 <0>         0.0000
     15 C15         0.1817   -1.7707    0.0341 C.3       1 <0>         0.0000
     16 C16        -0.1292   -4.8963    3.9401 C.3       1 <0>         0.0000
     17 C17        -5.6606   -1.6700   -3.6919 C.3       1 <0>         0.0000
     18 C18         2.9665   -1.5850    2.6707 C.3       1 <0>         0.0000
     19 C19        -4.1380   -1.2059   -1.9421 C.3       1 <0>         0.0000
     20 C20         0.7157   -4.4841    2.7288 C.3       1 <0>         0.0000
     21 C21         0.1380   -3.2433    2.0417 C.3       1 <0>         0.0000
     22 N1          4.4960    0.4040    3.4651 N.1       1 <0>         0.0000
     23 N2         -2.9125    0.9734   -2.0044 N.pl3     1 <0>         0.0000
     24 N3          0.7348   -2.9409    0.7362 N.3       1 <0>         0.0000
     25 O1         -4.4947   -0.9590   -3.3027 O.3       1 <0>         0.0000
     26 H1          0.5399    4.0128   -1.1742 H         1 <0>         0.0000
     27 H2          1.6853    2.2785    0.1294 H         1 <0>         0.0000
     28 H3         -1.6377    3.6082   -2.2874 H         1 <0>         0.0000
     29 H4         -1.7894   -1.7739    0.9672 H         1 <0>         0.0000
     30 H5         -1.6640   -2.7778   -0.4772 H         1 <0>         0.0000
     31 H6          2.5578   -0.4342   -0.5885 H         1 <0>         0.0000
     32 H7          2.7197    0.4644    0.9081 H         1 <0>         0.0000
     33 H8          2.4364   -3.0674   -0.4289 H         1 <0>         0.0000
     34 H9          2.5885   -3.8420    1.1341 H         1 <0>         0.0000
     35 H10         0.4619   -0.3295    1.6332 H         1 <0>         0.0000
     36 H11         3.9620   -1.7540    0.7873 H         1 <0>         0.0000
     37 H12         0.5381   -1.8520   -1.0029 H         1 <0>         0.0000
     38 H13        -0.1935   -4.0847    4.6741 H         1 <0>         0.0000
     39 H14        -1.1511   -5.1561    3.6418 H         1 <0>         0.0000
     40 H15         0.3028   -5.7664    4.4446 H         1 <0>         0.0000
     41 H16        -5.8603   -1.4138   -4.7345 H         1 <0>         0.0000
     42 H17        -6.5282   -1.3868   -3.0770 H         1 <0>         0.0000
     43 H18        -5.5115   -2.7568   -3.6111 H         1 <0>         0.0000
     44 H19         3.3608   -2.5126    3.0994 H         1 <0>         0.0000
     45 H20         1.9704   -1.4362    3.0939 H         1 <0>         0.0000
     46 H21        -3.8944   -2.2671   -1.7865 H         1 <0>         0.0000
     47 H22        -4.9987   -0.9641   -1.2949 H         1 <0>         0.0000
     48 H23         0.7569   -5.3037    2.0015 H         1 <0>         0.0000
     49 H24         1.7435   -4.3055    3.0622 H         1 <0>         0.0000
     50 H25        -0.9241   -3.4417    1.8731 H         1 <0>         0.0000
     51 H26         0.1723   -2.3969    2.7523 H         1 <0>         0.0000
     52 H27        -3.4880    1.3190   -2.7608 H         1 <0>         0.0000
@<TRIPOS>BOND
     1    1   18 1
     2    1   22 3
     3    2    3 ar
     4    2    4 ar
     5    2   26 1
     6    3    6 ar
     7    3   27 1
     8    4    8 ar
     9    4   28 1
    10    5    6 ar
    11    5    7 1
    12    5    8 ar
    13    6   13 1
    14    7    9 2
    15    7   10 1
    16    8   23 1
    17    9   19 1
    18    9   23 1
    19   10   15 1
    20   10   29 1
    21   10   30 1
    22   11   13 1
    23   11   14 1
    24   11   31 1
    25   11   32 1
    26   12   14 1
    27   12   24 1
    28   12   33 1
    29   12   34 1
    30   13   15 1
    31   13   35 1
    32   14   18 1
    33   14   36 1
    34   15   24 1
    35   15   37 1
    36   16   20 1
    37   16   38 1
    38   16   39 1
    39   16   40 1
    40   17   25 1
    41   17   41 1
    42   17   42 1
    43   17   43 1
    44   18   44 1
    45   18   45 1
    46   19   25 1
    47   19   46 1
    48   19   47 1
    49   20   21 1
    50   20   48 1
    51   20   49 1
    52   21   24 1
    53   21   50 1
    54   21   51 1
    55   23   52 1
