@<TRIPOS>MOLECULE
*****
   67    69     0     0     0
SMALL
NO_CHARGES

@<TRIPOS>ATOM
      1 C1         -0.1962    1.1932    2.5480 C.1       1 <0>         0.0000
      2 C2          3.4277   -4.5361    4.2115 C.ar      1 <0>         0.0000
      3 C3          2.2537   -4.3404    3.4764 C.ar      1 <0>         0.0000
      4 C4         -0.5805   -1.7657    0.3310 C.ar      1 <0>         0.0000
      5 C5         -0.2773   -0.1720    2.1166 C.ar      1 <0>         0.0000
      6 C6          1.2319   -3.3179    5.4489 C.ar      1 <0>         0.0000
      7 C7         -0.1116   -1.2189    3.0554 C.ar      1 <0>         0.0000
      8 C8          3.5318   -4.1342    5.5419 C.ar      1 <0>         0.0000
      9 C9         -0.5145   -0.4356    0.7526 C.ar      1 <0>         0.0000
     10 C10         1.1794   -3.7369    4.1097 C.ar      1 <0>         0.0000
     11 C11        -0.1704   -2.5316    2.5991 C.ar      1 <0>         0.0000
     12 C12        -0.4061   -2.8189    1.2372 C.ar      1 <0>         0.0000
     13 C13         2.4217   -3.5253    6.1723 C.ar      1 <0>         0.0000
     14 C14        -0.0559   -2.7977    6.0177 C.2       1 <0>         0.0000
     15 C15         0.1727   -0.8927    4.5066 C.3       1 <0>         0.0000
     16 C16        -0.6994    0.6943   -0.2304 C.3       1 <0>         0.0000
     17 C17         0.9305   -8.1190    0.0303 C.3       1 <0>         0.0000
     18 C18         2.2089   -5.9666   -0.3182 C.3       1 <0>         0.0000
     19 C19         5.3003   -6.9629    9.2328 C.3       1 <0>         0.0000
     20 C20         7.1610   -5.9305    7.8770 C.3       1 <0>         0.0000
     21 C21         1.8701   -2.1494    8.1160 C.3       1 <0>         0.0000
     22 C22        -0.3387   -6.0212   -0.5402 C.3       1 <0>         0.0000
     23 C23         4.7036   -5.6558    7.1701 C.3       1 <0>         0.0000
     24 C24        -0.4783   -4.5070   -0.4724 C.3       1 <0>         0.0000
     25 C25         4.8105   -4.3742    6.3317 C.3       1 <0>         0.0000
     26 C26         0.8979   -6.5918    0.1789 C.3       1 <0>         0.0000
     27 C27         5.7027   -5.7831    8.3345 C.3       1 <0>         0.0000
     28 N1         -0.1246    2.3080    2.8845 N.1       1 <0>         0.0000
     29 O1         -0.6518   -3.3313    6.9262 O.2       1 <0>         0.0000
     30 O2         -0.0451   -3.6102    3.4540 O.3       1 <0>         0.0000
     31 O3         -0.5861   -1.6803    5.4430 O.3       1 <0>         0.0000
     32 O4          5.9426   -4.5028    5.4571 O.3       1 <0>         0.0000
     33 O5          2.6328   -3.1794    7.4745 O.3       1 <0>         0.0000
     34 O6         -0.4273   -4.1307    0.9132 O.3       1 <0>         0.0000
     35 H1          4.2883   -5.0120    3.7517 H         1 <0>         0.0000
     36 H2          2.1569   -4.6687    2.4471 H         1 <0>         0.0000
     37 H3         -0.7665   -1.9756   -0.7158 H         1 <0>         0.0000
     38 H4          1.2434   -0.9900    4.7108 H         1 <0>         0.0000
     39 H5         -0.1143    0.1378    4.7161 H         1 <0>         0.0000
     40 H6         -1.5524    1.3221    0.0472 H         1 <0>         0.0000
     41 H7          0.1801    1.3458   -0.2536 H         1 <0>         0.0000
     42 H8         -0.8700    0.3121   -1.2393 H         1 <0>         0.0000
     43 H9          1.0491   -8.4103   -1.0208 H         1 <0>         0.0000
     44 H10         0.0064   -8.5752    0.4021 H         1 <0>         0.0000
     45 H11         1.7656   -8.5512    0.5919 H         1 <0>         0.0000
     46 H12         2.3383   -6.1223   -1.3968 H         1 <0>         0.0000
     47 H13         3.0689   -6.4213    0.1854 H         1 <0>         0.0000
     48 H14         2.2516   -4.8890   -0.1279 H         1 <0>         0.0000
     49 H15         5.3413   -7.9075    8.6763 H         1 <0>         0.0000
     50 H16         5.9770   -7.0544   10.0896 H         1 <0>         0.0000
     51 H17         4.2812   -6.8462    9.6182 H         1 <0>         0.0000
     52 H18         7.2825   -6.8315    7.2633 H         1 <0>         0.0000
     53 H19         7.4858   -5.0810    7.2732 H         1 <0>         0.0000
     54 H20         7.8274   -6.0218    8.7426 H         1 <0>         0.0000
     55 H21         2.4966   -1.7923    8.9351 H         1 <0>         0.0000
     56 H22         0.9284   -2.5397    8.5037 H         1 <0>         0.0000
     57 H23         1.6730   -1.3191    7.4283 H         1 <0>         0.0000
     58 H24        -1.2405   -6.4755   -0.1139 H         1 <0>         0.0000
     59 H25        -0.3144   -6.3007   -1.6023 H         1 <0>         0.0000
     60 H26         4.8006   -6.5108    6.4879 H         1 <0>         0.0000
     61 H27         3.6897   -5.6927    7.5808 H         1 <0>         0.0000
     62 H28         0.3325   -4.0041   -1.0130 H         1 <0>         0.0000
     63 H29        -1.4336   -4.1871   -0.9074 H         1 <0>         0.0000
     64 H30         4.9621   -3.5262    7.0117 H         1 <0>         0.0000
     65 H31         0.7912   -6.3579    1.2443 H         1 <0>         0.0000
     66 H32         5.6222   -4.8646    8.9341 H         1 <0>         0.0000
     67 H33         6.0748   -3.6479    5.0170 H         1 <0>         0.0000
@<TRIPOS>BOND
     1    1    5 1
     2    1   28 3
     3    2    3 ar
     4    2    8 ar
     5    2   35 1
     6    3   10 ar
     7    3   36 1
     8    4    9 ar
     9    4   12 ar
    10    4   37 1
    11    5    7 ar
    12    5    9 ar
    13    6   10 ar
    14    6   13 ar
    15    6   14 1
    16    7   11 ar
    17    7   15 1
    18    8   13 ar
    19    8   25 1
    20    9   16 1
    21   10   30 1
    22   11   12 ar
    23   11   30 1
    24   12   34 1
    25   13   33 1
    26   14   29 2
    27   14   31 1
    28   15   31 1
    29   15   38 1
    30   15   39 1
    31   16   40 1
    32   16   41 1
    33   16   42 1
    34   17   26 1
    35   17   43 1
    36   17   44 1
    37   17   45 1
    38   18   26 1
    39   18   46 1
    40   18   47 1
    41   18   48 1
    42   19   27 1
    43   19   49 1
    44   19   50 1
    45   19   51 1
    46   20   27 1
    47   20   52 1
    48   20   53 1
    49   20   54 1
    50   21   33 1
    51   21   55 1
    52   21   56 1
    53   21   57 1
    54   22   24 1
    55   22   26 1
    56   22   58 1
    57   22   59 1
    58   23   25 1
    59   23   27 1
    60   23   60 1
    61   23   61 1
    62   24   34 1
    63   24   62 1
    64   24   63 1
    65   25   32 1
    66   25   64 1
    67   26   65 1
    68   27   66 1
    69   32   67 1
