@<TRIPOS>MOLECULE
*****
   26    27     0     0     0
SMALL
NO_CHARGES

@<TRIPOS>ATOM
      1 C1         -6.3860   -1.0677    0.3495 C.ar      1 <0>         0.0000
      2 C2         -5.8160   -0.5500   -0.8168 C.ar      1 <0>         0.0000
      3 C3         -5.7252   -2.0883    1.0419 C.ar      1 <0>         0.0000
      4 C4         -4.5933   -1.0419   -1.2851 C.ar      1 <0>         0.0000
      5 C5         -4.5050   -2.5777    0.5702 C.ar      1 <0>         0.0000
      6 C6         -3.9205   -2.0597   -0.5955 C.ar      1 <0>         0.0000
      7 C7         -2.3536   -2.4334   -2.5372 C.2       1 <0>         0.0000
      8 C8         -1.1681   -0.5152   -0.6774 C.3       1 <0>         0.0000
      9 C9         -1.4157   -1.9505   -0.2138 C.3       1 <0>         0.0000
     10 C10        -0.7424   -0.5094   -2.1437 C.3       1 <0>         0.0000
     11 C11        -2.5597   -2.5926   -1.0299 C.3       1 <0>         0.0000
     12 N1         -1.6338   -1.3423   -2.9579 N.am      1 <0>         0.0000
     13 O1         -2.8543   -3.2165   -3.3425 O.2       1 <0>         0.0000
     14 H1         -7.3379   -0.6870    0.7109 H         1 <0>         0.0000
     15 H2         -6.3258    0.2360   -1.3685 H         1 <0>         0.0000
     16 H3         -6.1631   -2.5075    1.9444 H         1 <0>         0.0000
     17 H4         -4.1700   -0.6367   -2.1998 H         1 <0>         0.0000
     18 H5         -4.0019   -3.3775    1.1104 H         1 <0>         0.0000
     19 H6         -2.0797    0.0775   -0.5493 H         1 <0>         0.0000
     20 H7         -0.3831   -0.0405   -0.0799 H         1 <0>         0.0000
     21 H8         -0.5002   -2.5422   -0.3463 H         1 <0>         0.0000
     22 H9         -1.6657   -1.9783    0.8513 H         1 <0>         0.0000
     23 H10        -0.7587    0.5095   -2.5452 H         1 <0>         0.0000
     24 H11         0.2903   -0.8788   -2.2283 H         1 <0>         0.0000
     25 H12        -2.5593   -3.6730   -0.8609 H         1 <0>         0.0000
     26 H13        -1.4874   -1.3354   -3.9625 H         1 <0>         0.0000
@<TRIPOS>BOND
     1    1    3 ar
     2    1    2 ar
     3    1   14 1
     4    2    4 ar
     5    2   15 1
     6    3    5 ar
     7    3   16 1
     8    4    6 ar
     9    4   17 1
    10    5    6 ar
    11    5   18 1
    12    6   11 1
    13    7   11 1
    14    7   12 am
    15    7   13 2
    16    8    9 1
    17    8   10 1
    18    8   19 1
    19    8   20 1
    20    9   11 1
    21    9   21 1
    22    9   22 1
    23   10   12 1
    24   10   23 1
    25   10   24 1
    26   11   25 1
    27   12   26 1
