@<TRIPOS>MOLECULE
*****
   28    29     0     0     0
SMALL
NO_CHARGES

@<TRIPOS>ATOM
      1 C1          3.8566    0.9873    3.8126 C.ar      1 <0>         0.0000
      2 C2          3.1318    1.3124    2.6622 C.ar      1 <0>         0.0000
      3 C3          3.3848   -0.0201    4.6617 C.ar      1 <0>         0.0000
      4 C4          1.9479    0.6321    2.3580 C.ar      1 <0>         0.0000
      5 C5          2.2005   -0.6946    4.3553 C.ar      1 <0>         0.0000
      6 C6          1.4726   -0.3820    3.1992 C.ar      1 <0>         0.0000
      7 C7         -1.2660    0.7737    2.5626 C.2       1 <0>         0.0000
      8 C8         -2.2006    2.7530    2.7848 C.3       1 <0>         0.0000
      9 C9         -1.7919    2.2274    4.1828 C.3       1 <0>         0.0000
     10 C10         0.5509   -2.4556    2.0959 C.3       1 <0>         0.0000
     11 C11         0.2124   -1.1758    2.8711 C.3       1 <0>         0.0000
     12 N1         -1.6372    1.7710    1.8457 N.2       1 <0>         0.0000
     13 N2         -0.7875   -0.4264    2.0997 N.pl3     1 <0>         0.0000
     14 O1         -1.3834    0.8560    3.9255 O.3       1 <0>         0.0000
     15 H1          4.7750    1.5181    4.0500 H         1 <0>         0.0000
     16 H2          3.4844    2.1006    2.0016 H         1 <0>         0.0000
     17 H3          3.9349   -0.2739    5.5645 H         1 <0>         0.0000
     18 H4          1.3866    0.9119    1.4706 H         1 <0>         0.0000
     19 H5          1.8320   -1.4683    5.0267 H         1 <0>         0.0000
     20 H6         -3.2909    2.8063    2.6685 H         1 <0>         0.0000
     21 H7         -1.7973    3.7511    2.5878 H         1 <0>         0.0000
     22 H8         -0.9310    2.7571    4.6028 H         1 <0>         0.0000
     23 H9         -2.6016    2.2035    4.9147 H         1 <0>         0.0000
     24 H10         1.0205   -2.2124    1.1355 H         1 <0>         0.0000
     25 H11         1.2582   -3.0663    2.6625 H         1 <0>         0.0000
     26 H12        -0.3542   -3.0416    1.9083 H         1 <0>         0.0000
     27 H13        -0.2615   -1.4583    3.8153 H         1 <0>         0.0000
     28 H14        -0.6357   -0.3975    1.0977 H         1 <0>         0.0000
@<TRIPOS>BOND
     1    1    3 ar
     2    1    2 ar
     3    1   15 1
     4    2    4 ar
     5    2   16 1
     6    3    5 ar
     7    3   17 1
     8    4    6 ar
     9    4   18 1
    10    5    6 ar
    11    5   19 1
    12    6   11 1
    13    7   12 2
    14    7   13 1
    15    7   14 1
    16    8    9 1
    17    8   12 1
    18    8   20 1
    19    8   21 1
    20    9   14 1
    21    9   22 1
    22    9   23 1
    23   10   11 1
    24   10   24 1
    25   10   25 1
    26   10   26 1
    27   11   13 1
    28   11   27 1
    29   13   28 1
