@<TRIPOS>MOLECULE
*****
   29    30     0     0     0
SMALL
NO_CHARGES

@<TRIPOS>ATOM
      1 C1          2.5504   -6.4006    2.1831 C.ar      1 <0>         0.0000
      2 C2          2.3800   -5.1653    1.5445 C.ar      1 <0>         0.0000
      3 C3          1.4481   -7.0533    2.7406 C.ar      1 <0>         0.0000
      4 C4          1.1128   -4.5853    1.4656 C.ar      1 <0>         0.0000
      5 C5          0.1775   -6.4689    2.6657 C.ar      1 <0>         0.0000
      6 C6          0.0020   -5.2333    2.0280 C.ar      1 <0>         0.0000
      7 C7         -0.8852   -2.8417    3.6286 C.cat     1 <0>         0.0000
      8 C8          0.3521   -2.7391    5.5676 C.3       1 <0>         0.0000
      9 C9         -0.4481   -1.4409    5.3578 C.3       1 <0>         0.0000
     10 C10        -1.9332   -4.5849    0.5138 C.3       1 <0>         0.0000
     11 C11        -1.3844   -4.6202    1.9425 C.3       1 <0>         0.0000
     12 N1         -0.2432   -3.5940    4.5243 N.pl3     1 <0>         0.0000
     13 N2         -1.3906   -3.2241    2.4704 N.pl3     1 <0>         0.0000
     14 O1         -1.0030   -1.5755    3.9986 O.3       1 <0>         0.0000
     15 H1          3.5366   -6.8521    2.2395 H         1 <0>         0.0000
     16 H2          3.2342   -4.6594    1.1036 H         1 <0>         0.0000
     17 H3          1.5720   -8.0151    3.2299 H         1 <0>         0.0000
     18 H4          0.9905   -3.6265    0.9668 H         1 <0>         0.0000
     19 H5         -0.6789   -6.9852    3.0951 H         1 <0>         0.0000
     20 H6          1.4233   -2.6097    5.3894 H         1 <0>         0.0000
     21 H7          0.1946   -3.1682    6.5578 H         1 <0>         0.0000
     22 H8         -1.2964   -1.3457    6.0368 H         1 <0>         0.0000
     23 H9          0.1545   -0.5350    5.3686 H         1 <0>         0.0000
     24 H10        -1.2863   -3.9949   -0.1417 H         1 <0>         0.0000
     25 H11        -1.9720   -5.6027    0.1213 H         1 <0>         0.0000
     26 H12        -2.9469   -4.1715    0.4882 H         1 <0>         0.0000
     27 H13        -2.0685   -5.2022    2.5698 H         1 <0>         0.0000
     28 H14         0.1212   -4.5110    4.2743 H         1 <0>         0.0000
     29 H15        -1.9070   -2.5122    1.9616 H         1 <0>         0.0000
@<TRIPOS>BOND
     1    1    3 ar
     2    1    2 ar
     3    1   15 1
     4    2    4 ar
     5    2   16 1
     6    3    5 ar
     7    3   17 1
     8    4    6 ar
     9    4   18 1
    10    5    6 ar
    11    5   19 1
    12    6   11 1
    13    7   12 2
    14    7   13 1
    15    7   14 1
    16    8    9 1
    17    8   12 1
    18    8   20 1
    19    8   21 1
    20    9   14 1
    21    9   22 1
    22    9   23 1
    23   10   11 1
    24   10   24 1
    25   10   25 1
    26   10   26 1
    27   11   13 1
    28   11   27 1
    29   12   28 1
    30   13   29 1
