@<TRIPOS>MOLECULE
*****
   36    36     0     0     0
SMALL
NO_CHARGES

@<TRIPOS>ATOM
      1 C1          0.0788    2.2923   -2.0622 C.2       1 <0>         0.0000
      2 C2          2.1402    2.6211   -3.1927 C.2       1 <0>         0.0000
      3 C3         -1.8690    1.1841   -1.0873 C.2       1 <0>         0.0000
      4 C4          4.7167    4.7876   -8.8631 C.3       1 <0>         0.0000
      5 C5         -1.2129    3.4342   -0.3364 C.3       1 <0>         0.0000
      6 C6         -2.9139   -0.8047   -1.9901 C.3       1 <0>         0.0000
      7 C7         -2.3045    1.0147   -3.5466 C.3       1 <0>         0.0000
      8 C8          3.6450    4.1783   -7.9525 C.3       1 <0>         0.0000
      9 C9          4.1441    3.9758   -6.5146 C.3       1 <0>         0.0000
     10 C10         3.0647    3.3756   -5.6180 C.3       1 <0>         0.0000
     11 N1          0.5029    1.2071   -2.6768 N.2       1 <0>         0.0000
     12 N2          1.6937    1.4150   -3.3266 N.2       1 <0>         0.0000
     13 N3         -1.1014    2.3805   -1.3564 N.am      1 <0>         0.0000
     14 N4         -2.3430    0.5253   -2.1757 N.am      1 <0>         0.0000
     15 O1         -2.0979    0.8669    0.0762 O.2       1 <0>         0.0000
     16 O2          3.8363    4.6490   -3.3541 O.2       1 <0>         0.0000
     17 S1          1.1479    3.6904   -2.2189 S.3       1 <0>         0.0000
     18 S2          3.7016    3.2332   -3.8872 S.o       1 <0>         0.0000
     19 H1          5.6007    4.1426   -8.9201 H         1 <0>         0.0000
     20 H2          4.3383    4.9269   -9.8810 H         1 <0>         0.0000
     21 H3          5.0418    5.7650   -8.4896 H         1 <0>         0.0000
     22 H4         -1.1341    4.4135   -0.8173 H         1 <0>         0.0000
     23 H5         -0.4404    3.3375    0.4333 H         1 <0>         0.0000
     24 H6         -2.1878    3.3503    0.1391 H         1 <0>         0.0000
     25 H7         -3.9791   -0.8044   -2.2511 H         1 <0>         0.0000
     26 H8         -2.8038   -1.1017   -0.9490 H         1 <0>         0.0000
     27 H9         -2.3920   -1.5210   -2.6349 H         1 <0>         0.0000
     28 H10        -1.5151    0.5189   -4.1201 H         1 <0>         0.0000
     29 H11        -2.1313    2.0901   -3.5629 H         1 <0>         0.0000
     30 H12        -3.2745    0.8147   -4.0147 H         1 <0>         0.0000
     31 H13         2.7615    4.8291   -7.9386 H         1 <0>         0.0000
     32 H14         3.3143    3.2161   -8.3642 H         1 <0>         0.0000
     33 H15         5.0256    3.3220   -6.5214 H         1 <0>         0.0000
     34 H16         4.4624    4.9374   -6.0969 H         1 <0>         0.0000
     35 H17         2.1765    4.0131   -5.5669 H         1 <0>         0.0000
     36 H18         2.7736    2.3649   -5.9220 H         1 <0>         0.0000
@<TRIPOS>BOND
     1    1   11 2
     2    1   13 1
     3    1   17 1
     4    2   12 2
     5    2   17 1
     6    2   18 1
     7    3   13 am
     8    3   14 am
     9    3   15 2
    10    4    8 1
    11    4   19 1
    12    4   20 1
    13    4   21 1
    14    5   13 1
    15    5   22 1
    16    5   23 1
    17    5   24 1
    18    6   14 1
    19    6   25 1
    20    6   26 1
    21    6   27 1
    22    7   14 1
    23    7   28 1
    24    7   29 1
    25    7   30 1
    26    8    9 1
    27    8   31 1
    28    8   32 1
    29    9   10 1
    30    9   33 1
    31    9   34 1
    32   10   18 1
    33   10   35 1
    34   10   36 1
    35   11   12 1
    36   16   18 2
