@<TRIPOS>MOLECULE
*****
   22    23     0     0     0
SMALL
NO_CHARGES

@<TRIPOS>ATOM
      1 C1         -2.8489   -2.6655    4.1151 C.ar      1 <0>         0.0000
      2 C2         -1.5189   -3.0365    3.9109 C.ar      1 <0>         0.0000
      3 C3         -3.3526   -1.5006    3.5353 C.ar      1 <0>         0.0000
      4 C4         -1.1559   -1.0404    2.5491 C.ar      1 <0>         0.0000
      5 C5         -0.6904   -2.2402    3.1202 C.ar      1 <0>         0.0000
      6 C6         -2.5025   -0.7015    2.7726 C.ar      1 <0>         0.0000
      7 C7          0.7099    0.4893    2.3137 C.2       1 <0>         0.0000
      8 C8          2.3091    1.3106    3.5694 C.3       1 <0>         0.0000
      9 C9          2.3280    2.0319    2.1968 C.3       1 <0>         0.0000
     10 N1          1.1115    0.4586    3.5245 N.2       1 <0>         0.0000
     11 N2         -0.3200   -0.2354    1.7461 N.pl3     1 <0>         0.0000
     12 O1          1.3548    1.2909    1.4070 O.3       1 <0>         0.0000
     13 Cl1         0.9403   -2.7792    2.8111 Cl        1 <0>         0.0000
     14 Cl2        -3.1401    0.7768    2.0662 Cl        1 <0>         0.0000
     15 H1         -3.4972   -3.2905    4.7222 H         1 <0>         0.0000
     16 H2         -1.1234   -3.9495    4.3433 H         1 <0>         0.0000
     17 H3         -4.3855   -1.2025    3.6809 H         1 <0>         0.0000
     18 H4          3.2008    0.6900    3.7211 H         1 <0>         0.0000
     19 H5          2.2477    2.0151    4.4042 H         1 <0>         0.0000
     20 H6          1.9902    3.0712    2.2547 H         1 <0>         0.0000
     21 H7          3.2852    1.9862    1.6741 H         1 <0>         0.0000
     22 H8         -0.7747    0.2470    0.9789 H         1 <0>         0.0000
@<TRIPOS>BOND
     1    1    3 ar
     2    1    2 ar
     3    1   15 1
     4    2    5 ar
     5    2   16 1
     6    3    6 ar
     7    3   17 1
     8    4    6 ar
     9    4    5 ar
    10    4   11 1
    11    5   13 1
    12    6   14 1
    13    7   10 2
    14    7   11 1
    15    7   12 1
    16    8    9 1
    17    8   10 1
    18    8   18 1
    19    8   19 1
    20    9   12 1
    21    9   20 1
    22    9   21 1
    23   11   22 1
