@<TRIPOS>MOLECULE
*****
   31    31     0     0     0
SMALL
NO_CHARGES

@<TRIPOS>ATOM
      1 C1          1.7029   -2.0261   -1.5014 C.ar      1 <0>         0.0000
      2 C2          1.6122   -0.9605   -0.6018 C.ar      1 <0>         0.0000
      3 C3          2.3831   -1.8415   -2.7065 C.ar      1 <0>         0.0000
      4 C4          2.8522    0.3347   -2.1916 C.ar      1 <0>         0.0000
      5 C5          2.2012    0.2604   -0.9486 C.ar      1 <0>         0.0000
      6 C6          4.0119    2.9932    0.6302 C.2       1 <0>         0.0000
      7 C7          1.1688    1.6026    1.0371 C.2       1 <0>         0.0000
      8 C8          5.4037    3.2070    1.1981 C.3       1 <0>         0.0000
      9 C9         -0.1148    3.1966    2.3856 C.3       1 <0>         0.0000
     10 C10         4.1879    0.5434    1.1465 C.3       1 <0>         0.0000
     11 C11         2.2194    1.5085   -0.0864 C.3       1 <0>         0.0000
     12 N1          2.9547   -0.6789   -3.0576 N.ar      1 <0>         0.0000
     13 N2          0.7206    2.8709    1.2366 N.am      1 <0>         0.0000
     14 N3          3.5479    1.7088    0.5362 N.am      1 <0>         0.0000
     15 O1          3.3276    3.9592    0.2579 O.2       1 <0>         0.0000
     16 O2          0.8149    0.6397    1.7242 O.2       1 <0>         0.0000
     17 H1          1.2542   -2.9882   -1.2700 H         1 <0>         0.0000
     18 H2          1.0989   -1.0633    0.3469 H         1 <0>         0.0000
     19 H3          2.4735   -2.6565   -3.4233 H         1 <0>         0.0000
     20 H4          3.3188    1.2718   -2.4981 H         1 <0>         0.0000
     21 H5          6.1395    2.5206    0.7708 H         1 <0>         0.0000
     22 H6          5.6927    4.2350    0.9799 H         1 <0>         0.0000
     23 H7          5.4040    3.0719    2.2851 H         1 <0>         0.0000
     24 H8         -0.5775    4.1722    2.2224 H         1 <0>         0.0000
     25 H9          0.4643    3.2231    3.3170 H         1 <0>         0.0000
     26 H10        -0.8941    2.4401    2.4903 H         1 <0>         0.0000
     27 H11         3.4339   -0.0393    1.6820 H         1 <0>         0.0000
     28 H12         4.9434    0.8563    1.8646 H         1 <0>         0.0000
     29 H13         4.6552   -0.0963    0.3908 H         1 <0>         0.0000
     30 H14         2.0829    2.3659   -0.7460 H         1 <0>         0.0000
     31 H15         1.2664    3.6125    0.8029 H         1 <0>         0.0000
@<TRIPOS>BOND
     1    1    2 ar
     2    1    3 ar
     3    1   17 1
     4    2    5 ar
     5    2   18 1
     6    3   12 ar
     7    3   19 1
     8    4    5 ar
     9    4   12 ar
    10    4   20 1
    11    5   11 1
    12    6    8 1
    13    6   14 am
    14    6   15 2
    15    7   11 1
    16    7   13 am
    17    7   16 2
    18    8   21 1
    19    8   22 1
    20    8   23 1
    21    9   13 1
    22    9   24 1
    23    9   25 1
    24    9   26 1
    25   10   14 1
    26   10   27 1
    27   10   28 1
    28   10   29 1
    29   11   14 1
    30   11   30 1
    31   13   31 1
