@<TRIPOS>MOLECULE
*****
   32    34     0     0     0
SMALL
NO_CHARGES

@<TRIPOS>ATOM
      1 C1          1.9774   -0.2903    8.9436 C.ar      1 <0>         0.0000
      2 C2          1.8851   -1.0363   -0.1124 C.ar      1 <0>         0.0000
      3 C3          0.8066   -0.4630    0.5610 C.ar      1 <0>         0.0000
      4 C4          1.9992    0.9465    8.2990 C.ar      1 <0>         0.0000
      5 C5          2.0466   -1.4669    8.1977 C.ar      1 <0>         0.0000
      6 C6          2.9210   -1.6309    0.6081 C.ar      1 <0>         0.0000
      7 C7          0.7638   -0.4841    1.9551 C.ar      1 <0>         0.0000
      8 C8          2.0904    1.0067    6.9084 C.ar      1 <0>         0.0000
      9 C9          2.1377   -1.4067    6.8071 C.ar      1 <0>         0.0000
     10 C10         2.8783   -1.6520    2.0022 C.ar      1 <0>         0.0000
     11 C11         1.7997   -1.0786    2.6757 C.ar      1 <0>         0.0000
     12 C12         2.1596   -0.1700    6.1624 C.ar      1 <0>         0.0000
     13 C13         3.6844   -3.3910    3.7355 C.3       1 <0>         0.0000
     14 C14         4.3590   -3.7229    2.4412 C.3       1 <0>         0.0000
     15 C15         3.9977   -2.2950    2.7522 C.3       1 <0>         0.0000
     16 N1          1.7380   -1.0906    4.0747 N.2       1 <0>         0.0000
     17 N2          2.2559   -0.1076    4.7105 N.pl3     1 <0>         0.0000
     18 O1          2.8265    0.9051    4.1759 O.3       1 <0>         0.0000
     19 H1          1.9062   -0.3364   10.0263 H         1 <0>         0.0000
     20 H2          1.9178   -1.0200   -1.1980 H         1 <0>         0.0000
     21 H3         -0.0004   -0.0010   -0.0003 H         1 <0>         0.0000
     22 H4          1.9452    1.8626    8.8800 H         1 <0>         0.0000
     23 H5          2.0297   -2.4298    8.6999 H         1 <0>         0.0000
     24 H6          3.7567   -2.0747    0.0732 H         1 <0>         0.0000
     25 H7         -0.0813   -0.0346    2.4705 H         1 <0>         0.0000
     26 H8          2.1076    1.9748    6.4146 H         1 <0>         0.0000
     27 H9          2.1919   -2.3293    6.2350 H         1 <0>         0.0000
     28 H10         2.6564   -3.7091    3.8629 H         1 <0>         0.0000
     29 H11         4.2788   -3.4339    4.6404 H         1 <0>         0.0000
     30 H12         5.4091   -3.9885    2.4734 H         1 <0>         0.0000
     31 H13         3.7854   -4.2656    1.6997 H         1 <0>         0.0000
     32 H14         4.8151   -1.6350    3.0097 H         1 <0>         0.0000
@<TRIPOS>BOND
     1    1    5 ar
     2    1    4 ar
     3    1   19 1
     4    2    3 ar
     5    2    6 ar
     6    2   20 1
     7    3    7 ar
     8    3   21 1
     9    4    8 ar
    10    4   22 1
    11    5    9 ar
    12    5   23 1
    13    6   10 ar
    14    6   24 1
    15    7   11 ar
    16    7   25 1
    17    8   12 ar
    18    8   26 1
    19    9   12 ar
    20    9   27 1
    21   10   11 ar
    22   10   15 1
    23   11   16 1
    24   12   17 1
    25   13   14 1
    26   13   15 1
    27   13   28 1
    28   13   29 1
    29   14   15 1
    30   14   30 1
    31   14   31 1
    32   15   32 1
    33   16   17 2
    34   17   18 1
