@<TRIPOS>MOLECULE
*****
   64    65     0     0     0
SMALL
NO_CHARGES

@<TRIPOS>ATOM
      1 C1          4.0741   -0.2575   -6.3789 C.ar      1 <0>         0.0000
      2 C2          5.1985    0.3187   -5.7828 C.ar      1 <0>         0.0000
      3 C3          3.6269   -1.4769   -4.3445 C.ar      1 <0>         0.0000
      4 C4          3.2753   -1.1600   -5.6639 C.ar      1 <0>         0.0000
      5 C5          2.0743   -1.8004   -6.2814 C.ar      1 <0>         0.0000
      6 C6          4.7462   -0.9168   -3.7155 C.ar      1 <0>         0.0000
      7 C7          0.8813   -1.0713   -6.4511 C.ar      1 <0>         0.0000
      8 C8          2.1286   -3.1583   -6.6500 C.ar      1 <0>         0.0000
      9 C9          5.5078   -0.0233   -4.4718 C.ar      1 <0>         0.0000
     10 C10        -0.2178   -1.7553   -7.0104 C.ar      1 <0>         0.0000
     11 C11         0.9591   -3.7565   -7.1527 C.ar      1 <0>         0.0000
     12 C12         6.1690   -2.4618   -2.3092 C.3       1 <0>         0.0000
     13 C13         0.9098    5.2916   -7.4643 C.3       1 <0>         0.0000
     14 C14        -2.6611   -1.7564   -6.4205 C.3       1 <0>         0.0000
     15 C15        -1.9100   -1.1718   -8.7737 C.3       1 <0>         0.0000
     16 C16         0.5259   -5.4160   -8.9940 C.3       1 <0>         0.0000
     17 C17        -0.1985   -5.9106   -6.6095 C.3       1 <0>         0.0000
     18 C18         5.1489   -1.3087   -2.3135 C.3       1 <0>         0.0000
     19 C19         0.7874    0.3833   -6.0377 C.3       1 <0>         0.0000
     20 C20         3.4045   -3.9454   -6.4897 C.3       1 <0>         0.0000
     21 C21         1.0058    3.8304   -7.9171 C.3       1 <0>         0.0000
     22 C22         0.9380    1.3711   -7.2087 C.3       1 <0>         0.0000
     23 C23         0.8438    2.8333   -6.7639 C.3       1 <0>         0.0000
     24 C24        -1.5652   -1.0970   -7.2762 C.3       1 <0>         0.0000
     25 C25         0.8558   -5.2334   -7.5030 C.3       1 <0>         0.0000
     26 N1         -0.1646   -3.0534   -7.3328 N.ar      1 <0>         0.0000
     27 O1          3.3317   -4.6942   -5.2590 O.3       1 <0>         0.0000
     28 F1          6.6129    0.5378   -3.9019 F         1 <0>         0.0000
     29 H1          3.8267   -0.0140   -7.4077 H         1 <0>         0.0000
     30 H2          5.8333    1.0177   -6.3192 H         1 <0>         0.0000
     31 H3          3.0182   -2.1915   -3.7972 H         1 <0>         0.0000
     32 H4          5.7530   -3.3464   -2.8030 H         1 <0>         0.0000
     33 H5          6.4406   -2.7375   -1.2847 H         1 <0>         0.0000
     34 H6          7.0832   -2.1754   -2.8385 H         1 <0>         0.0000
     35 H7          1.6850    5.5277   -6.7261 H         1 <0>         0.0000
     36 H8          1.0302    5.9813   -8.3068 H         1 <0>         0.0000
     37 H9         -0.0617    5.4981   -7.0004 H         1 <0>         0.0000
     38 H10        -2.7455   -2.8184   -6.6669 H         1 <0>         0.0000
     39 H11        -3.6301   -1.2774   -6.6006 H         1 <0>         0.0000
     40 H12        -2.4326   -1.6734   -5.3522 H         1 <0>         0.0000
     41 H13        -1.9708   -2.2148   -9.0966 H         1 <0>         0.0000
     42 H14        -1.1469   -0.6730   -9.3814 H         1 <0>         0.0000
     43 H15        -2.8732   -0.6879   -8.9706 H         1 <0>         0.0000
     44 H16        -0.4289   -4.9385   -9.2320 H         1 <0>         0.0000
     45 H17         0.4548   -6.4802   -9.2452 H         1 <0>         0.0000
     46 H18         1.2967   -4.9665   -9.6303 H         1 <0>         0.0000
     47 H19        -1.1804   -5.4549   -6.7661 H         1 <0>         0.0000
     48 H20         0.0653   -5.8084   -5.5520 H         1 <0>         0.0000
     49 H21        -0.2682   -6.9788   -6.8442 H         1 <0>         0.0000
     50 H22         5.5747   -0.4450   -1.7939 H         1 <0>         0.0000
     51 H23         4.2545   -1.6102   -1.7587 H         1 <0>         0.0000
     52 H24        -0.1694    0.5666   -5.5370 H         1 <0>         0.0000
     53 H25         1.5607    0.6003   -5.2962 H         1 <0>         0.0000
     54 H26         3.5411   -4.6265   -7.3390 H         1 <0>         0.0000
     55 H27         4.2625   -3.2657   -6.4672 H         1 <0>         0.0000
     56 H28         0.2399    3.6308   -8.6782 H         1 <0>         0.0000
     57 H29         1.9739    3.6612   -8.4071 H         1 <0>         0.0000
     58 H30         0.1726    1.1657   -7.9672 H         1 <0>         0.0000
     59 H31         1.9028    1.1998   -7.7004 H         1 <0>         0.0000
     60 H32        -0.1241    3.0023   -6.2714 H         1 <0>         0.0000
     61 H33         1.6113    3.0300   -6.0027 H         1 <0>         0.0000
     62 H34        -1.5112   -0.0423   -6.9984 H         1 <0>         0.0000
     63 H35         1.8128   -5.7167   -7.2957 H         1 <0>         0.0000
     64 H36         4.1619   -5.1887   -5.1653 H         1 <0>         0.0000
@<TRIPOS>BOND
     1    1    2 ar
     2    1    4 ar
     3    1   29 1
     4    2    9 ar
     5    2   30 1
     6    3    4 ar
     7    3    6 ar
     8    3   31 1
     9    4    5 1
    10    5    7 ar
    11    5    8 ar
    12    6    9 ar
    13    6   18 1
    14    7   10 ar
    15    7   19 1
    16    8   11 ar
    17    8   20 1
    18    9   28 1
    19   10   24 1
    20   10   26 ar
    21   11   25 1
    22   11   26 ar
    23   12   18 1
    24   12   32 1
    25   12   33 1
    26   12   34 1
    27   13   21 1
    28   13   35 1
    29   13   36 1
    30   13   37 1
    31   14   24 1
    32   14   38 1
    33   14   39 1
    34   14   40 1
    35   15   24 1
    36   15   41 1
    37   15   42 1
    38   15   43 1
    39   16   25 1
    40   16   44 1
    41   16   45 1
    42   16   46 1
    43   17   25 1
    44   17   47 1
    45   17   48 1
    46   17   49 1
    47   18   50 1
    48   18   51 1
    49   19   22 1
    50   19   52 1
    51   19   53 1
    52   20   27 1
    53   20   54 1
    54   20   55 1
    55   21   23 1
    56   21   56 1
    57   21   57 1
    58   22   23 1
    59   22   58 1
    60   22   59 1
    61   23   60 1
    62   23   61 1
    63   24   62 1
    64   25   63 1
    65   27   64 1
