@<TRIPOS>MOLECULE
*****
   73    76     0     0     0
SMALL
NO_CHARGES

@<TRIPOS>ATOM
      1 C1          7.4403    3.7342    7.8172 C.ar      1 <0>         0.0000
      2 C2          7.0534   -5.3670    5.4326 C.ar      1 <0>         0.0000
      3 C3          7.1766    3.5120    6.4600 C.ar      1 <0>         0.0000
      4 C4          7.5365    2.6434    8.6866 C.ar      1 <0>         0.0000
      5 C5          6.1861   -4.6656    6.2778 C.ar      1 <0>         0.0000
      6 C6          8.1892   -4.7248    4.9290 C.ar      1 <0>         0.0000
      7 C7         -9.4428   -0.6577   -0.4383 C.ar      1 <0>         0.0000
      8 C8        -10.3280   -1.5247    0.2064 C.ar      1 <0>         0.0000
      9 C9          7.0123    2.2115    5.9801 C.ar      1 <0>         0.0000
     10 C10         7.3810    1.3420    8.2004 C.ar      1 <0>         0.0000
     11 C11         6.4477   -3.3348    6.6059 C.ar      1 <0>         0.0000
     12 C12         8.4530   -3.3948    5.2673 C.ar      1 <0>         0.0000
     13 C13         4.4504    0.0226    6.0837 C.ar      1 <0>         0.0000
     14 C14         5.6068   -1.1470    4.3314 C.ar      1 <0>         0.0000
     15 C15         3.2331   -0.1556    5.4180 C.ar      1 <0>         0.0000
     16 C16         4.4090   -1.3235    3.6511 C.ar      1 <0>         0.0000
     17 C17        -8.3152   -0.2134    0.2522 C.ar      1 <0>         0.0000
     18 C18       -10.0407   -1.9112    1.5186 C.ar      1 <0>         0.0000
     19 C19         7.1290    1.1047    6.8391 C.ar      1 <0>         0.0000
     20 C20         5.6536   -0.4819    5.5722 C.ar      1 <0>         0.0000
     21 C21         7.5794   -2.6731    6.0981 C.ar      1 <0>         0.0000
     22 C22         3.2089   -0.8366    4.1937 C.ar      1 <0>         0.0000
     23 C23        -8.1155   -0.6631    1.5651 C.ar      1 <0>         0.0000
     24 C24         6.9318   -0.2769    6.3105 C.2       1 <0>         0.0000
     25 C25         7.8592   -1.2570    6.4730 C.2       1 <0>         0.0000
     26 C26         9.4714   -1.7387    8.3921 C.3       1 <0>         0.0000
     27 C27        -6.9093   -0.2337    2.3588 C.3       1 <0>         0.0000
     28 C28         9.2376   -1.0133    7.0560 C.3       1 <0>         0.0000
     29 C29        -1.6396   -0.5223    3.4045 C.3       1 <0>         0.0000
     30 C30        -0.2480   -0.9848    2.9589 C.3       1 <0>         0.0000
     31 C31        -2.7290   -0.9177    2.3991 C.3       1 <0>         0.0000
     32 C32         0.8318   -0.5941    3.9574 C.3       1 <0>         0.0000
     33 C33        -4.1100   -0.4492    2.8585 C.3       1 <0>         0.0000
     34 N1         -8.9592   -1.4976    2.1920 N.ar      1 <0>         0.0000
     35 O1         -5.0981   -0.2175    0.3833 O.2       1 <0>         0.0000
     36 O2         -5.4697   -2.4066    1.6451 O.2       1 <0>         0.0000
     37 O3          2.0809   -1.0661    3.4516 O.3       1 <0>         0.0000
     38 S1         -5.3730   -0.9385    1.6427 S.o2      1 <0>         0.0000
     39 H1          7.5612    4.7469    8.1931 H         1 <0>         0.0000
     40 H2          6.8484   -6.4023    5.1725 H         1 <0>         0.0000
     41 H3          7.0953    4.3538    5.7768 H         1 <0>         0.0000
     42 H4          7.7265    2.8046    9.7449 H         1 <0>         0.0000
     43 H5          5.3038   -5.1563    6.6812 H         1 <0>         0.0000
     44 H6          8.8701   -5.2590    4.2708 H         1 <0>         0.0000
     45 H7         -9.6246   -0.3348   -1.4599 H         1 <0>         0.0000
     46 H8        -11.2195   -1.8966   -0.2905 H         1 <0>         0.0000
     47 H9          6.7928    2.0441    4.9289 H         1 <0>         0.0000
     48 H10         7.4414    0.4988    8.8824 H         1 <0>         0.0000
     49 H11         5.7677   -2.7924    7.2559 H         1 <0>         0.0000
     50 H12         9.3348   -2.9071    4.8597 H         1 <0>         0.0000
     51 H13         4.4585    0.5630    7.0265 H         1 <0>         0.0000
     52 H14         6.5239   -1.5300    3.8962 H         1 <0>         0.0000
     53 H15         2.3257    0.2422    5.8583 H         1 <0>         0.0000
     54 H16         4.3776   -1.8350    2.6934 H         1 <0>         0.0000
     55 H17        -7.5882    0.4440   -0.2137 H         1 <0>         0.0000
     56 H18       -10.7070   -2.5851    2.0545 H         1 <0>         0.0000
     57 H19         9.3322   -2.8187    8.2853 H         1 <0>         0.0000
     58 H20         8.7721   -1.3881    9.1584 H         1 <0>         0.0000
     59 H21        10.4890   -1.5605    8.7558 H         1 <0>         0.0000
     60 H22        -6.9928   -0.6057    3.3812 H         1 <0>         0.0000
     61 H23        -6.7633    0.8496    2.3479 H         1 <0>         0.0000
     62 H24         9.4172    0.0566    7.1742 H         1 <0>         0.0000
     63 H25         9.9848   -1.3735    6.3367 H         1 <0>         0.0000
     64 H26        -1.8744   -0.9542    4.3866 H         1 <0>         0.0000
     65 H27        -1.6410    0.5681    3.5356 H         1 <0>         0.0000
     66 H28        -0.0013   -0.5498    1.9838 H         1 <0>         0.0000
     67 H29        -0.2357   -2.0735    2.8336 H         1 <0>         0.0000
     68 H30        -2.5082   -0.4813    1.4198 H         1 <0>         0.0000
     69 H31        -2.7418   -2.0050    2.2738 H         1 <0>         0.0000
     70 H32         0.8673    0.4973    4.0832 H         1 <0>         0.0000
     71 H33         0.6324   -1.0439    4.9402 H         1 <0>         0.0000
     72 H34        -4.3995   -0.9083    3.8084 H         1 <0>         0.0000
     73 H35        -4.1613    0.6404    2.9456 H         1 <0>         0.0000
@<TRIPOS>BOND
     1    1    4 ar
     2    1    3 ar
     3    1   39 1
     4    2    6 ar
     5    2    5 ar
     6    2   40 1
     7    3    9 ar
     8    3   41 1
     9    4   10 ar
    10    4   42 1
    11    5   11 ar
    12    5   43 1
    13    6   12 ar
    14    6   44 1
    15    7    8 ar
    16    7   17 ar
    17    7   45 1
    18    8   18 ar
    19    8   46 1
    20    9   19 ar
    21    9   47 1
    22   10   19 ar
    23   10   48 1
    24   11   21 ar
    25   11   49 1
    26   12   21 ar
    27   12   50 1
    28   13   15 ar
    29   13   20 ar
    30   13   51 1
    31   14   16 ar
    32   14   20 ar
    33   14   52 1
    34   15   22 ar
    35   15   53 1
    36   16   22 ar
    37   16   54 1
    38   17   23 ar
    39   17   55 1
    40   18   34 ar
    41   18   56 1
    42   19   24 1
    43   20   24 1
    44   21   25 1
    45   22   37 1
    46   23   27 1
    47   23   34 ar
    48   24   25 2
    49   25   28 1
    50   26   28 1
    51   26   57 1
    52   26   58 1
    53   26   59 1
    54   27   38 1
    55   27   60 1
    56   27   61 1
    57   28   62 1
    58   28   63 1
    59   29   30 1
    60   29   31 1
    61   29   64 1
    62   29   65 1
    63   30   32 1
    64   30   66 1
    65   30   67 1
    66   31   33 1
    67   31   68 1
    68   31   69 1
    69   32   37 1
    70   32   70 1
    71   32   71 1
    72   33   38 1
    73   33   72 1
    74   33   73 1
    75   35   38 2
    76   36   38 2
