@<TRIPOS>MOLECULE
*****
   48    48     0     0     0
SMALL
NO_CHARGES

@<TRIPOS>ATOM
      1 C1          0.8506    1.5233    1.2516 C.2       1 <0>         0.0000
      2 C2          0.4113    2.5514   -1.5160 C.2       1 <0>         0.0000
      3 C3         -2.3452    1.8311    2.1483 C.3       1 <0>         0.0000
      4 C4         -1.0669    3.2203    0.8435 C.3       1 <0>         0.0000
      5 C5         -1.5793    0.8814    1.2277 C.3       1 <0>         0.0000
      6 C6         -0.4985    1.7864    0.5473 C.3       1 <0>         0.0000
      7 C7          3.1920    2.4254    2.9629 C.3       1 <0>         0.0000
      8 C8          1.4195    2.3734    4.7520 C.3       1 <0>         0.0000
      9 C9          2.1052    0.2229    3.6378 C.3       1 <0>         0.0000
     10 C10         2.7910    2.2111   -3.0746 C.3       1 <0>         0.0000
     11 C11         1.1832    2.0915   -5.0049 C.3       1 <0>         0.0000
     12 C12         1.5788    4.3092   -3.8486 C.3       1 <0>         0.0000
     13 C13         1.9162    1.7324    3.4534 C.3       1 <0>         0.0000
     14 C14         1.5062    2.7875   -3.6803 C.3       1 <0>         0.0000
     15 N1         -0.3503    1.5929   -0.8966 N.am      1 <0>         0.0000
     16 O1         -1.7511    0.1767   -2.6110 O.3       1 <0>         0.0000
     17 O2          1.7844    0.9428    0.7516 O.2       1 <0>         0.0000
     18 O3          1.0243    3.4441   -0.9219 O.2       1 <0>         0.0000
     19 O4          0.7036   -0.2691   -2.4845 O.2       1 <0>         0.0000
     20 O5         -0.7838   -0.9566   -0.6169 O.2       1 <0>         0.0000
     21 O6         -2.3569    3.0697    1.4632 O.3       1 <0>         0.0000
     22 O7          0.8128    1.9959    2.5240 O.3       1 <0>         0.0000
     23 O8          0.3474    2.4408   -2.8590 O.3       1 <0>         0.0000
     24 F1         -1.0383   -0.1503    2.0010 F         1 <0>         0.0000
     25 S1         -0.5671   -0.0631   -1.7685 S.o2      1 <0>         0.0000
     26 H1         -3.3796    1.5169    2.3125 H         1 <0>         0.0000
     27 H2         -1.8235    1.8987    3.1142 H         1 <0>         0.0000
     28 H3         -0.3954    3.7736    1.5033 H         1 <0>         0.0000
     29 H4         -1.2195    3.7845   -0.0720 H         1 <0>         0.0000
     30 H5         -2.2136    0.4268    0.4717 H         1 <0>         0.0000
     31 H6          3.5517    1.9739    2.0382 H         1 <0>         0.0000
     32 H7          2.9987    3.4874    2.7806 H         1 <0>         0.0000
     33 H8          3.9717    2.3414    3.7288 H         1 <0>         0.0000
     34 H9          0.4888    1.8998    5.0791 H         1 <0>         0.0000
     35 H10         1.2296    3.4411    4.6042 H         1 <0>         0.0000
     36 H11         2.1684    2.2570    5.5424 H         1 <0>         0.0000
     37 H12         1.1505   -0.2470    3.8911 H         1 <0>         0.0000
     38 H13         2.4864   -0.2428    2.7291 H         1 <0>         0.0000
     39 H14         2.8135    0.0438    4.4551 H         1 <0>         0.0000
     40 H15         3.0641    2.7290   -2.1532 H         1 <0>         0.0000
     41 H16         2.6459    1.1510   -2.8535 H         1 <0>         0.0000
     42 H17         3.6094    2.3221   -3.7958 H         1 <0>         0.0000
     43 H18         0.2369    2.4656   -5.4086 H         1 <0>         0.0000
     44 H19         1.0817    1.0173   -4.8331 H         1 <0>         0.0000
     45 H20         1.9780    2.2772   -5.7364 H         1 <0>         0.0000
     46 H21         0.6345    4.6893   -4.2535 H         1 <0>         0.0000
     47 H22         1.7665    4.7898   -2.8867 H         1 <0>         0.0000
     48 H23         2.3843    4.5707   -4.5457 H         1 <0>         0.0000
@<TRIPOS>BOND
     1    1    6 1
     2    1   17 2
     3    1   22 1
     4    2   15 am
     5    2   18 2
     6    2   23 1
     7    3    5 1
     8    3   21 1
     9    3   26 1
    10    3   27 1
    11    4    6 1
    12    4   21 1
    13    4   28 1
    14    4   29 1
    15    5    6 1
    16    5   24 1
    17    5   30 1
    18    6   15 1
    19    7   13 1
    20    7   31 1
    21    7   32 1
    22    7   33 1
    23    8   13 1
    24    8   34 1
    25    8   35 1
    26    8   36 1
    27    9   13 1
    28    9   37 1
    29    9   38 1
    30    9   39 1
    31   10   14 1
    32   10   40 1
    33   10   41 1
    34   10   42 1
    35   11   14 1
    36   11   43 1
    37   11   44 1
    38   11   45 1
    39   12   14 1
    40   12   46 1
    41   12   47 1
    42   12   48 1
    43   13   22 1
    44   14   23 1
    45   15   25 1
    46   16   25 1
    47   19   25 2
    48   20   25 2
