@<TRIPOS>MOLECULE
*****
   30    32     0     0     0
SMALL
NO_CHARGES

@<TRIPOS>ATOM
      1 C1          1.8574   -1.0629   -0.0521 C.ar      1 <0>         0.0000
      2 C2          0.4858   -1.0809   -0.3405 C.ar      1 <0>         0.0000
      3 C3          2.6330   -2.2208   -0.1848 C.ar      1 <0>         0.0000
      4 C4         -0.1262   -2.2612   -0.7762 C.ar      1 <0>         0.0000
      5 C5          2.0229   -3.3993   -0.6154 C.ar      1 <0>         0.0000
      6 C6          0.6532   -3.4115   -0.9141 C.ar      1 <0>         0.0000
      7 C7         -0.8593   -4.4705   -3.6227 C.cat     1 <0>         0.0000
      8 C8          2.6360   -4.7679   -0.8242 C.3       1 <0>         0.0000
      9 C9          1.3970   -5.6930   -0.9126 C.3       1 <0>         0.0000
     10 C10        -2.8992   -3.6348   -4.3145 C.3       1 <0>         0.0000
     11 C11        -2.0801   -4.1536   -5.5100 C.3       1 <0>         0.0000
     12 C12         0.2443   -4.7875   -1.4014 C.3       1 <0>         0.0000
     13 N1         -2.0835   -4.1402   -3.1953 N.pl3     1 <0>         0.0000
     14 N2          0.1730   -4.8353   -2.8953 N.pl3     1 <0>         0.0000
     15 O1         -0.7500   -4.4326   -4.9421 O.3       1 <0>         0.0000
     16 H1          2.3195   -0.1420    0.2921 H         1 <0>         0.0000
     17 H2         -0.1049   -0.1787   -0.2114 H         1 <0>         0.0000
     18 H3          3.6924   -2.2001    0.0571 H         1 <0>         0.0000
     19 H4         -1.1972   -2.2661   -0.9720 H         1 <0>         0.0000
     20 H5          3.2322   -4.7913   -1.7456 H         1 <0>         0.0000
     21 H6          3.3060   -5.0608   -0.0119 H         1 <0>         0.0000
     22 H7          1.5363   -6.5749   -1.5439 H         1 <0>         0.0000
     23 H8          1.1350   -6.0458    0.0878 H         1 <0>         0.0000
     24 H9         -2.9578   -2.5432   -4.2846 H         1 <0>         0.0000
     25 H10        -3.9041   -4.0579   -4.2862 H         1 <0>         0.0000
     26 H11        -2.4580   -5.0953   -5.9103 H         1 <0>         0.0000
     27 H12        -1.9410   -3.4264   -6.3073 H         1 <0>         0.0000
     28 H13        -0.7260   -5.1320   -1.0319 H         1 <0>         0.0000
     29 H14        -2.2912   -3.9446   -2.2246 H         1 <0>         0.0000
     30 H15         1.0288   -5.0192   -3.4116 H         1 <0>         0.0000
@<TRIPOS>BOND
     1    1    2 ar
     2    1    3 ar
     3    1   16 1
     4    2    4 ar
     5    2   17 1
     6    3    5 ar
     7    3   18 1
     8    4    6 ar
     9    4   19 1
    10    5    6 ar
    11    5    8 1
    12    6   12 1
    13    7   13 2
    14    7   14 1
    15    7   15 1
    16    8    9 1
    17    8   20 1
    18    8   21 1
    19    9   12 1
    20    9   22 1
    21    9   23 1
    22   10   11 1
    23   10   13 1
    24   10   24 1
    25   10   25 1
    26   11   15 1
    27   11   26 1
    28   11   27 1
    29   12   14 1
    30   12   28 1
    31   13   29 1
    32   14   30 1
