@<TRIPOS>MOLECULE
*****
   29    31     0     0     0
SMALL
NO_CHARGES

@<TRIPOS>ATOM
      1 C1          0.9436   -1.1049    1.3089 C.ar      1 <0>         0.0000
      2 C2          0.0989   -0.9294    0.2046 C.ar      1 <0>         0.0000
      3 C3          1.8091   -2.2056    1.3760 C.ar      1 <0>         0.0000
      4 C4          0.1082   -1.8548   -0.8477 C.ar      1 <0>         0.0000
      5 C5          1.8233   -3.1223    0.3245 C.ar      1 <0>         0.0000
      6 C6          0.9759   -2.9434   -0.7766 C.ar      1 <0>         0.0000
      7 C7          0.9370   -4.5432   -4.1535 C.2       1 <0>         0.0000
      8 C8          2.6439   -4.3864    0.1597 C.3       1 <0>         0.0000
      9 C9          2.5184   -4.6900   -1.3522 C.3       1 <0>         0.0000
     10 C10         0.5048   -6.3046   -5.4021 C.3       1 <0>         0.0000
     11 C11         0.9733   -5.1440   -6.3176 C.3       1 <0>         0.0000
     12 C12         1.1559   -4.0744   -1.7689 C.3       1 <0>         0.0000
     13 N1          0.6722   -5.7930   -4.0348 N.2       1 <0>         0.0000
     14 N2          1.0593   -3.6214   -3.1515 N.pl3     1 <0>         0.0000
     15 O1          1.0752   -4.0103   -5.4139 O.3       1 <0>         0.0000
     16 H1          0.9304   -0.3781    2.1174 H         1 <0>         0.0000
     17 H2         -0.5647   -0.0693    0.1645 H         1 <0>         0.0000
     18 H3          2.4660   -2.3339    2.2338 H         1 <0>         0.0000
     19 H4         -0.5433   -1.7261   -1.7087 H         1 <0>         0.0000
     20 H5          3.6816   -4.2703    0.4882 H         1 <0>         0.0000
     21 H6          2.2069   -5.1982    0.7561 H         1 <0>         0.0000
     22 H7          3.3137   -4.1676   -1.8976 H         1 <0>         0.0000
     23 H8          2.5810   -5.7517   -1.5985 H         1 <0>         0.0000
     24 H9         -0.5454   -6.5682   -5.5811 H         1 <0>         0.0000
     25 H10         1.1017   -7.2101   -5.5517 H         1 <0>         0.0000
     26 H11         1.9622   -5.3153   -6.7548 H         1 <0>         0.0000
     27 H12         0.2673   -4.8804   -7.1080 H         1 <0>         0.0000
     28 H13         0.3643   -4.8200   -1.6387 H         1 <0>         0.0000
     29 H14         1.6065   -2.8033   -3.3955 H         1 <0>         0.0000
@<TRIPOS>BOND
     1    1    2 ar
     2    1    3 ar
     3    1   16 1
     4    2    4 ar
     5    2   17 1
     6    3    5 ar
     7    3   18 1
     8    4    6 ar
     9    4   19 1
    10    5    6 ar
    11    5    8 1
    12    6   12 1
    13    7   13 2
    14    7   14 1
    15    7   15 1
    16    8    9 1
    17    8   20 1
    18    8   21 1
    19    9   12 1
    20    9   22 1
    21    9   23 1
    22   10   11 1
    23   10   13 1
    24   10   24 1
    25   10   25 1
    26   11   15 1
    27   11   26 1
    28   11   27 1
    29   12   14 1
    30   12   28 1
    31   14   29 1
