@<TRIPOS>MOLECULE
*****
   29    31     0     0     0
SMALL
NO_CHARGES

@<TRIPOS>ATOM
      1 C1          1.6143   -0.8444    0.4004 C.ar      1 <0>         0.0000
      2 C2          0.2737   -0.9686    0.0083 C.ar      1 <0>         0.0000
      3 C3          2.5139   -1.9007    0.2104 C.ar      1 <0>         0.0000
      4 C4         -0.1831   -2.1550   -0.5779 C.ar      1 <0>         0.0000
      5 C5          2.0561   -3.0857   -0.3697 C.ar      1 <0>         0.0000
      6 C6          0.7144   -3.2086   -0.7534 C.ar      1 <0>         0.0000
      7 C7          0.0974   -5.4523   -3.6712 C.2       1 <0>         0.0000
      8 C8          2.8248   -4.3504   -0.6959 C.3       1 <0>         0.0000
      9 C9          1.7021   -5.3843   -0.9535 C.3       1 <0>         0.0000
     10 C10        -0.1560   -6.8046   -5.3919 C.3       1 <0>         0.0000
     11 C11        -0.7069   -7.5008   -4.1211 C.3       1 <0>         0.0000
     12 C12         0.4601   -4.5596   -1.3923 C.3       1 <0>         0.0000
     13 N1          0.4508   -5.5599   -4.9004 N.2       1 <0>         0.0000
     14 N2          0.3242   -4.3807   -2.8487 N.pl3     1 <0>         0.0000
     15 O1         -0.6295   -6.4694   -3.1001 O.3       1 <0>         0.0000
     16 H1          1.9569    0.0809    0.8571 H         1 <0>         0.0000
     17 H2         -0.4124   -0.1397    0.1625 H         1 <0>         0.0000
     18 H3          3.5530   -1.7965    0.5153 H         1 <0>         0.0000
     19 H4         -1.2195   -2.2543   -0.8915 H         1 <0>         0.0000
     20 H5          3.4449   -4.1997   -1.5889 H         1 <0>         0.0000
     21 H6          3.4991   -4.6566    0.1100 H         1 <0>         0.0000
     22 H7          1.9685   -6.1437   -1.6927 H         1 <0>         0.0000
     23 H8          1.4616   -5.9010   -0.0183 H         1 <0>         0.0000
     24 H9          0.5884   -7.4208   -5.9066 H         1 <0>         0.0000
     25 H10        -0.9528   -6.5793   -6.1123 H         1 <0>         0.0000
     26 H11        -1.7486   -7.8195   -4.1964 H         1 <0>         0.0000
     27 H12        -0.0911   -8.3441   -3.7924 H         1 <0>         0.0000
     28 H13        -0.4648   -5.0216   -1.0421 H         1 <0>         0.0000
     29 H14         0.9546   -3.7066   -3.2689 H         1 <0>         0.0000
@<TRIPOS>BOND
     1    1    2 ar
     2    1    3 ar
     3    1   16 1
     4    2    4 ar
     5    2   17 1
     6    3    5 ar
     7    3   18 1
     8    4    6 ar
     9    4   19 1
    10    5    6 ar
    11    5    8 1
    12    6   12 1
    13    7   13 2
    14    7   14 1
    15    7   15 1
    16    8    9 1
    17    8   20 1
    18    8   21 1
    19    9   12 1
    20    9   22 1
    21    9   23 1
    22   10   11 1
    23   10   13 1
    24   10   24 1
    25   10   25 1
    26   11   15 1
    27   11   26 1
    28   11   27 1
    29   12   14 1
    30   12   28 1
    31   14   29 1
