@<TRIPOS>MOLECULE
*****
   29    31     0     0     0
SMALL
NO_CHARGES

@<TRIPOS>ATOM
      1 C1          1.3431   -1.2823    0.8002 C.ar      1 <0>         0.0000
      2 C2          0.5309   -0.9570   -0.2946 C.ar      1 <0>         0.0000
      3 C3          1.9707   -2.5332    0.8734 C.ar      1 <0>         0.0000
      4 C4          0.3353   -1.8820   -1.3281 C.ar      1 <0>         0.0000
      5 C5          1.7781   -3.4506   -0.1599 C.ar      1 <0>         0.0000
      6 C6          0.9644   -3.1218   -1.2485 C.ar      1 <0>         0.0000
      7 C7          1.7650   -3.0806   -4.2030 C.2       1 <0>         0.0000
      8 C8          2.3347   -4.8518   -0.3154 C.3       1 <0>         0.0000
      9 C9          2.1032   -5.1643   -1.8135 C.3       1 <0>         0.0000
     10 C10         3.4804   -1.8013   -4.7241 C.3       1 <0>         0.0000
     11 C11         2.4596   -1.7670   -5.8909 C.3       1 <0>         0.0000
     12 C12         0.8933   -4.2867   -2.2239 C.3       1 <0>         0.0000
     13 N1          2.9370   -2.7853   -3.7789 N.2       1 <0>         0.0000
     14 N2          0.8529   -3.9363   -3.6452 N.pl3     1 <0>         0.0000
     15 O1          1.3194   -2.5049   -5.3739 O.3       1 <0>         0.0000
     16 H1          1.4932   -0.5547    1.5941 H         1 <0>         0.0000
     17 H2          0.0566    0.0201   -0.3434 H         1 <0>         0.0000
     18 H3          2.6091   -2.7763    1.7204 H         1 <0>         0.0000
     19 H4         -0.2817   -1.6250   -2.1869 H         1 <0>         0.0000
     20 H5          3.3890   -4.9221   -0.0300 H         1 <0>         0.0000
     21 H6          1.7805   -5.5513    0.3250 H         1 <0>         0.0000
     22 H7          2.9679   -4.8376   -2.3929 H         1 <0>         0.0000
     23 H8          1.9263   -6.2246   -2.0136 H         1 <0>         0.0000
     24 H9          4.4779   -2.0991   -5.0633 H         1 <0>         0.0000
     25 H10         3.5758   -0.8253   -4.2321 H         1 <0>         0.0000
     26 H11         2.1167   -0.7659   -6.1605 H         1 <0>         0.0000
     27 H12         2.8161   -2.2844   -6.7873 H         1 <0>         0.0000
     28 H13        -0.0349   -4.8439   -2.0443 H         1 <0>         0.0000
     29 H14        -0.0634   -3.8718   -4.0680 H         1 <0>         0.0000
@<TRIPOS>BOND
     1    1    2 ar
     2    1    3 ar
     3    1   16 1
     4    2    4 ar
     5    2   17 1
     6    3    5 ar
     7    3   18 1
     8    4    6 ar
     9    4   19 1
    10    5    6 ar
    11    5    8 1
    12    6   12 1
    13    7   13 2
    14    7   14 1
    15    7   15 1
    16    8    9 1
    17    8   20 1
    18    8   21 1
    19    9   12 1
    20    9   22 1
    21    9   23 1
    22   10   11 1
    23   10   13 1
    24   10   24 1
    25   10   25 1
    26   11   15 1
    27   11   26 1
    28   11   27 1
    29   12   14 1
    30   12   28 1
    31   14   29 1
