@<TRIPOS>MOLECULE
*****
   34    36     0     0     0
SMALL
NO_CHARGES

@<TRIPOS>ATOM
      1 C1          2.0311    8.4973   -3.8865 C.ar      1 <0>         0.0000
      2 C2          1.5508    7.4292   -3.1570 C.ar      1 <0>         0.0000
      3 C3          1.8861    6.2356    0.3959 C.ar      1 <0>         0.0000
      4 C4          2.9499    3.4765   -0.8839 C.ar      1 <0>         0.0000
      5 C5          1.2141    2.6055    0.5860 C.ar      1 <0>         0.0000
      6 C6          2.6905    7.2579    0.9333 C.ar      1 <0>         0.0000
      7 C7          3.9057    2.7351   -0.1973 C.ar      1 <0>         0.0000
      8 C8          2.1706    1.8813    1.2941 C.ar      1 <0>         0.0000
      9 C9          2.8842    9.4418   -3.2611 C.ar      1 <0>         0.0000
     10 C10         1.9167    7.3050   -1.7914 C.ar      1 <0>         0.0000
     11 C11         2.7642    8.3161   -1.2621 C.ar      1 <0>         0.0000
     12 C12         1.6056    3.4345   -0.4752 C.ar      1 <0>         0.0000
     13 C13         1.5104    6.2251   -0.9443 C.ar      1 <0>         0.0000
     14 C14         3.1482    8.2795    0.1168 C.ar      1 <0>         0.0000
     15 C15         3.5088    1.9637    0.9002 C.ar      1 <0>         0.0000
     16 N1          3.2410    9.3618   -1.9913 N.ar      1 <0>         0.0000
     17 N2          0.5784    4.0745   -1.2375 N.2       1 <0>         0.0000
     18 N3          0.5974    5.2989   -1.5182 N.2       1 <0>         0.0000
     19 O1          4.0941   -0.0738    2.4720 O.2       1 <0>         0.0000
     20 O2          5.9382    0.8957    0.9849 O.2       1 <0>         0.0000
     21 O3          3.9402    9.2616    0.5933 O.3       1 <0>         0.0000
     22 O4          5.1374    2.1185    3.0044 O.3       1 <0>         0.0000
     23 S1          4.7382    1.0468    1.8084 S.o2      1 <0>         0.0000
     24 H1          1.7645    8.6271   -4.9311 H         1 <0>         0.0000
     25 H2          0.8925    6.6891   -3.6005 H         1 <0>         0.0000
     26 H3          1.5351    5.4543    1.0601 H         1 <0>         0.0000
     27 H4          3.2376    4.0845   -1.7358 H         1 <0>         0.0000
     28 H5          0.1624    2.5425    0.8494 H         1 <0>         0.0000
     29 H6          2.9590    7.2544    1.9851 H         1 <0>         0.0000
     30 H7          4.9450    2.7416   -0.5104 H         1 <0>         0.0000
     31 H8          1.8867    1.2435    2.1250 H         1 <0>         0.0000
     32 H9          3.2761   10.2852   -3.8273 H         1 <0>         0.0000
     33 H10         4.1093    9.8578   -0.1702 H         1 <0>         0.0000
     34 H11         6.0361    2.4491    2.8123 H         1 <0>         0.0000
@<TRIPOS>BOND
     1    1    2 ar
     2    1    9 ar
     3    1   24 1
     4    2   10 ar
     5    2   25 1
     6    3    6 ar
     7    3   13 ar
     8    3   26 1
     9    4    7 ar
    10    4   12 ar
    11    4   27 1
    12    5    8 ar
    13    5   12 ar
    14    5   28 1
    15    6   14 ar
    16    6   29 1
    17    7   15 ar
    18    7   30 1
    19    8   15 ar
    20    8   31 1
    21    9   16 ar
    22    9   32 1
    23   10   11 ar
    24   10   13 ar
    25   11   14 ar
    26   11   16 ar
    27   12   17 1
    28   13   18 1
    29   14   21 1
    30   15   23 1
    31   17   18 2
    32   19   23 2
    33   20   23 2
    34   21   33 1
    35   22   23 1
    36   22   34 1
