@<TRIPOS>MOLECULE
*****
   13    13     0     0     0
SMALL
NO_CHARGES

@<TRIPOS>ATOM
      1 C1          1.9443   -0.6075    1.5430 C.2       1 <0>         0.0000
      2 C2          1.0855   -0.5074    2.6012 C.2       1 <0>         0.0000
      3 C3          0.5923   -2.5744    2.0489 C.2       1 <0>         0.0000
      4 C4         -0.0934   -3.9138    2.0422 C.3       1 <0>         0.0000
      5 N1          0.3279   -1.6108    2.8915 N.2       1 <0>         0.0000
      6 N2          0.7470   -4.9107    1.3713 N.3       1 <0>         0.0000
      7 S1          1.8079   -2.1920    0.8459 S.3       1 <0>         0.0000
      8 Br1         0.9122    1.0513    3.6790 Br        1 <0>         0.0000
      9 H1          2.6341    0.1330    1.1631 H         1 <0>         0.0000
     10 H2         -0.3720   -4.1513    3.0786 H         1 <0>         0.0000
     11 H3         -1.0265   -3.8198    1.4746 H         1 <0>         0.0000
     12 H4          0.1944   -5.7254    1.1164 H         1 <0>         0.0000
     13 H5          1.4884   -5.2281    1.9926 H         1 <0>         0.0000
@<TRIPOS>BOND
     1    1    2 2
     2    1    7 1
     3    1    9 1
     4    2    5 1
     5    2    8 1
     6    3    4 1
     7    3    5 2
     8    3    7 1
     9    4    6 1
    10    4   10 1
    11    4   11 1
    12    6   12 1
    13    6   13 1
