@<TRIPOS>MOLECULE
*****
   34    34     0     0     0
SMALL
NO_CHARGES

@<TRIPOS>ATOM
      1 C1          2.4146    0.7220   -0.6606 C.ar      1 <0>         0.0000
      2 C2          0.1395   -0.0450   -0.7635 C.ar      1 <0>         0.0000
      3 C3          2.8084   -0.5577   -0.2828 C.ar      1 <0>         0.0000
      4 C4          1.0624    0.9976   -0.9060 C.ar      1 <0>         0.0000
      5 C5          1.7971   -1.5403   -0.1569 C.ar      1 <0>         0.0000
      6 C6          4.2604   -0.8771   -0.0223 C.3       1 <0>         0.0000
      7 C7         -2.1391    5.9088   -2.4287 C.3       1 <0>         0.0000
      8 C8         -3.7033    3.1974   -3.2401 C.3       1 <0>         0.0000
      9 C9          2.1233   -2.9557    0.2523 C.3       1 <0>         0.0000
     10 C10        -0.6682    4.0521   -1.9327 C.3       1 <0>         0.0000
     11 C11        -0.6179    2.5836   -1.5372 C.3       1 <0>         0.0000
     12 N1          0.5078   -1.2808   -0.3942 N.ar      1 <0>         0.0000
     13 N2         -2.0481    4.4692   -2.1798 N.3       1 <0>         0.0000
     14 O1          2.6306   -2.9513    1.5995 O.3       1 <0>         0.0000
     15 O2          0.7548    2.2777   -1.2693 O.3       1 <0>         0.0000
     16 O3         -2.4350    3.8208   -3.4224 O.3       1 <0>         0.0000
     17 H1          3.1406    1.5232   -0.7743 H         1 <0>         0.0000
     18 H2         -0.9213    0.1032   -0.9438 H         1 <0>         0.0000
     19 H3          4.4046   -1.2104    1.0083 H         1 <0>         0.0000
     20 H4          4.6085   -1.6878   -0.6732 H         1 <0>         0.0000
     21 H5          4.8930   -0.0047   -0.2064 H         1 <0>         0.0000
     22 H6         -3.1730    6.1620   -2.6749 H         1 <0>         0.0000
     23 H7         -1.4842    6.2372   -3.2501 H         1 <0>         0.0000
     24 H8         -1.8637    6.4369   -1.5107 H         1 <0>         0.0000
     25 H9         -3.9464    2.7364   -4.2015 H         1 <0>         0.0000
     26 H10        -4.4777    3.9305   -2.9806 H         1 <0>         0.0000
     27 H11        -3.6621    2.4295   -2.4582 H         1 <0>         0.0000
     28 H12         1.2040   -3.5463    0.1778 H         1 <0>         0.0000
     29 H13         2.8747   -3.3838   -0.4293 H         1 <0>         0.0000
     30 H14        -0.2846    4.6593   -1.1066 H         1 <0>         0.0000
     31 H15        -0.0276    4.2246   -2.8112 H         1 <0>         0.0000
     32 H16        -0.9928    1.9563   -2.3532 H         1 <0>         0.0000
     33 H17        -1.2293    2.4111   -0.6431 H         1 <0>         0.0000
     34 H18         2.8579   -3.8648    1.8329 H         1 <0>         0.0000
@<TRIPOS>BOND
     1    1    3 ar
     2    1    4 ar
     3    1   17 1
     4    2    4 ar
     5    2   12 ar
     6    2   18 1
     7    3    5 ar
     8    3    6 1
     9    4   15 1
    10    5    9 1
    11    5   12 ar
    12    6   19 1
    13    6   20 1
    14    6   21 1
    15    7   13 1
    16    7   22 1
    17    7   23 1
    18    7   24 1
    19    8   16 1
    20    8   25 1
    21    8   26 1
    22    8   27 1
    23    9   14 1
    24    9   28 1
    25    9   29 1
    26   10   11 1
    27   10   13 1
    28   10   30 1
    29   10   31 1
    30   11   15 1
    31   11   32 1
    32   11   33 1
    33   13   16 1
    34   14   34 1
