@<TRIPOS>MOLECULE
*****
   41    42     0     0     0
SMALL
NO_CHARGES

@<TRIPOS>ATOM
      1 C1         -9.7568   -0.3466   -2.8854 C.ar      1 <0>         0.0000
      2 C2          0.5695    4.3028    2.5039 C.ar      1 <0>         0.0000
      3 C3         -9.7639   -0.4549   -1.4904 C.ar      1 <0>         0.0000
      4 C4         -8.7558    0.4021   -3.5127 C.ar      1 <0>         0.0000
      5 C5         -0.6923    3.8654    2.9194 C.ar      1 <0>         0.0000
      6 C6          1.5168    3.3660    2.0754 C.ar      1 <0>         0.0000
      7 C7         -8.7764    0.1804   -0.7324 C.ar      1 <0>         0.0000
      8 C8         -7.7707    1.0356   -2.7484 C.ar      1 <0>         0.0000
      9 C9         -1.0038    2.5018    2.9024 C.ar      1 <0>         0.0000
     10 C10         1.1995    2.0046    2.0598 C.ar      1 <0>         0.0000
     11 C11        -7.7668    0.9345   -1.3495 C.ar      1 <0>         0.0000
     12 C12        -0.0635    1.5523    2.4730 C.ar      1 <0>         0.0000
     13 C13        -3.3298    0.2372    0.9761 C.2       1 <0>         0.0000
     14 C14        -6.6711    1.5751   -0.5279 C.3       1 <0>         0.0000
     15 C15        -0.4315    0.0904    2.3813 C.3       1 <0>         0.0000
     16 C16        -4.3944    1.2529    0.5829 C.3       1 <0>         0.0000
     17 C17        -5.5171    0.5997   -0.2362 C.3       1 <0>         0.0000
     18 C18        -0.9219   -0.2953    0.9687 C.3       1 <0>         0.0000
     19 N1         -2.0627    0.4970    0.5251 N.am      1 <0>         0.0000
     20 O1         -3.6021   -0.7676    1.6351 O.2       1 <0>         0.0000
     21 H1        -10.5252   -0.8380   -3.4768 H         1 <0>         0.0000
     22 H2          0.8151    5.3616    2.5197 H         1 <0>         0.0000
     23 H3        -10.5398   -1.0323   -0.9937 H         1 <0>         0.0000
     24 H4         -8.7441    0.4954   -4.5960 H         1 <0>         0.0000
     25 H5         -1.4325    4.5850    3.2609 H         1 <0>         0.0000
     26 H6          2.5029    3.6958    1.7579 H         1 <0>         0.0000
     27 H7         -8.7888    0.0916    0.3523 H         1 <0>         0.0000
     28 H8         -6.9965    1.6187   -3.2437 H         1 <0>         0.0000
     29 H9         -1.9841    2.1667    3.2341 H         1 <0>         0.0000
     30 H10         1.9434    1.2824    1.7279 H         1 <0>         0.0000
     31 H11        -7.0815    1.9347    0.4238 H         1 <0>         0.0000
     32 H12        -6.2805    2.4546   -1.0542 H         1 <0>         0.0000
     33 H13        -1.2242   -0.1519    3.0945 H         1 <0>         0.0000
     34 H14         0.4323   -0.5388    2.6248 H         1 <0>         0.0000
     35 H15        -3.9602    2.0945    0.0300 H         1 <0>         0.0000
     36 H16        -4.8109    1.6551    1.5139 H         1 <0>         0.0000
     37 H17        -5.8937   -0.2692    0.3114 H         1 <0>         0.0000
     38 H18        -5.1118    0.2228   -1.1828 H         1 <0>         0.0000
     39 H19        -0.1172   -0.1617    0.2393 H         1 <0>         0.0000
     40 H20        -1.2235   -1.3447    0.9605 H         1 <0>         0.0000
     41 H21        -1.8739    1.4241    0.1677 H         1 <0>         0.0000
@<TRIPOS>BOND
     1    1    4 ar
     2    1    3 ar
     3    1   21 1
     4    2    6 ar
     5    2    5 ar
     6    2   22 1
     7    3    7 ar
     8    3   23 1
     9    4    8 ar
    10    4   24 1
    11    5    9 ar
    12    5   25 1
    13    6   10 ar
    14    6   26 1
    15    7   11 ar
    16    7   27 1
    17    8   11 ar
    18    8   28 1
    19    9   12 ar
    20    9   29 1
    21   10   12 ar
    22   10   30 1
    23   11   14 1
    24   12   15 1
    25   13   16 1
    26   13   19 am
    27   13   20 2
    28   14   17 1
    29   14   31 1
    30   14   32 1
    31   15   18 1
    32   15   33 1
    33   15   34 1
    34   16   17 1
    35   16   35 1
    36   16   36 1
    37   17   37 1
    38   17   38 1
    39   18   19 1
    40   18   39 1
    41   18   40 1
    42   19   41 1
