@<TRIPOS>MOLECULE
*****
   42    43     0     0     0
SMALL
NO_CHARGES

@<TRIPOS>ATOM
      1 C1          3.4019    5.4960    5.8612 C.1       1 <0>         0.0000
      2 C2          3.6120    6.1152    6.8855 C.1       1 <0>         0.0000
      3 C3         -1.3671   -3.2789   -5.8860 C.ar      1 <0>         0.0000
      4 C4         -2.2387   -3.4000   -4.7942 C.ar      1 <0>         0.0000
      5 C5         -0.2621   -2.4332   -5.7826 C.ar      1 <0>         0.0000
      6 C6          2.0349    3.9272    4.5367 C.ar      1 <0>         0.0000
      7 C7          4.0252    4.8817    3.5501 C.ar      1 <0>         0.0000
      8 C8         -2.0068   -2.6869   -3.6204 C.ar      1 <0>         0.0000
      9 C9         -0.0152   -1.7091   -4.6083 C.ar      1 <0>         0.0000
     10 C10         1.7858    3.2130    3.3629 C.ar      1 <0>         0.0000
     11 C11         3.7859    4.1755    2.3795 C.ar      1 <0>         0.0000
     12 C12         3.1525    4.7706    4.6546 C.ar      1 <0>         0.0000
     13 C13        -0.8925   -1.8376   -3.5225 C.ar      1 <0>         0.0000
     14 C14         2.6644    3.3348    2.2761 C.ar      1 <0>         0.0000
     15 C15         3.8889    6.8308    8.1312 C.3       1 <0>         0.0000
     16 C16         0.2967    0.2789   -0.7636 C.3       1 <0>         0.0000
     17 C17         1.4649    1.2309   -0.4852 C.3       1 <0>         0.0000
     18 C18         0.3687   -0.3078   -2.1660 C.3       1 <0>         0.0000
     19 C19         1.3917    1.8174    0.9167 C.3       1 <0>         0.0000
     20 O1          3.2234    8.1026    8.1240 O.3       1 <0>         0.0000
     21 O2         -0.7502   -1.1803   -2.3281 O.3       1 <0>         0.0000
     22 O3          2.5178    2.6836    1.0840 O.3       1 <0>         0.0000
     23 H1         -1.5498   -3.8360   -6.8005 H         1 <0>         0.0000
     24 H2         -3.1043   -4.0545   -4.8585 H         1 <0>         0.0000
     25 H3          0.4226   -2.3285   -6.6205 H         1 <0>         0.0000
     26 H4          1.3527    3.8332    5.3765 H         1 <0>         0.0000
     27 H5          4.8920    5.5318    3.6237 H         1 <0>         0.0000
     28 H6         -2.6729   -2.7706   -2.7664 H         1 <0>         0.0000
     29 H7          0.8509   -1.0593   -4.5561 H         1 <0>         0.0000
     30 H8          0.9127    2.5731    3.3090 H         1 <0>         0.0000
     31 H9          4.4530    4.2577    1.5264 H         1 <0>         0.0000
     32 H10         3.5464    6.2173    8.9778 H         1 <0>         0.0000
     33 H11         4.9767    6.9612    8.2316 H         1 <0>         0.0000
     34 H12         0.2944   -0.5446   -0.0400 H         1 <0>         0.0000
     35 H13        -0.6591    0.8040   -0.6521 H         1 <0>         0.0000
     36 H14         1.4685    2.0537   -1.2095 H         1 <0>         0.0000
     37 H15         2.4205    0.7050   -0.5952 H         1 <0>         0.0000
     38 H16         0.3352    0.4898   -2.9211 H         1 <0>         0.0000
     39 H17         1.3041   -0.8681   -2.3026 H         1 <0>         0.0000
     40 H18         1.4191    1.0204    1.6722 H         1 <0>         0.0000
     41 H19         0.4613    2.3856    1.0510 H         1 <0>         0.0000
     42 H20         3.4342    8.5443    8.9625 H         1 <0>         0.0000
@<TRIPOS>BOND
     1    1    2 3
     2    1   12 1
     3    2   15 1
     4    3    5 ar
     5    3    4 ar
     6    3   23 1
     7    4    8 ar
     8    4   24 1
     9    5    9 ar
    10    5   25 1
    11    6   10 ar
    12    6   12 ar
    13    6   26 1
    14    7   11 ar
    15    7   12 ar
    16    7   27 1
    17    8   13 ar
    18    8   28 1
    19    9   13 ar
    20    9   29 1
    21   10   14 ar
    22   10   30 1
    23   11   14 ar
    24   11   31 1
    25   13   21 1
    26   14   22 1
    27   15   20 1
    28   15   32 1
    29   15   33 1
    30   16   17 1
    31   16   18 1
    32   16   34 1
    33   16   35 1
    34   17   19 1
    35   17   36 1
    36   17   37 1
    37   18   21 1
    38   18   38 1
    39   18   39 1
    40   19   22 1
    41   19   40 1
    42   19   41 1
    43   20   42 1
