@<TRIPOS>MOLECULE
*****
   22    22     0     0     0
SMALL
NO_CHARGES

@<TRIPOS>ATOM
      1 C1          5.7020    1.4090    0.5720 C.ar      1 <0>         0.0000
      2 C2          4.7000    1.1890    1.5170 C.ar      1 <0>         0.0000
      3 C3          5.6440    0.7800   -0.6700 C.ar      1 <0>         0.0000
      4 C4          3.6400    0.3360    1.2240 C.ar      1 <0>         0.0000
      5 C5          4.5880   -0.0740   -0.9720 C.ar      1 <0>         0.0000
      6 C6          3.5910   -0.2970   -0.0190 C.ar      1 <0>         0.0000
      7 C7          1.2000   -0.8000   -0.2550 C.2       1 <0>         0.0000
      8 C8          0.1070   -1.7860   -0.5900 C.3       1 <0>         0.0000
      9 C9          2.9050   -2.5660   -0.7130 C.3       1 <0>         0.0000
     10 N1          2.5310   -1.1980   -0.3170 N.am      1 <0>         0.0000
     11 O1          0.9210    0.3380    0.0610 O.2       1 <0>         0.0000
     12 H1          6.5070    2.0610    0.7990 H         1 <0>         0.0000
     13 H2          4.7430    1.6740    2.4580 H         1 <0>         0.0000
     14 H3          6.4040    0.9560   -1.3870 H         1 <0>         0.0000
     15 H4          2.8720    0.1690    1.9330 H         1 <0>         0.0000
     16 H5          4.5340   -0.5460   -1.9180 H         1 <0>         0.0000
     17 H6         -0.8300   -1.2530   -0.5170 H         1 <0>         0.0000
     18 H7          0.1620   -2.5840    0.1360 H         1 <0>         0.0000
     19 H8          0.2830   -2.1360   -1.5960 H         1 <0>         0.0000
     20 H9          2.3640   -3.2590   -0.0830 H         1 <0>         0.0000
     21 H10         3.9700   -2.6860   -0.5580 H         1 <0>         0.0000
     22 H11         2.6530   -2.6880   -1.7570 H         1 <0>         0.0000
@<TRIPOS>BOND
     1    1    2 ar
     2    1    3 ar
     3    1   12 1
     4    2    4 ar
     5    2   13 1
     6    3    5 ar
     7    3   14 1
     8    4    6 ar
     9    4   15 1
    10    5    6 ar
    11    5   16 1
    12    6   10 1
    13    7    8 1
    14    7   10 am
    15    7   11 2
    16    8   17 1
    17    8   18 1
    18    8   19 1
    19    9   10 1
    20    9   20 1
    21    9   21 1
    22    9   22 1
