@<TRIPOS>MOLECULE
*****
   34    34     0     0     0
SMALL
NO_CHARGES

@<TRIPOS>ATOM
      1 C1         -0.6783   -2.5436    1.9189 C.ar      1 <0>         0.0000
      2 C2         -0.6861   -3.9420    1.9876 C.ar      1 <0>         0.0000
      3 C3          0.9296   -2.4557    3.6976 C.ar      1 <0>         0.0000
      4 C4          0.1228   -1.7765    2.7706 C.ar      1 <0>         0.0000
      5 C5          0.1147   -4.6090    2.9222 C.ar      1 <0>         0.0000
      6 C6          0.9354   -3.8463    3.7827 C.ar      1 <0>         0.0000
      7 C7         -0.4737   -8.2234    2.6689 C.3       1 <0>         0.0000
      8 C8          1.0542    1.7575    1.4371 C.3       1 <0>         0.0000
      9 C9          2.8221   -5.2002    4.2675 C.3       1 <0>         0.0000
     10 C10         0.1618   -0.2693    2.6593 C.3       1 <0>         0.0000
     11 C11        -0.6986   -6.7743    2.2722 C.3       1 <0>         0.0000
     12 C12         1.0957    0.2321    1.5397 C.3       1 <0>         0.0000
     13 N1          2.4750   -0.1927    1.8341 N.3       1 <0>         0.0000
     14 O1          1.7039   -4.4478    4.7563 O.3       1 <0>         0.0000
     15 O2          0.1603   -5.9682    3.0840 O.3       1 <0>         0.0000
     16 H1         -1.3166   -2.0490    1.1898 H         1 <0>         0.0000
     17 H2         -1.3315   -4.5003    1.3188 H         1 <0>         0.0000
     18 H3          1.5695   -1.9044    4.3814 H         1 <0>         0.0000
     19 H4          0.5659   -8.5159    2.4938 H         1 <0>         0.0000
     20 H5         -0.7011   -8.3717    3.7284 H         1 <0>         0.0000
     21 H6         -1.1223   -8.8779    2.0777 H         1 <0>         0.0000
     22 H7          1.3918    2.2101    2.3753 H         1 <0>         0.0000
     23 H8          0.0392    2.1087    1.2224 H         1 <0>         0.0000
     24 H9          1.7089    2.1168    0.6343 H         1 <0>         0.0000
     25 H10         3.3464   -5.5726    5.1501 H         1 <0>         0.0000
     26 H11         3.4959   -4.5542    3.6895 H         1 <0>         0.0000
     27 H12         2.4959   -6.0424    3.6500 H         1 <0>         0.0000
     28 H13        -0.8462    0.1133    2.4617 H         1 <0>         0.0000
     29 H14         0.5005    0.1689    3.6044 H         1 <0>         0.0000
     30 H15        -1.7440   -6.4809    2.4368 H         1 <0>         0.0000
     31 H16        -0.4622   -6.6182    1.2108 H         1 <0>         0.0000
     32 H17         0.7252   -0.1899    0.5885 H         1 <0>         0.0000
     33 H18         3.0903    0.1046    1.0780 H         1 <0>         0.0000
     34 H19         2.5185   -1.2109    1.8598 H         1 <0>         0.0000
@<TRIPOS>BOND
     1    1    2 ar
     2    1    4 ar
     3    1   16 1
     4    2    5 ar
     5    2   17 1
     6    3    4 ar
     7    3    6 ar
     8    3   18 1
     9    4   10 1
    10    5    6 ar
    11    5   15 1
    12    6   14 1
    13    7   11 1
    14    7   19 1
    15    7   20 1
    16    7   21 1
    17    8   12 1
    18    8   22 1
    19    8   23 1
    20    8   24 1
    21    9   14 1
    22    9   25 1
    23    9   26 1
    24    9   27 1
    25   10   12 1
    26   10   28 1
    27   10   29 1
    28   11   15 1
    29   11   30 1
    30   11   31 1
    31   12   13 1
    32   12   32 1
    33   13   33 1
    34   13   34 1
