@<TRIPOS>MOLECULE
*****
   34    34     0     0     0
SMALL
NO_CHARGES

@<TRIPOS>ATOM
      1 C1         -1.6507   -2.6749    2.3454 C.ar      1 <0>         0.0000
      2 C2         -1.7086   -4.0291    2.7029 C.ar      1 <0>         0.0000
      3 C3          0.2842   -2.3763    3.7320 C.ar      1 <0>         0.0000
      4 C4         -0.6597   -1.8280    2.8470 C.ar      1 <0>         0.0000
      5 C5         -0.7602   -4.5660    3.5785 C.ar      1 <0>         0.0000
      6 C6          0.2447   -3.7177    4.0971 C.ar      1 <0>         0.0000
      7 C7         -1.3938   -8.1556    4.0081 C.3       1 <0>         0.0000
      8 C8         -2.3681    0.2198    4.2507 C.3       1 <0>         0.0000
      9 C9          0.7848   -4.5403    6.2504 C.3       1 <0>         0.0000
     10 C10        -0.6296   -0.3637    2.4705 C.3       1 <0>         0.0000
     11 C11        -1.6790   -6.7794    3.4312 C.3       1 <0>         0.0000
     12 C12        -1.0469    0.6172    3.5915 C.3       1 <0>         0.0000
     13 N1          0.0091    0.6748    4.6203 N.3       1 <0>         0.0000
     14 O1          1.2291   -4.2136    4.9276 O.3       1 <0>         0.0000
     15 O2         -0.7159   -5.8756    3.9788 O.3       1 <0>         0.0000
     16 H1         -2.3986   -2.2820    1.6601 H         1 <0>         0.0000
     17 H2         -2.4895   -4.6535    2.2835 H         1 <0>         0.0000
     18 H3          1.0586   -1.7532    4.1660 H         1 <0>         0.0000
     19 H4         -0.3797   -8.4765    3.7534 H         1 <0>         0.0000
     20 H5         -1.4897   -8.1458    5.0980 H         1 <0>         0.0000
     21 H6         -2.1030   -8.8854    3.6040 H         1 <0>         0.0000
     22 H7         -2.2652   -0.7364    4.7707 H         1 <0>         0.0000
     23 H8         -3.1623    0.1225    3.5032 H         1 <0>         0.0000
     24 H9         -2.6828    0.9778    4.9779 H         1 <0>         0.0000
     25 H10         1.6684   -4.8840    6.7928 H         1 <0>         0.0000
     26 H11         0.0333   -5.3359    6.2319 H         1 <0>         0.0000
     27 H12         0.3735   -3.6522    6.7473 H         1 <0>         0.0000
     28 H13         0.3758   -0.0829    2.1294 H         1 <0>         0.0000
     29 H14        -1.2991   -0.2005    1.6186 H         1 <0>         0.0000
     30 H15        -2.6931   -6.4481    3.6936 H         1 <0>         0.0000
     31 H16        -1.5956   -6.7889    2.3361 H         1 <0>         0.0000
     32 H17        -1.1929    1.5975    3.1048 H         1 <0>         0.0000
     33 H18        -0.2885    1.2841    5.3814 H         1 <0>         0.0000
     34 H19         0.8479    1.0985    4.2247 H         1 <0>         0.0000
@<TRIPOS>BOND
     1    1    2 ar
     2    1    4 ar
     3    1   16 1
     4    2    5 ar
     5    2   17 1
     6    3    4 ar
     7    3    6 ar
     8    3   18 1
     9    4   10 1
    10    5    6 ar
    11    5   15 1
    12    6   14 1
    13    7   11 1
    14    7   19 1
    15    7   20 1
    16    7   21 1
    17    8   12 1
    18    8   22 1
    19    8   23 1
    20    8   24 1
    21    9   14 1
    22    9   25 1
    23    9   26 1
    24    9   27 1
    25   10   12 1
    26   10   28 1
    27   10   29 1
    28   11   15 1
    29   11   30 1
    30   11   31 1
    31   12   13 1
    32   12   32 1
    33   13   33 1
    34   13   34 1
