@<TRIPOS>MOLECULE
*****
   34    34     0     0     0
SMALL
NO_CHARGES

@<TRIPOS>ATOM
      1 C1         -1.3226   -2.4157    2.3913 C.ar      1 <0>         0.0000
      2 C2         -1.5184   -3.7748    2.6651 C.ar      1 <0>         0.0000
      3 C3          0.7743   -2.4745    3.5523 C.ar      1 <0>         0.0000
      4 C4         -0.1766   -1.7426    2.8250 C.ar      1 <0>         0.0000
      5 C5         -0.5592   -4.4969    3.3845 C.ar      1 <0>         0.0000
      6 C6          0.5999   -3.8269    3.8354 C.ar      1 <0>         0.0000
      7 C7         -1.6193   -8.0016    3.6474 C.3       1 <0>         0.0000
      8 C8         -0.3736    0.4794    4.9715 C.3       1 <0>         0.0000
      9 C9          1.2609   -4.9260    5.8309 C.3       1 <0>         0.0000
     10 C10         0.0081   -0.2662    2.5637 C.3       1 <0>         0.0000
     11 C11        -1.7802   -6.5581    3.2021 C.3       1 <0>         0.0000
     12 C12        -0.8066    0.6359    3.5137 C.3       1 <0>         0.0000
     13 N1         -0.6011    2.0372    3.1023 N.3       1 <0>         0.0000
     14 O1          1.6005   -4.4989    4.5049 O.3       1 <0>         0.0000
     15 O2         -0.6464   -5.8308    3.6835 O.3       1 <0>         0.0000
     16 H1         -2.0792   -1.8797    1.8220 H         1 <0>         0.0000
     17 H2         -2.4148   -4.2635    2.3003 H         1 <0>         0.0000
     18 H3          1.6836   -1.9992    3.9113 H         1 <0>         0.0000
     19 H4         -0.6963   -8.4279    3.2442 H         1 <0>         0.0000
     20 H5         -1.5834   -8.0683    4.7388 H         1 <0>         0.0000
     21 H6         -2.4646   -8.5993    3.2912 H         1 <0>         0.0000
     22 H7          0.6822    0.7485    5.0837 H         1 <0>         0.0000
     23 H8         -0.5138   -0.5492    5.3143 H         1 <0>         0.0000
     24 H9         -0.9616    1.1355    5.6244 H         1 <0>         0.0000
     25 H10         2.1599   -5.3927    6.2390 H         1 <0>         0.0000
     26 H11         0.4425   -5.6518    5.8177 H         1 <0>         0.0000
     27 H12         0.9832   -4.0644    6.4520 H         1 <0>         0.0000
     28 H13         1.0632    0.0131    2.6534 H         1 <0>         0.0000
     29 H14        -0.2914   -0.0371    1.5325 H         1 <0>         0.0000
     30 H15        -2.7024   -6.1232    3.6108 H         1 <0>         0.0000
     31 H16        -1.8252   -6.4890    2.1070 H         1 <0>         0.0000
     32 H17        -1.8642    0.3279    3.4375 H         1 <0>         0.0000
     33 H18        -1.1420    2.6541    3.7074 H         1 <0>         0.0000
     34 H19        -0.9589    2.1751    2.1576 H         1 <0>         0.0000
@<TRIPOS>BOND
     1    1    2 ar
     2    1    4 ar
     3    1   16 1
     4    2    5 ar
     5    2   17 1
     6    3    4 ar
     7    3    6 ar
     8    3   18 1
     9    4   10 1
    10    5    6 ar
    11    5   15 1
    12    6   14 1
    13    7   11 1
    14    7   19 1
    15    7   20 1
    16    7   21 1
    17    8   12 1
    18    8   22 1
    19    8   23 1
    20    8   24 1
    21    9   14 1
    22    9   25 1
    23    9   26 1
    24    9   27 1
    25   10   12 1
    26   10   28 1
    27   10   29 1
    28   11   15 1
    29   11   30 1
    30   11   31 1
    31   12   13 1
    32   12   32 1
    33   13   33 1
    34   13   34 1
