@<TRIPOS>MOLECULE
*****
   35    35     0     0     0
SMALL
NO_CHARGES

@<TRIPOS>ATOM
      1 C1          3.6580    0.4470   -3.4385 C.ar      1 <0>         0.0000
      2 C2          5.0093    0.7034   -3.6908 C.ar      1 <0>         0.0000
      3 C3          3.6413    2.2036   -1.7908 C.ar      1 <0>         0.0000
      4 C4          2.9587    1.2011   -2.4929 C.ar      1 <0>         0.0000
      5 C5          5.6874    1.7226   -3.0079 C.ar      1 <0>         0.0000
      6 C6          4.9897    2.4747   -2.0258 C.ar      1 <0>         0.0000
      7 C7          9.1128    1.9805   -4.2964 C.3       1 <0>         0.0000
      8 C8          1.9454   -0.1004    0.1391 C.3       1 <0>         0.0000
      9 C9          6.8365    3.3629   -0.7380 C.3       1 <0>         0.0000
     10 C10         1.5045    0.9099   -2.1936 C.3       1 <0>         0.0000
     11 C11         7.7233    1.3724   -4.2510 C.3       1 <0>         0.0000
     12 C12         1.3644   -0.2956   -1.2535 C.3       1 <0>         0.0000
     13 N1         -0.1428   -0.6067   -1.1046 N.4       1 <0>         0.0000
     14 O1          5.5328    3.5168   -1.3361 O.3       1 <0>         0.0000
     15 O2          6.9776    2.0741   -3.2375 O.3       1 <0>         0.0000
     16 H1          3.1542   -0.3303   -4.0099 H         1 <0>         0.0000
     17 H2          5.5219    0.1235   -4.4488 H         1 <0>         0.0000
     18 H3          3.1372    2.8186   -1.0493 H         1 <0>         0.0000
     19 H4          9.0615    3.0450   -4.5405 H         1 <0>         0.0000
     20 H5          9.6197    1.8653   -3.3343 H         1 <0>         0.0000
     21 H6          9.7100    1.4780   -5.0632 H         1 <0>         0.0000
     22 H7          1.5015    0.7667    0.6409 H         1 <0>         0.0000
     23 H8          1.8132   -0.9865    0.7685 H         1 <0>         0.0000
     24 H9          3.0162    0.0867    0.0441 H         1 <0>         0.0000
     25 H10         6.8786    4.1094    0.0566 H         1 <0>         0.0000
     26 H11         7.6269    3.5412   -1.4672 H         1 <0>         0.0000
     27 H12         6.9494    2.3619   -0.3080 H         1 <0>         0.0000
     28 H13         0.9661    0.7040   -3.1284 H         1 <0>         0.0000
     29 H14         1.0336    1.7858   -1.7300 H         1 <0>         0.0000
     30 H15         7.7663    0.3060   -3.9963 H         1 <0>         0.0000
     31 H16         7.2118    1.4826   -5.2151 H         1 <0>         0.0000
     32 H17         1.7813   -1.1893   -1.7249 H         1 <0>         0.0000
     33 H18        -0.5857   -0.7657   -2.0180 H         1 <0>         0.0000
     34 H19        -0.6300    0.1816   -0.6603 H         1 <0>         0.0000
     35 H20        -0.3070   -1.4375   -0.5230 H         1 <0>         0.0000
@<TRIPOS>BOND
     1    1    2 ar
     2    1    4 ar
     3    1   16 1
     4    2    5 ar
     5    2   17 1
     6    3    4 ar
     7    3    6 ar
     8    3   18 1
     9    4   10 1
    10    5    6 ar
    11    5   15 1
    12    6   14 1
    13    7   11 1
    14    7   19 1
    15    7   20 1
    16    7   21 1
    17    8   12 1
    18    8   22 1
    19    8   23 1
    20    8   24 1
    21    9   14 1
    22    9   25 1
    23    9   26 1
    24    9   27 1
    25   10   12 1
    26   10   28 1
    27   10   29 1
    28   11   15 1
    29   11   30 1
    30   11   31 1
    31   12   13 1
    32   12   32 1
    33   13   33 1
    34   13   34 1
    35   13   35 1
