@<TRIPOS>MOLECULE
*****
   35    35     0     0     0
SMALL
NO_CHARGES

@<TRIPOS>ATOM
      1 C1          3.6783    0.1309   -3.0849 C.ar      1 <0>         0.0000
      2 C2          5.0058    0.4719   -3.3694 C.ar      1 <0>         0.0000
      3 C3          3.5440    1.9701   -1.5361 C.ar      1 <0>         0.0000
      4 C4          2.9321    0.8795   -2.1741 C.ar      1 <0>         0.0000
      5 C5          5.6086    1.5767   -2.7540 C.ar      1 <0>         0.0000
      6 C6          4.8619    2.3288   -1.8075 C.ar      1 <0>         0.0000
      7 C7          9.0176    1.9896   -4.0421 C.3       1 <0>         0.0000
      8 C8          0.6239    1.5797   -4.1185 C.3       1 <0>         0.0000
      9 C9          6.5434    3.2893   -0.3892 C.3       1 <0>         0.0000
     10 C10         1.4764    0.5687   -1.9060 C.3       1 <0>         0.0000
     11 C11         7.6711    1.2940   -3.9665 C.3       1 <0>         0.0000
     12 C12         0.5693    1.5960   -2.5982 C.3       1 <0>         0.0000
     13 N1         -0.8872    1.3167   -2.1642 N.4       1 <0>         0.0000
     14 O1          5.3551    3.4449   -1.1941 O.3       1 <0>         0.0000
     15 O2          6.8706    2.0045   -3.0009 O.3       1 <0>         0.0000
     16 H1          3.2368   -0.7290   -3.5831 H         1 <0>         0.0000
     17 H2          5.5597   -0.1244   -4.0845 H         1 <0>         0.0000
     18 H3          3.0124    2.5700   -0.8001 H         1 <0>         0.0000
     19 H4          8.8980    3.0329   -4.3461 H         1 <0>         0.0000
     20 H5          9.5242    1.9629   -3.0734 H         1 <0>         0.0000
     21 H6          9.6520    1.4845   -4.7766 H         1 <0>         0.0000
     22 H7          0.3715    0.5910   -4.5180 H         1 <0>         0.0000
     23 H8         -0.0404    2.3278   -4.5630 H         1 <0>         0.0000
     24 H9          1.6441    1.8111   -4.4292 H         1 <0>         0.0000
     25 H10         6.6664    4.2384    0.1336 H         1 <0>         0.0000
     26 H11         7.4172    3.0858   -1.0096 H         1 <0>         0.0000
     27 H12         6.4029    2.4836    0.3403 H         1 <0>         0.0000
     28 H13         1.2806    0.5818   -0.8248 H         1 <0>         0.0000
     29 H14         1.2331   -0.4363   -2.2721 H         1 <0>         0.0000
     30 H15         7.7820    0.2505   -3.6470 H         1 <0>         0.0000
     31 H16         7.1614    1.3113   -4.9378 H         1 <0>         0.0000
     32 H17         0.7784    2.5982   -2.2154 H         1 <0>         0.0000
     33 H18        -0.9836    1.3334   -1.1413 H         1 <0>         0.0000
     34 H19        -1.1878    0.3882   -2.4862 H         1 <0>         0.0000
     35 H20        -1.5413    2.0053   -2.5558 H         1 <0>         0.0000
@<TRIPOS>BOND
     1    1    2 ar
     2    1    4 ar
     3    1   16 1
     4    2    5 ar
     5    2   17 1
     6    3    4 ar
     7    3    6 ar
     8    3   18 1
     9    4   10 1
    10    5    6 ar
    11    5   15 1
    12    6   14 1
    13    7   11 1
    14    7   19 1
    15    7   20 1
    16    7   21 1
    17    8   12 1
    18    8   22 1
    19    8   23 1
    20    8   24 1
    21    9   14 1
    22    9   25 1
    23    9   26 1
    24    9   27 1
    25   10   12 1
    26   10   28 1
    27   10   29 1
    28   11   15 1
    29   11   30 1
    30   11   31 1
    31   12   13 1
    32   12   32 1
    33   13   33 1
    34   13   34 1
    35   13   35 1
