@<TRIPOS>MOLECULE
*****
   12    12     0     0     0
SMALL
NO_CHARGES

@<TRIPOS>ATOM
      1 C1          0.0842    0.0781   -1.8512 C.2       1 <0>         0.0000
      2 C2          0.2031   -0.3302   -0.4117 C.3       1 <0>         0.0000
      3 C3         -0.3845    0.7867    0.4367 C.3       1 <0>         0.0000
      4 N1          0.4842    0.9911   -3.7304 N.2       1 <0>         0.0000
      5 N2          1.0126    0.8033   -2.5012 N.2       1 <0>         0.0000
      6 N3         -0.9945   -0.1772   -2.6139 N.2       1 <0>         0.0000
      7 N4         -0.7086    0.4086   -3.7973 N.2       1 <0>         0.0000
      8 Br1        -0.2952    0.3797    2.4203 Br        1 <0>         0.0000
      9 H1          1.2530   -0.4853   -0.1470 H         1 <0>         0.0000
     10 H2         -0.3459   -1.2595   -0.2350 H         1 <0>         0.0000
     11 H3          0.1646    1.7198    0.3275 H         1 <0>         0.0000
     12 H4         -1.4438    0.9397    0.2400 H         1 <0>         0.0000
@<TRIPOS>BOND
     1    1    2 1
     2    1    5 2
     3    1    6 1
     4    2    3 1
     5    2    9 1
     6    2   10 1
     7    3    8 1
     8    3   11 1
     9    3   12 1
    10    4    5 1
    11    4    7 1
    12    6    7 2
