@<TRIPOS>MOLECULE
*****
   54    56     0     0     0
SMALL
NO_CHARGES

@<TRIPOS>ATOM
      1 C1         -2.9747   -0.9563   -1.2663 C.2       1 <0>         0.0000
      2 C2         -1.9552    0.0143   -1.0325 C.2       1 <0>         0.0000
      3 C3         -0.9006   -0.5079   -0.3150 C.2       1 <0>         0.0000
      4 C4         -4.2205   -0.7876   -1.9742 C.2       1 <0>         0.0000
      5 C5         -2.6523   -2.1699   -0.7178 C.2       1 <0>         0.0000
      6 C6         -4.6781   -3.2366   -1.4491 C.2       1 <0>         0.0000
      7 C7          1.8402    1.5778   -1.3497 C.2       1 <0>         0.0000
      8 C8         -6.1488   -2.5383   -4.0596 C.2       1 <0>         0.0000
      9 C9         -6.3072   -2.0044   -5.2858 C.2       1 <0>         0.0000
     10 C10         2.7327   -0.1060   -2.7371 C.3       1 <0>         0.0000
     11 C11         1.8545   -0.7607   -1.6814 C.3       1 <0>         0.0000
     12 C12        -2.0047    1.4235   -1.4976 C.3       1 <0>         0.0000
     13 C13        -6.1706   -2.7557   -6.5798 C.3       1 <0>         0.0000
     14 C14        -6.6615   -0.5498   -5.4452 C.3       1 <0>         0.0000
     15 C15        -4.7814   -4.1318    3.0457 C.3       1 <0>         0.0000
     16 C16         0.3438    0.1580    0.1309 C.3       1 <0>         0.0000
     17 C17        -6.2706   -1.8476   -2.7366 C.3       1 <0>         0.0000
     18 C18        -2.9944   -4.5651   -0.1463 C.3       1 <0>         0.0000
     19 C19        -3.1840   -4.4776    1.3570 C.3       1 <0>         0.0000
     20 N1         -5.0011   -1.9672   -2.0254 N.am      1 <0>         0.0000
     21 N2         -3.4360   -3.3180   -0.7700 N.am      1 <0>         0.0000
     22 N3          2.7281    1.2949   -2.4005 N.am      1 <0>         0.0000
     23 N4          1.2906    0.3510   -0.9438 N.am      1 <0>         0.0000
     24 O1         -4.5488    0.2861   -2.4728 O.2       1 <0>         0.0000
     25 O2         -5.4396   -4.2070   -1.5375 O.2       1 <0>         0.0000
     26 O3          1.6058    2.6872   -0.8890 O.2       1 <0>         0.0000
     27 O4         -4.5537   -4.2286    1.6465 O.3       1 <0>         0.0000
     28 S1         -1.1477   -2.1575    0.0701 S.3       1 <0>         0.0000
     29 H1         -5.9300   -3.6036   -3.9904 H         1 <0>         0.0000
     30 H2          3.7617   -0.4749   -2.7157 H         1 <0>         0.0000
     31 H3          2.3198   -0.2170   -3.7437 H         1 <0>         0.0000
     32 H4          1.0481   -1.3524   -2.1244 H         1 <0>         0.0000
     33 H5          2.4385   -1.3782   -0.9918 H         1 <0>         0.0000
     34 H6         -2.4791    2.0656   -0.7420 H         1 <0>         0.0000
     35 H7         -0.9982    1.8189   -1.7000 H         1 <0>         0.0000
     36 H8         -2.5725    1.5208   -2.4351 H         1 <0>         0.0000
     37 H9         -7.1377   -3.1753   -6.8752 H         1 <0>         0.0000
     38 H10        -5.8055   -2.1402   -7.4048 H         1 <0>         0.0000
     39 H11        -5.4597   -3.5807   -6.4618 H         1 <0>         0.0000
     40 H12        -5.7524    0.0570   -5.5097 H         1 <0>         0.0000
     41 H13        -7.2525   -0.3601   -6.3474 H         1 <0>         0.0000
     42 H14        -7.2483   -0.2073   -4.5865 H         1 <0>         0.0000
     43 H15        -5.8412   -3.9407    3.2309 H         1 <0>         0.0000
     44 H16        -4.1763   -3.3209    3.4590 H         1 <0>         0.0000
     45 H17        -4.4955   -5.0745    3.5184 H         1 <0>         0.0000
     46 H18         0.1412    1.1524    0.5634 H         1 <0>         0.0000
     47 H19         0.8639   -0.4180    0.9146 H         1 <0>         0.0000
     48 H20        -7.0630   -2.3280   -2.1528 H         1 <0>         0.0000
     49 H21        -6.5453   -0.7942   -2.8271 H         1 <0>         0.0000
     50 H22        -1.9428   -4.7243   -0.4050 H         1 <0>         0.0000
     51 H23        -3.5926   -5.3832   -0.5587 H         1 <0>         0.0000
     52 H24        -2.5969   -3.6470    1.7610 H         1 <0>         0.0000
     53 H25        -2.8816   -5.4043    1.8555 H         1 <0>         0.0000
     54 H26         3.2638    2.0033   -2.8922 H         1 <0>         0.0000
@<TRIPOS>BOND
     1    1    2 1
     2    1    5 2
     3    1    4 1
     4    2    3 2
     5    2   12 1
     6    3   16 1
     7    3   28 1
     8    4   20 am
     9    4   24 2
    10    5   21 1
    11    5   28 1
    12    6   21 am
    13    6   20 am
    14    6   25 2
    15    7   22 am
    16    7   23 am
    17    7   26 2
    18    8    9 2
    19    8   17 1
    20    8   29 1
    21    9   13 1
    22    9   14 1
    23   10   11 1
    24   10   22 1
    25   10   30 1
    26   10   31 1
    27   11   23 1
    28   11   32 1
    29   11   33 1
    30   12   34 1
    31   12   35 1
    32   12   36 1
    33   13   37 1
    34   13   38 1
    35   13   39 1
    36   14   40 1
    37   14   41 1
    38   14   42 1
    39   15   27 1
    40   15   43 1
    41   15   44 1
    42   15   45 1
    43   16   23 1
    44   16   46 1
    45   16   47 1
    46   17   20 1
    47   17   48 1
    48   17   49 1
    49   18   19 1
    50   18   21 1
    51   18   50 1
    52   18   51 1
    53   19   27 1
    54   19   52 1
    55   19   53 1
    56   22   54 1
