@<TRIPOS>MOLECULE
*****
   30    30     0     0     0
SMALL
NO_CHARGES

@<TRIPOS>ATOM
      1 C1          0.8395   -0.1825   -0.1773 C.2       1 <0>         0.0000
      2 C2          1.1668    2.3097   -0.1804 C.2       1 <0>         0.0000
      3 C3         -0.7478   -0.4868    1.6553 C.3       1 <0>         0.0000
      4 C4          1.2220    1.0505    0.6723 C.3       1 <0>         0.0000
      5 C5         -0.5362   -0.7384    0.1604 C.3       1 <0>         0.0000
      6 C6         -1.4371   -0.2745   -2.2143 C.3       1 <0>         0.0000
      7 C7          4.3599    3.6808   -1.7723 C.3       1 <0>         0.0000
      8 C8         -1.6303   -0.0701   -0.7102 C.3       1 <0>         0.0000
      9 C9          2.9357    4.2280   -1.9150 C.3       1 <0>         0.0000
     10 C10         2.2186    4.4107   -0.5819 C.3       1 <0>         0.0000
     11 O1          1.6028   -0.6364   -1.0041 O.2       1 <0>         0.0000
     12 O2          0.3408    2.5163   -1.0487 O.2       1 <0>         0.0000
     13 O3          2.1476    3.1622    0.1677 O.3       1 <0>         0.0000
     14 S1          0.0171    1.1527    2.0579 S.3       1 <0>         0.0000
     15 H1         -1.8056   -0.4308    1.9216 H         1 <0>         0.0000
     16 H2         -0.2715   -1.2612    2.2623 H         1 <0>         0.0000
     17 H3          2.2365    0.9132    1.0511 H         1 <0>         0.0000
     18 H4         -0.5178   -1.8114   -0.0561 H         1 <0>         0.0000
     19 H5         -0.5296    0.2194   -2.5693 H         1 <0>         0.0000
     20 H6         -2.2844    0.1494   -2.7628 H         1 <0>         0.0000
     21 H7         -1.3663   -1.3379   -2.4690 H         1 <0>         0.0000
     22 H8          4.9795    4.3405   -1.1538 H         1 <0>         0.0000
     23 H9          4.3577    2.6905   -1.3073 H         1 <0>         0.0000
     24 H10         4.8405    3.5895   -2.7514 H         1 <0>         0.0000
     25 H11        -2.5876   -0.5031   -0.3951 H         1 <0>         0.0000
     26 H12        -1.6683    0.9987   -0.4838 H         1 <0>         0.0000
     27 H13         2.3355    3.5739   -2.5547 H         1 <0>         0.0000
     28 H14         2.9562    5.2110   -2.4030 H         1 <0>         0.0000
     29 H15         2.7724    5.0799    0.0807 H         1 <0>         0.0000
     30 H16         1.2045    4.7901   -0.7237 H         1 <0>         0.0000
@<TRIPOS>BOND
     1    1    4 1
     2    1    5 1
     3    1   11 2
     4    2    4 1
     5    2   12 2
     6    2   13 1
     7    3    5 1
     8    3   14 1
     9    3   15 1
    10    3   16 1
    11    4   14 1
    12    4   17 1
    13    5    8 1
    14    5   18 1
    15    6    8 1
    16    6   19 1
    17    6   20 1
    18    6   21 1
    19    7    9 1
    20    7   22 1
    21    7   23 1
    22    7   24 1
    23    8   25 1
    24    8   26 1
    25    9   10 1
    26    9   27 1
    27    9   28 1
    28   10   13 1
    29   10   29 1
    30   10   30 1
