@<TRIPOS>MOLECULE
*****
   43    44     0     0     0
SMALL
NO_CHARGES

@<TRIPOS>ATOM
      1 C1          3.7591    3.3297   -7.9377 C.2       1 <0>         0.0000
      2 C2          2.4328    4.2600   -6.3246 C.2       1 <0>         0.0000
      3 C3          1.7533    1.9989   -5.3948 C.2       1 <0>         0.0000
      4 C4          1.5267   -3.0549   -3.5735 C.3       1 <0>         0.0000
      5 C5          1.8158   -1.7858   -2.7595 C.3       1 <0>         0.0000
      6 C6          0.5811   -2.7599   -4.7467 C.3       1 <0>         0.0000
      7 C7          2.3596   -0.6613   -3.6515 C.3       1 <0>         0.0000
      8 C8          1.1182   -1.6305   -5.6376 C.3       1 <0>         0.0000
      9 C9          1.4038   -0.3662   -4.8191 C.3       1 <0>         0.0000
     10 C10         4.6639    3.2205   -9.1168 C.3       1 <0>         0.0000
     11 C11         5.0434    6.3411   -5.8814 C.3       1 <0>         0.0000
     12 C12         5.1105    7.7050   -8.0183 C.3       1 <0>         0.0000
     13 C13         4.9423    6.3142   -7.4062 C.3       1 <0>         0.0000
     14 N1          3.2565    2.3119   -7.3039 N.2       1 <0>         0.0000
     15 N2          3.3085    4.5249   -7.4104 N.am      1 <0>         0.0000
     16 N3          2.4504    2.8568   -6.3017 N.am      1 <0>         0.0000
     17 N4          1.9211    0.6828   -5.6944 N.am      1 <0>         0.0000
     18 N5          3.6052    5.8250   -7.8109 N.3       1 <0>         0.0000
     19 O1          1.8611    5.0663   -5.6272 O.2       1 <0>         0.0000
     20 O2          1.0845    2.4452   -4.4776 O.2       1 <0>         0.0000
     21 H1          1.0967   -3.8307   -2.9293 H         1 <0>         0.0000
     22 H2          2.4720   -3.4577   -3.9635 H         1 <0>         0.0000
     23 H3          0.8902   -1.4458   -2.2755 H         1 <0>         0.0000
     24 H4          2.5274   -2.0019   -1.9544 H         1 <0>         0.0000
     25 H5          0.4234   -3.6632   -5.3473 H         1 <0>         0.0000
     26 H6         -0.4026   -2.4693   -4.3539 H         1 <0>         0.0000
     27 H7          2.5103    0.2558   -3.0733 H         1 <0>         0.0000
     28 H8          3.3368   -0.9533   -4.0614 H         1 <0>         0.0000
     29 H9          2.0488   -1.9631   -6.1216 H         1 <0>         0.0000
     30 H10         0.4070   -1.3962   -6.4376 H         1 <0>         0.0000
     31 H11         0.4634    0.0123   -4.4068 H         1 <0>         0.0000
     32 H12         4.2340    3.7200   -9.9918 H         1 <0>         0.0000
     33 H13         4.8069    2.1652   -9.3540 H         1 <0>         0.0000
     34 H14         5.6389    3.6744   -8.9173 H         1 <0>         0.0000
     35 H15         4.2440    6.9548   -5.4580 H         1 <0>         0.0000
     36 H16         4.9570    5.3376   -5.4554 H         1 <0>         0.0000
     37 H17         6.0133    6.7500   -5.5806 H         1 <0>         0.0000
     38 H18         4.3405    8.3832   -7.6383 H         1 <0>         0.0000
     39 H19         5.0361    7.6768   -9.1124 H         1 <0>         0.0000
     40 H20         6.0926    8.1132   -7.7635 H         1 <0>         0.0000
     41 H21         5.7378    5.6595   -7.7995 H         1 <0>         0.0000
     42 H22         2.5742    0.4484   -6.4325 H         1 <0>         0.0000
     43 H23         3.4567    5.9073   -8.8140 H         1 <0>         0.0000
@<TRIPOS>BOND
     1    1   10 1
     2    1   14 2
     3    1   15 1
     4    2   15 am
     5    2   16 am
     6    2   19 2
     7    3   16 am
     8    3   17 am
     9    3   20 2
    10    4    6 1
    11    4    5 1
    12    4   21 1
    13    4   22 1
    14    5    7 1
    15    5   23 1
    16    5   24 1
    17    6    8 1
    18    6   25 1
    19    6   26 1
    20    7    9 1
    21    7   27 1
    22    7   28 1
    23    8    9 1
    24    8   29 1
    25    8   30 1
    26    9   17 1
    27    9   31 1
    28   10   32 1
    29   10   33 1
    30   10   34 1
    31   11   13 1
    32   11   35 1
    33   11   36 1
    34   11   37 1
    35   12   13 1
    36   12   38 1
    37   12   39 1
    38   12   40 1
    39   13   18 1
    40   13   41 1
    41   14   16 1
    42   15   18 1
    43   17   42 1
    44   18   43 1
