@<TRIPOS>MOLECULE
*****
   51    53     0     0     0
SMALL
NO_CHARGES

@<TRIPOS>ATOM
      1 C1          1.8549    3.0306    0.7415 C.ar      1 <0>         0.0000
      2 C2          0.9429    1.5084    2.3662 C.ar      1 <0>         0.0000
      3 C3          2.6692    3.6062    1.7177 C.ar      1 <0>         0.0000
      4 C4          1.7469    2.0747    3.3571 C.ar      1 <0>         0.0000
      5 C5          0.9831    1.9737    1.0427 C.ar      1 <0>         0.0000
      6 C6          2.6099    3.1217    3.0262 C.ar      1 <0>         0.0000
      7 C7         -4.2676   -3.3546   -3.7265 C.3       1 <0>         0.0000
      8 C8         -2.4470   -1.6261   -3.6131 C.3       1 <0>         0.0000
      9 C9         -2.3496   -3.6248   -2.1219 C.3       1 <0>         0.0000
     10 C10        -1.2640    0.9241    0.2887 C.3       1 <0>         0.0000
     11 C11         0.1610    1.3651   -0.0710 C.3       1 <0>         0.0000
     12 C12        -3.9333   -1.8652   -3.8792 C.3       1 <0>         0.0000
     13 C13        -3.8322   -3.9093   -2.3637 C.3       1 <0>         0.0000
     14 C14         0.7498    0.0878   -0.7486 C.3       1 <0>         0.0000
     15 C15        -0.4918   -0.3510   -1.5466 C.3       1 <0>         0.0000
     16 C16        -4.3010   -1.3226   -5.2654 C.3       1 <0>         0.0000
     17 C17        -4.0955   -5.4145   -2.2340 C.3       1 <0>         0.0000
     18 C18         1.2921   -0.9542    0.2337 C.3       1 <0>         0.0000
     19 C19        -0.6044   -1.8313   -1.8986 C.3       1 <0>         0.0000
     20 N1         -2.0378   -2.1531   -2.2565 N.4       1 <0>         0.0000
     21 O1         -1.6347   -0.0545   -0.7214 O.3       1 <0>         0.0000
     22 Cl1         3.6191    3.8357    4.2619 Cl        1 <0>         0.0000
     23 H1          1.9005    3.4187   -0.2738 H         1 <0>         0.0000
     24 H2          0.2839    0.6930    2.6491 H         1 <0>         0.0000
     25 H3          3.3371    4.4248    1.4696 H         1 <0>         0.0000
     26 H4          1.7040    1.7089    4.3780 H         1 <0>         0.0000
     27 H5         -5.3441   -3.5044   -3.8549 H         1 <0>         0.0000
     28 H6         -3.7744   -3.9234   -4.5268 H         1 <0>         0.0000
     29 H7         -1.8217   -2.1433   -4.3471 H         1 <0>         0.0000
     30 H8         -2.2072   -0.5627   -3.6336 H         1 <0>         0.0000
     31 H9         -2.0436   -3.9242   -1.1168 H         1 <0>         0.0000
     32 H10        -1.7174   -4.1460   -2.8474 H         1 <0>         0.0000
     33 H11        -1.3313    0.4400    1.2657 H         1 <0>         0.0000
     34 H12        -1.9809    1.7469    0.2523 H         1 <0>         0.0000
     35 H13         0.0739    2.1186   -0.8617 H         1 <0>         0.0000
     36 H14        -4.5019   -1.2995   -3.1273 H         1 <0>         0.0000
     37 H15        -4.4031   -3.3920   -1.5792 H         1 <0>         0.0000
     38 H16         1.5496    0.3772   -1.4369 H         1 <0>         0.0000
     39 H17        -0.5517    0.2548   -2.4613 H         1 <0>         0.0000
     40 H18        -3.7494   -1.8461   -6.0539 H         1 <0>         0.0000
     41 H19        -4.0858   -0.2526   -5.3504 H         1 <0>         0.0000
     42 H20        -5.3682   -1.4637   -5.4559 H         1 <0>         0.0000
     43 H21        -3.5408   -5.9789   -2.9913 H         1 <0>         0.0000
     44 H22        -5.1591   -5.6253   -2.3742 H         1 <0>         0.0000
     45 H23        -3.8079   -5.7922   -1.2477 H         1 <0>         0.0000
     46 H24         0.5223   -1.3238    0.9195 H         1 <0>         0.0000
     47 H25         2.0876   -0.5176    0.8405 H         1 <0>         0.0000
     48 H26         1.7225   -1.8127   -0.2921 H         1 <0>         0.0000
     49 H27        -0.3612   -2.4488   -1.0346 H         1 <0>         0.0000
     50 H28         0.0347   -2.1148   -2.7375 H         1 <0>         0.0000
     51 H29        -2.5871   -1.6382   -1.5510 H         1 <0>         0.0000
@<TRIPOS>BOND
     1    1    3 ar
     2    1    5 ar
     3    1   23 1
     4    2    4 ar
     5    2    5 ar
     6    2   24 1
     7    3    6 ar
     8    3   25 1
     9    4    6 ar
    10    4   26 1
    11    5   11 1
    12    6   22 1
    13    7   12 1
    14    7   13 1
    15    7   27 1
    16    7   28 1
    17    8   12 1
    18    8   20 1
    19    8   29 1
    20    8   30 1
    21    9   13 1
    22    9   20 1
    23    9   31 1
    24    9   32 1
    25   10   11 1
    26   10   21 1
    27   10   33 1
    28   10   34 1
    29   11   14 1
    30   11   35 1
    31   12   16 1
    32   12   36 1
    33   13   17 1
    34   13   37 1
    35   14   15 1
    36   14   18 1
    37   14   38 1
    38   15   19 1
    39   15   21 1
    40   15   39 1
    41   16   40 1
    42   16   41 1
    43   16   42 1
    44   17   43 1
    45   17   44 1
    46   17   45 1
    47   18   46 1
    48   18   47 1
    49   18   48 1
    50   19   20 1
    51   19   49 1
    52   19   50 1
    53   20   51 1
