@<TRIPOS>MOLECULE
*****
   24    25     0     0     0
SMALL
NO_CHARGES

@<TRIPOS>ATOM
      1 C1          0.4599    3.7955   -2.0035 C.1       1 <0>         0.0000
      2 C2         -1.0021    2.7498   -0.3131 C.ar      1 <0>         0.0000
      3 C3         -1.4040    1.6377    0.4250 C.ar      1 <0>         0.0000
      4 C4          0.6789    1.4143   -1.4643 C.ar      1 <0>         0.0000
      5 C5          0.0410    2.6462   -1.2524 C.ar      1 <0>         0.0000
      6 C6          0.2602    0.3125   -0.7271 C.ar      1 <0>         0.0000
      7 C7         -0.7648    0.4177    0.2225 C.ar      1 <0>         0.0000
      8 C8          0.5990   -1.9827   -0.1054 C.cat     1 <0>         0.0000
      9 C9         -0.1468   -1.6550    1.1795 C.3       1 <0>         0.0000
     10 C10         0.8226   -1.1729    2.2636 C.3       1 <0>         0.0000
     11 N1          0.8073    4.7215   -2.6176 N.1       1 <0>         0.0000
     12 N2          0.8148   -0.9838   -0.9449 N.pl3     1 <0>         0.0000
     13 N3          1.0322   -3.2184   -0.3252 N.pl3     1 <0>         0.0000
     14 O1         -1.1770   -0.7050    0.8978 O.3       1 <0>         0.0000
     15 H1         -1.4896    3.7071   -0.1607 H         1 <0>         0.0000
     16 H2         -2.2062    1.7017    1.1532 H         1 <0>         0.0000
     17 H3          1.4784    1.3327   -2.1956 H         1 <0>         0.0000
     18 H4         -0.6797   -2.5483    1.5117 H         1 <0>         0.0000
     19 H5          1.3682   -0.2805    1.9469 H         1 <0>         0.0000
     20 H6          1.5450   -1.9551    2.5143 H         1 <0>         0.0000
     21 H7          0.2457   -0.9328    3.1595 H         1 <0>         0.0000
     22 H8          1.3349   -1.1342   -1.8071 H         1 <0>         0.0000
     23 H9          1.5611   -3.4840   -1.1515 H         1 <0>         0.0000
     24 H10         0.8316   -3.9558    0.3421 H         1 <0>         0.0000
@<TRIPOS>BOND
     1    1    5 1
     2    1   11 3
     3    2    3 ar
     4    2    5 ar
     5    2   15 1
     6    3    7 ar
     7    3   16 1
     8    4    5 ar
     9    4    6 ar
    10    4   17 1
    11    6    7 ar
    12    6   12 1
    13    7   14 1
    14    8    9 1
    15    8   12 2
    16    8   13 1
    17    9   10 1
    18    9   14 1
    19    9   18 1
    20   10   19 1
    21   10   20 1
    22   10   21 1
    23   12   22 1
    24   13   23 1
    25   13   24 1
