@<TRIPOS>MOLECULE
*****
   38    41     0     0     0
SMALL
NO_CHARGES

@<TRIPOS>ATOM
      1 C1          0.7606    0.7531    1.8689 C.ar      1 <0>         0.0000
      2 C2          0.8640    0.0757    0.6539 C.ar      1 <0>         0.0000
      3 C3          3.1788   -0.4008    1.1212 C.ar      1 <0>         0.0000
      4 C4          0.5650    1.8706    4.6123 C.2       1 <0>         0.0000
      5 C5          3.0977    0.2771    2.3521 C.ar      1 <0>         0.0000
      6 C6          1.8757    0.8798    2.7166 C.ar      1 <0>         0.0000
      7 C7          2.0741   -0.4913    0.2751 C.ar      1 <0>         0.0000
      8 C8          2.0931    2.9375    5.6319 C.2       1 <0>         0.0000
      9 C9          2.7071    2.3656    4.5401 C.2       1 <0>         0.0000
     10 C10         2.7461    3.8058    6.6228 C.2       1 <0>         0.0000
     11 C11         3.1078    5.0278    8.2524 C.2       1 <0>         0.0000
     12 C12         4.2897    0.1152    3.2395 C.2       1 <0>         0.0000
     13 C13         4.0797    2.4874    4.0104 C.3       1 <0>         0.0000
     14 C14         2.1665    7.1381    9.2256 C.3       1 <0>         0.0000
     15 C15         5.8081    1.0017    4.9798 C.3       1 <0>         0.0000
     16 C16         2.8830    5.8030    9.4774 C.3       1 <0>         0.0000
     17 N1          0.7635    2.6257    5.6699 N.2       1 <0>         0.0000
     18 N2          2.1105    4.3228    7.6438 N.2       1 <0>         0.0000
     19 N3          4.3050    4.9685    7.6617 N.2       1 <0>         0.0000
     20 N4          1.7238    1.6389    3.9034 N.pl3     1 <0>         0.0000
     21 N5          4.6953    1.1728    4.0540 N.am      1 <0>         0.0000
     22 O1          4.8584   -0.9784    3.2133 O.2       1 <0>         0.0000
     23 O2          4.0613    4.1412    6.5583 O.3       1 <0>         0.0000
     24 Cl1         2.2030   -1.3236   -1.2258 Cl        1 <0>         0.0000
     25 H1         -0.1967    1.2090    2.1081 H         1 <0>         0.0000
     26 H2         -0.0090    0.0084    0.0093 H         1 <0>         0.0000
     27 H3          4.1112   -0.8776    0.8221 H         1 <0>         0.0000
     28 H4         -0.3898    1.4417    4.3387 H         1 <0>         0.0000
     29 H5          4.0641    2.8363    2.9711 H         1 <0>         0.0000
     30 H6          4.6821    3.1992    4.5847 H         1 <0>         0.0000
     31 H7          2.7190    7.7404    8.4964 H         1 <0>         0.0000
     32 H8          2.0707    7.7232   10.1456 H         1 <0>         0.0000
     33 H9          1.1611    6.9664    8.8266 H         1 <0>         0.0000
     34 H10         6.7486    1.2720    4.4774 H         1 <0>         0.0000
     35 H11         5.6602    1.6516    5.8549 H         1 <0>         0.0000
     36 H12         5.8554   -0.0477    5.3062 H         1 <0>         0.0000
     37 H13         2.2879    5.2303   10.2198 H         1 <0>         0.0000
     38 H14         3.8365    6.0206   10.0038 H         1 <0>         0.0000
@<TRIPOS>BOND
     1    1    2 ar
     2    1    6 ar
     3    1   25 1
     4    2    7 ar
     5    2   26 1
     6    3    5 ar
     7    3    7 ar
     8    3   27 1
     9    4   17 2
    10    4   20 1
    11    4   28 1
    12    5    6 ar
    13    5   12 1
    14    6   20 1
    15    7   24 1
    16    8    9 2
    17    8   10 1
    18    8   17 1
    19    9   13 1
    20    9   20 1
    21   10   18 2
    22   10   23 1
    23   11   16 1
    24   11   18 1
    25   11   19 2
    26   12   21 am
    27   12   22 2
    28   13   21 1
    29   13   29 1
    30   13   30 1
    31   14   16 1
    32   14   31 1
    33   14   32 1
    34   14   33 1
    35   15   21 1
    36   15   34 1
    37   15   35 1
    38   15   36 1
    39   16   37 1
    40   16   38 1
    41   19   23 1
