@<TRIPOS>MOLECULE
*****
   21    22     0     0     0
SMALL
NO_CHARGES

@<TRIPOS>ATOM
      1 C1          1.7189   -4.9722   -2.4356 C.2       1 <0>         0.0000
      2 C2          1.9436   -3.5921   -2.6548 C.2       1 <0>         0.0000
      3 C3          0.8567   -5.0539   -1.3670 C.2       1 <0>         0.0000
      4 C4          1.2024   -2.9288   -1.7047 C.2       1 <0>         0.0000
      5 C5         -0.8553   -0.5705    1.1037 C.2       1 <0>         0.0000
      6 C6          0.3907   -0.9216   -0.5526 C.2       1 <0>         0.0000
      7 C7          0.3105    0.5532   -0.3867 C.2       1 <0>         0.0000
      8 C8          1.1023   -1.5103   -1.5148 C.2       1 <0>         0.0000
      9 C9         -0.9412    1.9106    1.3194 C.3       1 <0>         0.0000
     10 N1         -0.3624   -1.5465    0.4142 N.2       1 <0>         0.0000
     11 N2         -0.5110    0.6743    0.7017 N.am      1 <0>         0.0000
     12 O1          0.8566    1.3969   -1.0708 O.2       1 <0>         0.0000
     13 O2          0.5369   -3.8127   -0.9158 O.3       1 <0>         0.0000
     14 H1          2.1359   -5.8031   -2.9860 H         1 <0>         0.0000
     15 H2          2.5713   -3.1459   -3.4139 H         1 <0>         0.0000
     16 H3          0.4024   -5.8765   -0.8343 H         1 <0>         0.0000
     17 H4         -1.5186   -0.6689    1.9735 H         1 <0>         0.0000
     18 H5          1.6696   -0.8679   -2.1889 H         1 <0>         0.0000
     19 H6         -0.2356    2.2059    2.1003 H         1 <0>         0.0000
     20 H7         -1.9303    1.7848    1.7681 H         1 <0>         0.0000
     21 H8         -0.9939    2.7078    0.5730 H         1 <0>         0.0000
@<TRIPOS>BOND
     1    1    2 1
     2    1    3 2
     3    1   14 1
     4    2    4 2
     5    2   15 1
     6    3   13 1
     7    3   16 1
     8    4    8 1
     9    4   13 1
    10    5   10 2
    11    5   11 1
    12    5   17 1
    13    6    7 1
    14    6    8 2
    15    6   10 1
    16    7   11 am
    17    7   12 2
    18    8   18 1
    19    9   11 1
    20    9   19 1
    21    9   20 1
    22    9   21 1
