@<TRIPOS>MOLECULE
*****
   18    18     0     0     0
SMALL
NO_CHARGES

@<TRIPOS>ATOM
      1 C1          5.8860    1.3600    0.6260 C.ar      1 <0>         0.0000
      2 C2          4.6020    1.8100    0.9280 C.ar      1 <0>         0.0000
      3 C3          6.0680    0.0980    0.0620 C.ar      1 <0>         0.0000
      4 C4          3.4980    1.0060    0.6680 C.ar      1 <0>         0.0000
      5 C5          4.9700   -0.7150   -0.2000 C.ar      1 <0>         0.0000
      6 C6          3.6860   -0.2620    0.1080 C.ar      1 <0>         0.0000
      7 C7          1.3800   -1.1460    0.3960 C.2       1 <0>         0.0000
      8 N1          0.5260   -2.0050   -0.1690 N.am      1 <0>         0.0000
      9 N2          2.6050   -1.1220   -0.1980 N.am      1 <0>         0.0000
     10 O1          1.0360   -0.4820    1.3560 O.2       1 <0>         0.0000
     11 H1          6.7240    1.9770    0.8260 H         1 <0>         0.0000
     12 H2          4.4660    2.7700    1.3560 H         1 <0>         0.0000
     13 H3          7.0460   -0.2410   -0.1660 H         1 <0>         0.0000
     14 H4          2.5250    1.3580    0.8920 H         1 <0>         0.0000
     15 H5          5.1100   -1.6740   -0.6240 H         1 <0>         0.0000
     16 H6         -0.4410   -1.9580    0.1750 H         1 <0>         0.0000
     17 H7          0.7110   -2.3740   -1.1040 H         1 <0>         0.0000
     18 H8          2.7800   -1.8780   -0.8610 H         1 <0>         0.0000
@<TRIPOS>BOND
     1    1    2 ar
     2    1    3 ar
     3    1   11 1
     4    2    4 ar
     5    2   12 1
     6    3    5 ar
     7    3   13 1
     8    4    6 ar
     9    4   14 1
    10    5    6 ar
    11    5   15 1
    12    6    9 1
    13    7    8 am
    14    7    9 am
    15    7   10 2
    16    8   16 1
    17    8   17 1
    18    9   18 1
