@<TRIPOS>MOLECULE
*****
   29    31     0     0     0
SMALL
NO_CHARGES

@<TRIPOS>ATOM
      1 C1          1.5469   -1.4919    0.1950 C.ar      1 <0>         0.0000
      2 C2          1.0255   -0.2647   -0.2433 C.ar      1 <0>         0.0000
      3 C3          6.7563    5.3246   -5.2397 C.2       1 <0>         0.0000
      4 C4          2.8617   -1.8555   -0.1041 C.ar      1 <0>         0.0000
      5 C5          1.8107    0.6182   -0.9878 C.ar      1 <0>         0.0000
      6 C6          6.4270    4.1453   -4.5110 C.2       1 <0>         0.0000
      7 C7          8.0528    5.3006   -5.7045 C.2       1 <0>         0.0000
      8 C8          3.6366   -0.9762   -0.8430 C.ar      1 <0>         0.0000
      9 C9          3.1145    0.2530   -1.2820 C.ar      1 <0>         0.0000
     10 C10         7.4845    3.2646   -4.4469 C.2       1 <0>         0.0000
     11 C11         5.3232    0.1209   -2.0303 C.2       1 <0>         0.0000
     12 C12         7.5509    1.9351   -3.7874 C.2       1 <0>         0.0000
     13 C13         5.0594   -1.1648   -1.2713 C.3       1 <0>         0.0000
     14 C14         4.1216    1.0430   -2.0600 C.3       1 <0>         0.0000
     15 N1          6.4549    0.3885   -2.5864 N.2       1 <0>         0.0000
     16 O1          8.5531    1.2364   -3.7965 O.2       1 <0>         0.0000
     17 O2          6.3610    1.6454   -3.1983 O.3       1 <0>         0.0000
     18 S1          8.8672    3.8605   -5.2626 S.3       1 <0>         0.0000
     19 H1          0.9193   -2.1651    0.7729 H         1 <0>         0.0000
     20 H2         -0.0001    0.0005   -0.0007 H         1 <0>         0.0000
     21 H3          6.0770    6.1491   -5.4130 H         1 <0>         0.0000
     22 H4          3.2612   -2.8044    0.2373 H         1 <0>         0.0000
     23 H5          1.4040    1.5658   -1.3251 H         1 <0>         0.0000
     24 H6          5.4612    3.9574   -4.0590 H         1 <0>         0.0000
     25 H7          8.5607    6.0604   -6.2816 H         1 <0>         0.0000
     26 H8          5.7344   -1.2363   -0.4148 H         1 <0>         0.0000
     27 H9          5.1705   -2.0212   -1.9412 H         1 <0>         0.0000
     28 H10         3.8011    1.2027   -3.0929 H         1 <0>         0.0000
     29 H11         4.3652    1.9867   -1.5659 H         1 <0>         0.0000
@<TRIPOS>BOND
     1    1    2 ar
     2    1    4 ar
     3    1   19 1
     4    2    5 ar
     5    2   20 1
     6    3    6 1
     7    3    7 2
     8    3   21 1
     9    4    8 ar
    10    4   22 1
    11    5    9 ar
    12    5   23 1
    13    6   10 2
    14    6   24 1
    15    7   18 1
    16    7   25 1
    17    8    9 ar
    18    8   13 1
    19    9   14 1
    20   10   12 1
    21   10   18 1
    22   11   13 1
    23   11   14 1
    24   11   15 2
    25   12   16 2
    26   12   17 1
    27   13   26 1
    28   13   27 1
    29   14   28 1
    30   14   29 1
    31   15   17 1
