@<TRIPOS>MOLECULE
*****
   32    33     0     0     0
SMALL
NO_CHARGES

@<TRIPOS>ATOM
      1 C1         -2.8930   -2.2442    1.8176 C.2       1 <0>         0.0000
      2 C2          1.9220    1.0890   -1.3776 C.3       1 <0>         0.0000
      3 C3          1.0893   -0.1767   -1.1366 C.3       1 <0>         0.0000
      4 C4          0.0218    0.1976    1.2175 C.3       1 <0>         0.0000
      5 C5         -1.3513   -0.5069   -0.2253 C.3       1 <0>         0.0000
      6 C6          0.8222    2.1372   -1.5810 C.3       1 <0>         0.0000
      7 C7         -0.0844    0.3691   -0.3228 C.3       1 <0>         0.0000
      8 C8         -3.3682   -4.6124    1.4810 C.3       1 <0>         0.0000
      9 C9         -1.0647   -3.9319    2.0647 C.3       1 <0>         0.0000
     10 C10        -1.8875   -1.1341    2.1486 C.3       1 <0>         0.0000
     11 N1         -0.8825   -0.9735    1.1078 N.3       1 <0>         0.0000
     12 N2         -2.4247   -3.5289    1.7286 N.am      1 <0>         0.0000
     13 O1         -4.0788   -1.9547    1.6321 O.2       1 <0>         0.0000
     14 O2         -0.2952    1.7023   -0.7809 O.3       1 <0>         0.0000
     15 H1          2.5200    1.3273   -0.4911 H         1 <0>         0.0000
     16 H2          2.5964    1.0126   -2.2347 H         1 <0>         0.0000
     17 H3          0.7226   -0.5787   -2.0885 H         1 <0>         0.0000
     18 H4          1.6245   -0.9728   -0.6139 H         1 <0>         0.0000
     19 H5          1.0036   -0.0155    1.6578 H         1 <0>         0.0000
     20 H6         -0.4403    1.0558    1.7277 H         1 <0>         0.0000
     21 H7         -2.2564    0.1139   -0.1710 H         1 <0>         0.0000
     22 H8         -1.4895   -1.3008   -0.9669 H         1 <0>         0.0000
     23 H9          1.1102    3.1414   -1.2554 H         1 <0>         0.0000
     24 H10         0.5084    2.1872   -2.6323 H         1 <0>         0.0000
     25 H11        -3.0169   -5.2324    0.6478 H         1 <0>         0.0000
     26 H12        -4.3396   -4.1861    1.2361 H         1 <0>         0.0000
     27 H13        -3.4688   -5.2500    2.3696 H         1 <0>         0.0000
     28 H14        -1.0041   -4.3203    3.0915 H         1 <0>         0.0000
     29 H15        -0.3782   -3.0970    1.9364 H         1 <0>         0.0000
     30 H16        -0.7498   -4.7297    1.3831 H         1 <0>         0.0000
     31 H17        -2.4922   -0.2258    2.2906 H         1 <0>         0.0000
     32 H18        -1.3777   -1.3516    3.0957 H         1 <0>         0.0000
@<TRIPOS>BOND
     1    1   10 1
     2    1   12 am
     3    1   13 2
     4    2    3 1
     5    2    6 1
     6    2   15 1
     7    2   16 1
     8    3    7 1
     9    3   17 1
    10    3   18 1
    11    4    7 1
    12    4   11 1
    13    4   19 1
    14    4   20 1
    15    5    7 1
    16    5   11 1
    17    5   21 1
    18    5   22 1
    19    6   14 1
    20    6   23 1
    21    6   24 1
    22    7   14 1
    23    8   12 1
    24    8   25 1
    25    8   26 1
    26    8   27 1
    27    9   12 1
    28    9   28 1
    29    9   29 1
    30    9   30 1
    31   10   11 1
    32   10   31 1
    33   10   32 1
