@<TRIPOS>MOLECULE
*****
   14    14     0     0     0
SMALL
NO_CHARGES

@<TRIPOS>ATOM
      1 C1          1.2007   -0.6777    0.3244 C.ar      1 <0>         0.0000
      2 C2          3.3104   -1.8016    0.8042 C.ar      1 <0>         0.0000
      3 C3          0.8497   -0.8335    1.6525 C.ar      1 <0>         0.0000
      4 C4          2.4492   -1.1741   -0.0960 C.ar      1 <0>         0.0000
      5 C5          2.8969   -1.9354    2.1252 C.ar      1 <0>         0.0000
      6 N1          1.7009   -1.4604    2.4889 N.ar      1 <0>         0.0000
      7 O1          2.5926   -2.3301    4.6603 O.3       1 <0>         0.0000
      8 O2          4.8178   -1.3540    3.9227 O.2       1 <0>         0.0000
      9 S1          3.8622   -2.5005    3.8188 S.o       1 <0>         0.0000
     10 Cl1         2.9117   -0.9846   -1.7608 Cl        1 <0>         0.0000
     11 H1          0.5303   -0.1837   -0.3689 H         1 <0>         0.0000
     12 H2          4.2845   -2.1651    0.4918 H         1 <0>         0.0000
     13 H3         -0.0889   -0.4771    2.0642 H         1 <0>         0.0000
     14 H4          1.5633   -1.6064    3.5376 H         1 <0>         0.0000
@<TRIPOS>BOND
     1    1    3 ar
     2    1    4 ar
     3    1   11 1
     4    2    4 ar
     5    2    5 ar
     6    2   12 1
     7    3    6 ar
     8    3   13 1
     9    4   10 1
    10    5    6 ar
    11    5    9 1
    12    6   14 1
    13    7    9 1
    14    8    9 2
