@<TRIPOS>MOLECULE
*****
   24    24     0     0     0
SMALL
NO_CHARGES

@<TRIPOS>ATOM
      1 C1          3.5540    0.4586   -5.6633 C.2       1 <0>         0.0000
      2 C2          3.6483    0.0882   -4.3520 C.2       1 <0>         0.0000
      3 C3          5.4948   -0.9923   -5.0357 C.2       1 <0>         0.0000
      4 C4          1.2605    0.4664   -3.7479 C.2       1 <0>         0.0000
      5 C5         -0.5794   -0.9338   -4.2218 C.3       1 <0>         0.0000
      6 C6          8.6120   -0.2614   -5.9754 C.3       1 <0>         0.0000
      7 C7          2.6854    0.5003   -3.2528 C.3       1 <0>         0.0000
      8 N1          4.7121   -0.7064   -4.0008 N.2       1 <0>         0.0000
      9 N2          6.5993   -1.7538   -4.9148 N.2       1 <0>         0.0000
     10 O1          0.6436    1.4101   -4.2148 O.2       1 <0>         0.0000
     11 O2          7.1037   -1.8205   -7.4710 O.2       1 <0>         0.0000
     12 O3          8.6563   -2.8953   -5.7846 O.2       1 <0>         0.0000
     13 O4          0.7231   -0.7773   -3.6393 O.3       1 <0>         0.0000
     14 S1          4.8594   -0.2513   -6.5836 S.3       1 <0>         0.0000
     15 S2          7.6883   -1.8278   -6.1034 S.o2      1 <0>         0.0000
     16 H1          2.8019    1.0853   -6.1260 H         1 <0>         0.0000
     17 H2         -0.8490   -1.9784   -4.0598 H         1 <0>         0.0000
     18 H3         -0.5477   -0.7102   -5.2918 H         1 <0>         0.0000
     19 H4         -1.3037   -0.2702   -3.7408 H         1 <0>         0.0000
     20 H5          9.3762   -0.2604   -6.7561 H         1 <0>         0.0000
     21 H6          7.9151    0.5668   -6.1220 H         1 <0>         0.0000
     22 H7          9.0669   -0.2178   -4.9846 H         1 <0>         0.0000
     23 H8          2.8097   -0.1981   -2.4230 H         1 <0>         0.0000
     24 H9          2.8968    1.5153   -2.9027 H         1 <0>         0.0000
@<TRIPOS>BOND
     1    1    2 2
     2    1   14 1
     3    1   16 1
     4    2    7 1
     5    2    8 1
     6    3    8 2
     7    3    9 1
     8    3   14 1
     9    4    7 1
    10    4   10 2
    11    4   13 1
    12    5   13 1
    13    5   17 1
    14    5   18 1
    15    5   19 1
    16    6   15 1
    17    6   20 1
    18    6   21 1
    19    6   22 1
    20    7   23 1
    21    7   24 1
    22    9   15 1
    23   11   15 2
    24   12   15 2
