@<TRIPOS>MOLECULE
*****
   15    15     0     0     0
SMALL
NO_CHARGES

@<TRIPOS>ATOM
      1 C1          0.8036   -0.4828    0.5645 C.ar      1 <0>         0.0000
      2 C2          2.9334   -1.6627    0.5247 C.ar      1 <0>         0.0000
      3 C3          0.7059   -0.7628    1.9148 C.ar      1 <0>         0.0000
      4 C4          1.9272   -0.9419   -0.1448 C.ar      1 <0>         0.0000
      5 C5          2.7843   -1.8995    1.8752 C.ar      1 <0>         0.0000
      6 N1          1.6925   -1.4523    2.5339 N.ar      1 <0>         0.0000
      7 O1          4.3590   -4.0187    1.9342 O.2       1 <0>         0.0000
      8 O2          2.9747   -3.1616    4.0139 O.3       1 <0>         0.0000
      9 S1          4.1176   -2.8427    2.7851 S.o       1 <0>         0.0000
     10 Cl1         2.0698   -0.6319   -1.8206 Cl        1 <0>         0.0000
     11 H1          0.0154    0.0731    0.0689 H         1 <0>         0.0000
     12 H2          3.7977   -2.0492   -0.0071 H         1 <0>         0.0000
     13 H3         -0.1394   -0.4617    2.5239 H         1 <0>         0.0000
     14 H4          1.6023   -1.7281    3.5168 H         1 <0>         0.0000
     15 H5          3.4284   -3.5420    4.7937 H         1 <0>         0.0000
@<TRIPOS>BOND
     1    1    3 ar
     2    1    4 ar
     3    1   11 1
     4    2    4 ar
     5    2    5 ar
     6    2   12 1
     7    3    6 ar
     8    3   13 1
     9    4   10 1
    10    5    6 ar
    11    5    9 1
    12    6   14 1
    13    7    9 2
    14    8    9 1
    15    8   15 1
