@<TRIPOS>MOLECULE
*****
   24    24     0     0     0
SMALL
NO_CHARGES

@<TRIPOS>ATOM
      1 C1          4.6897    2.3737   -5.2223 C.2       1 <0>         0.0000
      2 C2          3.7379    1.4815   -4.8164 C.2       1 <0>         0.0000
      3 C3          5.2630   -0.0519   -5.4125 C.2       1 <0>         0.0000
      4 C4          2.3303    1.5424   -2.7613 C.2       1 <0>         0.0000
      5 C5          2.0063   -0.1764   -1.1785 C.3       1 <0>         0.0000
      6 C6          4.5490   -2.7096   -3.8028 C.3       1 <0>         0.0000
      7 C7          2.3925    1.8648   -4.2420 C.3       1 <0>         0.0000
      8 N1          4.0450    0.1455   -4.9193 N.2       1 <0>         0.0000
      9 N2          5.9616   -1.1713   -5.6307 N.2       1 <0>         0.0000
     10 O1          2.6152    2.3123   -1.8593 O.2       1 <0>         0.0000
     11 O2          6.2531   -3.6552   -5.5856 O.2       1 <0>         0.0000
     12 O3          4.0376   -2.7631   -6.3998 O.2       1 <0>         0.0000
     13 O4          1.9345    0.2657   -2.5427 O.3       1 <0>         0.0000
     14 S1          6.1009    1.5059   -5.7966 S.3       1 <0>         0.0000
     15 S2          5.2045   -2.6157   -5.4992 S.o2      1 <0>         0.0000
     16 H1          4.6481    3.4549   -5.1947 H         1 <0>         0.0000
     17 H2          1.7108   -1.2261   -1.1968 H         1 <0>         0.0000
     18 H3          1.3297    0.4046   -0.5448 H         1 <0>         0.0000
     19 H4          3.0263   -0.0745   -0.7992 H         1 <0>         0.0000
     20 H5          4.0872   -3.6947   -3.7018 H         1 <0>         0.0000
     21 H6          5.3884   -2.6060   -3.1120 H         1 <0>         0.0000
     22 H7          3.8219   -1.9079   -3.6733 H         1 <0>         0.0000
     23 H8          2.2289    2.9384   -4.3524 H         1 <0>         0.0000
     24 H9          1.6067    1.3108   -4.7643 H         1 <0>         0.0000
@<TRIPOS>BOND
     1    1    2 2
     2    1   14 1
     3    1   16 1
     4    2    7 1
     5    2    8 1
     6    3    8 2
     7    3    9 1
     8    3   14 1
     9    4    7 1
    10    4   10 2
    11    4   13 1
    12    5   13 1
    13    5   17 1
    14    5   18 1
    15    5   19 1
    16    6   15 1
    17    6   20 1
    18    6   21 1
    19    6   22 1
    20    7   23 1
    21    7   24 1
    22    9   15 1
    23   11   15 2
    24   12   15 2
