@<TRIPOS>MOLECULE
*****
   25    25     0     0     0
SMALL
NO_CHARGES

@<TRIPOS>ATOM
      1 C1          3.4264    0.0852   -6.2020 C.2       1 <0>         0.0000
      2 C2          3.3757    0.1712   -4.8375 C.2       1 <0>         0.0000
      3 C3          5.1369   -1.1657   -5.0033 C.2       1 <0>         0.0000
      4 C4          1.4369    1.8587   -4.6866 C.2       1 <0>         0.0000
      5 C5         -0.1551    3.5707   -4.3304 C.3       1 <0>         0.0000
      6 C6          8.1224   -2.6247   -6.4121 C.3       1 <0>         0.0000
      7 C7          2.4145    0.9449   -3.9770 C.3       1 <0>         0.0000
      8 N1          4.3591   -0.5403   -4.1669 N.2       1 <0>         0.0000
      9 N2          6.1746   -2.0223   -4.5972 N.pl3     1 <0>         0.0000
     10 O1          1.1870    1.8821   -5.8769 O.2       1 <0>         0.0000
     11 O2          7.9081   -0.2011   -5.3660 O.2       1 <0>         0.0000
     12 O3          8.5826   -2.1390   -3.8346 O.2       1 <0>         0.0000
     13 O4          0.8314    2.6668   -3.7866 O.3       1 <0>         0.0000
     14 S1          4.7282   -0.9584   -6.6900 S.3       1 <0>         0.0000
     15 S2          7.8198   -1.6026   -4.9626 S.o2      1 <0>         0.0000
     16 H1          2.7914    0.5744   -6.9248 H         1 <0>         0.0000
     17 H2         -0.5304    4.1359   -3.4778 H         1 <0>         0.0000
     18 H3         -0.9619    3.0104   -4.8083 H         1 <0>         0.0000
     19 H4          0.3045    4.2372   -5.0635 H         1 <0>         0.0000
     20 H5          9.1618   -2.4539   -6.6981 H         1 <0>         0.0000
     21 H6          7.9550   -3.6660   -6.1382 H         1 <0>         0.0000
     22 H7          7.4515   -2.3068   -7.2107 H         1 <0>         0.0000
     23 H8          1.8224    0.2442   -3.3745 H         1 <0>         0.0000
     24 H9          2.9762    1.5380   -3.2492 H         1 <0>         0.0000
     25 H10         6.1242   -2.2036   -3.5930 H         1 <0>         0.0000
@<TRIPOS>BOND
     1    1    2 2
     2    1   14 1
     3    1   16 1
     4    2    7 1
     5    2    8 1
     6    3    8 2
     7    3    9 1
     8    3   14 1
     9    4    7 1
    10    4   10 2
    11    4   13 1
    12    5   13 1
    13    5   17 1
    14    5   18 1
    15    5   19 1
    16    6   15 1
    17    6   20 1
    18    6   21 1
    19    6   22 1
    20    7   23 1
    21    7   24 1
    22    9   15 1
    23    9   25 1
    24   11   15 2
    25   12   15 2
