@<TRIPOS>MOLECULE
*****
   24    24     0     0     0
SMALL
NO_CHARGES

@<TRIPOS>ATOM
      1 C1          4.1498    1.0160   -5.1860 C.2       1 <0>         0.0000
      2 C2          3.8004    0.2663   -4.1003 C.2       1 <0>         0.0000
      3 C3          5.3718   -1.1437   -4.8719 C.2       1 <0>         0.0000
      4 C4          2.1502   -0.7305   -2.5672 C.2       1 <0>         0.0000
      5 C5          1.4833   -2.8668   -3.3449 C.3       1 <0>         0.0000
      6 C6          6.2214   -3.0627   -2.4357 C.3       1 <0>         0.0000
      7 C7          2.7169    0.5799   -3.0919 C.3       1 <0>         0.0000
      8 N1          4.4861   -0.9113   -3.9128 N.2       1 <0>         0.0000
      9 N2          6.2030   -2.1770   -5.0646 N.2       1 <0>         0.0000
     10 O1          2.2164   -1.1021   -1.4086 O.2       1 <0>         0.0000
     11 O2          7.0471   -4.4694   -4.5147 O.2       1 <0>         0.0000
     12 O3          4.5728   -4.0535   -4.2486 O.2       1 <0>         0.0000
     13 O4          1.5807   -1.4411   -3.5631 O.3       1 <0>         0.0000
     14 S1          5.4258    0.1998   -6.0774 S.3       1 <0>         0.0000
     15 S2          5.9604   -3.5273   -4.1738 S.o2      1 <0>         0.0000
     16 H1          3.7333    1.9589   -5.5173 H         1 <0>         0.0000
     17 H2          0.8533   -3.2420   -4.1532 H         1 <0>         0.0000
     18 H3          1.0313   -3.0794   -2.3729 H         1 <0>         0.0000
     19 H4          2.4859   -3.2980   -3.4187 H         1 <0>         0.0000
     20 H5          6.0989   -3.9729   -1.8442 H         1 <0>         0.0000
     21 H6          7.2380   -2.6759   -2.3410 H         1 <0>         0.0000
     22 H7          5.4793   -2.3108   -2.1676 H         1 <0>         0.0000
     23 H8          3.1084    1.1279   -2.2300 H         1 <0>         0.0000
     24 H9          1.9239    1.1744   -3.5573 H         1 <0>         0.0000
@<TRIPOS>BOND
     1    1    2 2
     2    1   14 1
     3    1   16 1
     4    2    7 1
     5    2    8 1
     6    3    8 2
     7    3    9 1
     8    3   14 1
     9    4    7 1
    10    4   10 2
    11    4   13 1
    12    5   13 1
    13    5   17 1
    14    5   18 1
    15    5   19 1
    16    6   15 1
    17    6   20 1
    18    6   21 1
    19    6   22 1
    20    7   23 1
    21    7   24 1
    22    9   15 1
    23   11   15 2
    24   12   15 2
