@<TRIPOS>MOLECULE
*****
   25    25     0     0     0
SMALL
NO_CHARGES

@<TRIPOS>ATOM
      1 C1          4.5442    1.6389   -4.2394 C.2       1 <0>         0.0000
      2 C2          3.6971    0.5683   -4.1873 C.2       1 <0>         0.0000
      3 C3          5.2995   -0.3648   -5.4004 C.2       1 <0>         0.0000
      4 C4          1.2223    0.1915   -4.4599 C.2       1 <0>         0.0000
      5 C5          0.1717    0.7902   -6.4888 C.3       1 <0>         0.0000
      6 C6          4.6058   -3.6785   -5.7233 C.3       1 <0>         0.0000
      7 C7          2.3602    0.5237   -3.5040 C.3       1 <0>         0.0000
      8 N1          4.1314   -0.5600   -4.8590 N.2       1 <0>         0.0000
      9 N2          5.9708   -1.3537   -6.1220 N.pl3     1 <0>         0.0000
     10 O1          0.4151   -0.7007   -4.2943 O.2       1 <0>         0.0000
     11 O2          7.2340   -3.5212   -6.2412 O.2       1 <0>         0.0000
     12 O3          6.3752   -2.7890   -3.9543 O.2       1 <0>         0.0000
     13 O4          1.2085    1.0351   -5.5156 O.3       1 <0>         0.0000
     14 S1          5.9868    1.2280   -5.1245 S.3       1 <0>         0.0000
     15 S2          6.1995   -2.9181   -5.3986 S.o2      1 <0>         0.0000
     16 H1          4.3988    2.6353   -3.8437 H         1 <0>         0.0000
     17 H2          0.3195    1.5403   -7.2654 H         1 <0>         0.0000
     18 H3         -0.8143    0.8971   -6.0305 H         1 <0>         0.0000
     19 H4          0.2702   -0.2168   -6.9005 H         1 <0>         0.0000
     20 H5          4.6450   -4.6725   -5.2736 H         1 <0>         0.0000
     21 H6          3.8425   -3.0568   -5.2551 H         1 <0>         0.0000
     22 H7          4.4748   -3.7376   -6.8034 H         1 <0>         0.0000
     23 H8          2.3549   -0.2420   -2.7252 H         1 <0>         0.0000
     24 H9          2.1495    1.4915   -3.0393 H         1 <0>         0.0000
     25 H10         6.8352   -1.0782   -6.5840 H         1 <0>         0.0000
@<TRIPOS>BOND
     1    1    2 2
     2    1   14 1
     3    1   16 1
     4    2    7 1
     5    2    8 1
     6    3    8 2
     7    3    9 1
     8    3   14 1
     9    4    7 1
    10    4   10 2
    11    4   13 1
    12    5   13 1
    13    5   17 1
    14    5   18 1
    15    5   19 1
    16    6   15 1
    17    6   20 1
    18    6   21 1
    19    6   22 1
    20    7   23 1
    21    7   24 1
    22    9   15 1
    23    9   25 1
    24   11   15 2
    25   12   15 2
