@<TRIPOS>MOLECULE
*****
   24    24     0     0     0
SMALL
NO_CHARGES

@<TRIPOS>ATOM
      1 C1          3.3642    0.6796   -6.2454 C.2       1 <0>         0.0000
      2 C2          3.1716    0.0223   -5.0629 C.2       1 <0>         0.0000
      3 C3          5.2836   -0.6664   -5.3779 C.2       1 <0>         0.0000
      4 C4          1.2493    1.3994   -4.2689 C.2       1 <0>         0.0000
      5 C5          1.2979    3.5535   -3.3054 C.3       1 <0>         0.0000
      6 C6          6.5072   -1.4343   -2.5183 C.3       1 <0>         0.0000
      7 C7          1.8848    0.0311   -4.2581 C.3       1 <0>         0.0000
      8 N1          4.2246   -0.7144   -4.5722 N.2       1 <0>         0.0000
      9 N2          6.5057   -1.2012   -5.2753 N.2       1 <0>         0.0000
     10 O1          0.4057    1.7897   -5.0587 O.2       1 <0>         0.0000
     11 O2          8.2548   -2.5763   -4.1338 O.2       1 <0>         0.0000
     12 O3          5.8913   -3.4594   -4.1087 O.2       1 <0>         0.0000
     13 O4          1.7508    2.1915   -3.2834 O.3       1 <0>         0.0000
     14 S1          4.9834    0.3594   -6.8341 S.3       1 <0>         0.0000
     15 S2          6.8040   -2.2927   -4.0952 S.o2      1 <0>         0.0000
     16 H1          2.6605    1.2960   -6.7891 H         1 <0>         0.0000
     17 H2          1.8000    4.0430   -2.4697 H         1 <0>         0.0000
     18 H3          0.2120    3.6046   -3.1848 H         1 <0>         0.0000
     19 H4          1.5734    4.0321   -4.2492 H         1 <0>         0.0000
     20 H5          6.7347   -2.1474   -1.7225 H         1 <0>         0.0000
     21 H6          7.1803   -0.5760   -2.4705 H         1 <0>         0.0000
     22 H7          5.4626   -1.1240   -2.4916 H         1 <0>         0.0000
     23 H8          1.1638   -0.6828   -4.6676 H         1 <0>         0.0000
     24 H9          2.1290   -0.2583   -3.2344 H         1 <0>         0.0000
@<TRIPOS>BOND
     1    1    2 2
     2    1   14 1
     3    1   16 1
     4    2    7 1
     5    2    8 1
     6    3    8 2
     7    3    9 1
     8    3   14 1
     9    4    7 1
    10    4   10 2
    11    4   13 1
    12    5   13 1
    13    5   17 1
    14    5   18 1
    15    5   19 1
    16    6   15 1
    17    6   20 1
    18    6   21 1
    19    6   22 1
    20    7   23 1
    21    7   24 1
    22    9   15 1
    23   11   15 2
    24   12   15 2
