@<TRIPOS>MOLECULE
*****
   11    10     0     0     0
SMALL
NO_CHARGES

@<TRIPOS>ATOM
      1 C1          0.5272    0.2418    0.5882 C.2       1 <0>         0.0000
      2 C2         -0.0299   -1.7938   -1.3813 C.3       1 <0>         0.0000
      3 N1          1.3148    1.1073    1.1436 N.2       1 <0>         0.0000
      4 N2          2.7278    0.9649    0.9252 N.3       1 <0>         0.0000
      5 S1         -1.1921    0.2250    0.7303 S.2       1 <0>         0.0000
      6 S2          1.3717   -1.0876   -0.4601 S.3       1 <0>         0.0000
      7 H1          0.3823   -2.6015   -1.9984 H         1 <0>         0.0000
      8 H2         -0.5038   -1.0408   -2.0148 H         1 <0>         0.0000
      9 H3         -0.7796   -2.1812   -0.6896 H         1 <0>         0.0000
     10 H4          3.1057    1.8929    1.1112 H         1 <0>         0.0000
     11 H5          2.9116    0.7693   -0.0678 H         1 <0>         0.0000
@<TRIPOS>BOND
     1    1    3 1
     2    1    5 2
     3    1    6 1
     4    2    6 1
     5    2    7 1
     6    2    8 1
     7    2    9 1
     8    3    4 1
     9    4   10 1
    10    4   11 1
