@<TRIPOS>MOLECULE
*****
   25    25     0     0     0
SMALL
NO_CHARGES

@<TRIPOS>ATOM
      1 C1          4.5675    1.4518   -4.7882 C.2       1 <0>         0.0000
      2 C2          4.1027    0.2932   -4.2292 C.2       1 <0>         0.0000
      3 C3          6.0181   -0.4907   -5.0186 C.2       1 <0>         0.0000
      4 C4          1.8161   -0.6082   -4.5055 C.2       1 <0>         0.0000
      5 C5          1.2292   -2.7059   -5.4162 C.3       1 <0>         0.0000
      6 C6          5.9093   -3.8611   -4.7127 C.3       1 <0>         0.0000
      7 C7          2.7671    0.1126   -3.5575 C.3       1 <0>         0.0000
      8 N1          4.9431   -0.7966   -4.3511 N.2       1 <0>         0.0000
      9 N2          7.0013   -1.4373   -5.3179 N.pl3     1 <0>         0.0000
     10 O1          1.0329   -0.0496   -5.2476 O.2       1 <0>         0.0000
     11 O2          5.3925   -2.6495   -7.0151 O.2       1 <0>         0.0000
     12 O3          7.7751   -3.4577   -6.6003 O.2       1 <0>         0.0000
     13 O4          1.9831   -1.9459   -4.4456 O.3       1 <0>         0.0000
     14 S1          6.1050    1.1782   -5.5583 S.3       1 <0>         0.0000
     15 S2          6.5106   -2.9066   -6.1095 S.o2      1 <0>         0.0000
     16 H1          4.1068    2.4306   -4.7946 H         1 <0>         0.0000
     17 H2          1.4755   -3.7493   -5.2211 H         1 <0>         0.0000
     18 H3          1.5310   -2.4233   -6.4269 H         1 <0>         0.0000
     19 H4          0.1587   -2.5301   -5.2905 H         1 <0>         0.0000
     20 H5          5.5731   -4.8160   -5.1213 H         1 <0>         0.0000
     21 H6          6.7365   -3.9985   -4.0167 H         1 <0>         0.0000
     22 H7          5.0878   -3.3023   -4.2639 H         1 <0>         0.0000
     23 H8          2.8938   -0.4734   -2.6438 H         1 <0>         0.0000
     24 H9          2.3272    1.0813   -3.3190 H         1 <0>         0.0000
     25 H10         7.8499   -1.0941   -5.7641 H         1 <0>         0.0000
@<TRIPOS>BOND
     1    1    2 2
     2    1   14 1
     3    1   16 1
     4    2    7 1
     5    2    8 1
     6    3    8 2
     7    3    9 1
     8    3   14 1
     9    4    7 1
    10    4   10 2
    11    4   13 1
    12    5   13 1
    13    5   17 1
    14    5   18 1
    15    5   19 1
    16    6   15 1
    17    6   20 1
    18    6   21 1
    19    6   22 1
    20    7   23 1
    21    7   24 1
    22    9   15 1
    23    9   25 1
    24   11   15 2
    25   12   15 2
