@<TRIPOS>MOLECULE
*****
   24    24     0     0     0
SMALL
NO_CHARGES

@<TRIPOS>ATOM
      1 C1          5.0781    2.1235   -3.5101 C.2       1 <0>         0.0000
      2 C2          4.4227    0.9641   -3.2038 C.2       1 <0>         0.0000
      3 C3          6.1546   -0.0084   -4.2472 C.2       1 <0>         0.0000
      4 C4          2.1726    1.9798   -2.8471 C.2       1 <0>         0.0000
      5 C5          0.6100    2.6734   -4.4741 C.3       1 <0>         0.0000
      6 C6          5.1946   -2.8849   -5.2811 C.3       1 <0>         0.0000
      7 C7          3.1155    0.8755   -2.4373 C.3       1 <0>         0.0000
      8 N1          5.0025   -0.2144   -3.6125 N.2       1 <0>         0.0000
      9 N2          7.0167   -0.8528   -4.8253 N.2       1 <0>         0.0000
     10 O1          2.0697    3.0692   -2.3081 O.2       1 <0>         0.0000
     11 O2          6.8089   -2.8764   -3.1824 O.2       1 <0>         0.0000
     12 O3          7.8156   -3.1294   -5.4821 O.2       1 <0>         0.0000
     13 O4          1.4373    1.6307   -3.9367 O.3       1 <0>         0.0000
     14 S1          6.5590    1.7478   -4.3681 S.3       1 <0>         0.0000
     15 S2          6.8302   -2.4618   -4.6044 S.o2      1 <0>         0.0000
     16 H1          4.7884    3.1379   -3.2697 H         1 <0>         0.0000
     17 H2          0.1083    2.2341   -5.3376 H         1 <0>         0.0000
     18 H3          1.2220    3.5259   -4.7817 H         1 <0>         0.0000
     19 H4         -0.1220    3.0100   -3.7344 H         1 <0>         0.0000
     20 H5          5.0722   -3.9638   -5.1611 H         1 <0>         0.0000
     21 H6          4.4413   -2.3317   -4.7201 H         1 <0>         0.0000
     22 H7          5.1868   -2.6114   -6.3381 H         1 <0>         0.0000
     23 H8          2.6674   -0.0963   -2.6522 H         1 <0>         0.0000
     24 H9          3.2887    0.9577   -1.3602 H         1 <0>         0.0000
@<TRIPOS>BOND
     1    1    2 2
     2    1   14 1
     3    1   16 1
     4    2    7 1
     5    2    8 1
     6    3    8 2
     7    3    9 1
     8    3   14 1
     9    4    7 1
    10    4   10 2
    11    4   13 1
    12    5   13 1
    13    5   17 1
    14    5   18 1
    15    5   19 1
    16    6   15 1
    17    6   20 1
    18    6   21 1
    19    6   22 1
    20    7   23 1
    21    7   24 1
    22    9   15 1
    23   11   15 2
    24   12   15 2
