@<TRIPOS>MOLECULE
*****
   24    24     0     0     0
SMALL
NO_CHARGES

@<TRIPOS>ATOM
      1 C1          4.5633    1.1164   -4.8846 C.2       1 <0>         0.0000
      2 C2          3.9424    0.2544   -4.0261 C.2       1 <0>         0.0000
      3 C3          5.6894   -1.0792   -4.4867 C.2       1 <0>         0.0000
      4 C4          2.2398    1.9311   -3.1680 C.2       1 <0>         0.0000
      5 C5          1.4720    3.8511   -4.3108 C.3       1 <0>         0.0000
      6 C6          6.0264   -3.1418   -2.0573 C.3       1 <0>         0.0000
      7 C7          2.6269    0.4791   -3.3070 C.3       1 <0>         0.0000
      8 N1          4.5597   -0.9544   -3.7949 N.2       1 <0>         0.0000
      9 N2          6.5998   -2.0582   -4.5379 N.2       1 <0>         0.0000
     10 O1          2.2846    2.5884   -2.1433 O.2       1 <0>         0.0000
     11 O2          7.5069   -4.3024   -3.9096 O.2       1 <0>         0.0000
     12 O3          5.0200   -4.1275   -4.2986 O.2       1 <0>         0.0000
     13 O4          1.8041    2.4544   -4.3485 O.3       1 <0>         0.0000
     14 S1          6.0396    0.3850   -5.4850 S.3       1 <0>         0.0000
     15 S2          6.2722   -3.4928   -3.8255 S.o2      1 <0>         0.0000
     16 H1          4.2325    2.0912   -5.2142 H         1 <0>         0.0000
     17 H2          1.1690    4.1078   -5.3269 H         1 <0>         0.0000
     18 H3          2.3390    4.4446   -4.0080 H         1 <0>         0.0000
     19 H4          0.6546    4.0363   -3.6081 H         1 <0>         0.0000
     20 H5          5.8337   -4.0997   -1.5688 H         1 <0>         0.0000
     21 H6          6.9432   -2.6904   -1.6732 H         1 <0>         0.0000
     22 H7          5.1774   -2.4651   -1.9604 H         1 <0>         0.0000
     23 H8          1.8302   -0.0587   -3.8352 H         1 <0>         0.0000
     24 H9          2.7061    0.0632   -2.3012 H         1 <0>         0.0000
@<TRIPOS>BOND
     1    1    2 2
     2    1   14 1
     3    1   16 1
     4    2    7 1
     5    2    8 1
     6    3    8 2
     7    3    9 1
     8    3   14 1
     9    4    7 1
    10    4   10 2
    11    4   13 1
    12    5   13 1
    13    5   17 1
    14    5   18 1
    15    5   19 1
    16    6   15 1
    17    6   20 1
    18    6   21 1
    19    6   22 1
    20    7   23 1
    21    7   24 1
    22    9   15 1
    23   11   15 2
    24   12   15 2
