@<TRIPOS>MOLECULE
*****
   14    13     0     0     0
SMALL
NO_CHARGES

@<TRIPOS>ATOM
      1 C1          0.8617   -0.3588   -0.2353 C.3       1 <0>         0.0000
      2 C2          1.0976    1.6086   -1.8569 C.3       1 <0>         0.0000
      3 C3          1.0234    0.0890   -1.6821 C.3       1 <0>         0.0000
      4 O1         -0.2196   -0.0891   -4.0854 O.2       1 <0>         0.0000
      5 O2         -1.6633   -0.1965   -1.9903 O.2       1 <0>         0.0000
      6 S1         -0.4152   -0.4893   -2.6935 S.o2      1 <0>         0.0000
      7 Br1        -0.1033   -2.7969   -2.6204 Br        1 <0>         0.0000
      8 H1         -0.0333    0.0812    0.2111 H         1 <0>         0.0000
      9 H2          0.8040   -1.4455   -0.1464 H         1 <0>         0.0000
     10 H3          1.7358   -0.0178    0.3287 H         1 <0>         0.0000
     11 H4          0.2152    2.0978   -1.4355 H         1 <0>         0.0000
     12 H5          1.1985    1.8928   -2.9062 H         1 <0>         0.0000
     13 H6          1.9777    1.9680   -1.3143 H         1 <0>         0.0000
     14 H7          1.8713   -0.4024   -2.1668 H         1 <0>         0.0000
@<TRIPOS>BOND
     1    1    3 1
     2    1    8 1
     3    1    9 1
     4    1   10 1
     5    2    3 1
     6    2   11 1
     7    2   12 1
     8    2   13 1
     9    3    6 1
    10    3   14 1
    11    4    6 2
    12    5    6 2
    13    6    7 1
