@<TRIPOS>MOLECULE
*****
   25    25     0     0     0
SMALL
NO_CHARGES

@<TRIPOS>ATOM
      1 C1          5.2393    1.7395   -4.5552 C.2       1 <0>         0.0000
      2 C2          4.3974    0.9475   -3.8247 C.2       1 <0>         0.0000
      3 C3          5.7866   -0.6260   -4.5433 C.2       1 <0>         0.0000
      4 C4          2.7963    2.7998   -3.0199 C.2       1 <0>         0.0000
      5 C5          1.1376    4.3142   -2.2777 C.3       1 <0>         0.0000
      6 C6          8.1986   -1.8401   -2.7541 C.3       1 <0>         0.0000
      7 C7          3.1808    1.3346   -3.0295 C.3       1 <0>         0.0000
      8 N1          4.7275   -0.4005   -3.8149 N.2       1 <0>         0.0000
      9 N2          6.2707   -1.9242   -4.7646 N.pl3     1 <0>         0.0000
     10 O1          3.4255    3.7282   -3.4902 O.2       1 <0>         0.0000
     11 O2          7.9882   -3.7542   -4.5977 O.2       1 <0>         0.0000
     12 O3          8.6963   -1.3969   -5.3161 O.2       1 <0>         0.0000
     13 O4          1.6146    2.9547   -2.3787 O.3       1 <0>         0.0000
     14 S1          6.4852    0.7838   -5.3069 S.3       1 <0>         0.0000
     15 S2          7.9146   -2.3011   -4.4783 S.o2      1 <0>         0.0000
     16 H1          5.2074    2.8125   -4.6702 H         1 <0>         0.0000
     17 H2          0.1931    4.2498   -1.7382 H         1 <0>         0.0000
     18 H3          0.9858    4.7382   -3.2728 H         1 <0>         0.0000
     19 H4          1.8547    4.9292   -1.7294 H         1 <0>         0.0000
     20 H5          9.2560   -2.0209   -2.5535 H         1 <0>         0.0000
     21 H6          7.9635   -0.7819   -2.6336 H         1 <0>         0.0000
     22 H7          7.5713   -2.4650   -2.1177 H         1 <0>         0.0000
     23 H8          2.3176    0.7606   -3.3829 H         1 <0>         0.0000
     24 H9          3.3135    1.0247   -1.9859 H         1 <0>         0.0000
     25 H10         5.6504   -2.6350   -4.3777 H         1 <0>         0.0000
@<TRIPOS>BOND
     1    1    2 2
     2    1   14 1
     3    1   16 1
     4    2    7 1
     5    2    8 1
     6    3    8 2
     7    3    9 1
     8    3   14 1
     9    4    7 1
    10    4   10 2
    11    4   13 1
    12    5   13 1
    13    5   17 1
    14    5   18 1
    15    5   19 1
    16    6   15 1
    17    6   20 1
    18    6   21 1
    19    6   22 1
    20    7   23 1
    21    7   24 1
    22    9   15 1
    23    9   25 1
    24   11   15 2
    25   12   15 2
