@<TRIPOS>MOLECULE
*****
   25    25     0     0     0
SMALL
NO_CHARGES

@<TRIPOS>ATOM
      1 C1          4.7891    1.3726   -5.3092 C.2       1 <0>         0.0000
      2 C2          3.7788    0.7692   -4.6127 C.2       1 <0>         0.0000
      3 C3          5.1917   -0.9345   -4.6875 C.2       1 <0>         0.0000
      4 C4          2.3183    1.5179   -2.6726 C.2       1 <0>         0.0000
      5 C5          3.3958    1.9557   -0.6184 C.3       1 <0>         0.0000
      6 C6          6.8490   -1.7671   -2.0596 C.3       1 <0>         0.0000
      7 C7          2.4902    1.4053   -4.1822 C.3       1 <0>         0.0000
      8 N1          4.0218   -0.5462   -4.2582 N.2       1 <0>         0.0000
      9 N2          5.6541   -2.2496   -4.5287 N.pl3     1 <0>         0.0000
     10 O1          1.2548    1.4085   -2.0966 O.2       1 <0>         0.0000
     11 O2          7.1752   -3.9817   -3.5095 O.2       1 <0>         0.0000
     12 O3          8.1494   -1.7712   -4.3681 O.2       1 <0>         0.0000
     13 O4          3.4850    1.8001   -2.0503 O.3       1 <0>         0.0000
     14 S1          6.1066    0.2687   -5.5701 S.3       1 <0>         0.0000
     15 S2          7.1150   -2.5329   -3.6749 S.o2      1 <0>         0.0000
     16 H1          4.8515    2.3997   -5.6449 H         1 <0>         0.0000
     17 H2          4.4106    2.1746   -0.2863 H         1 <0>         0.0000
     18 H3          3.0275    1.0353   -0.1594 H         1 <0>         0.0000
     19 H4          2.7218    2.7774   -0.3653 H         1 <0>         0.0000
     20 H5          7.7833   -1.8749   -1.5060 H         1 <0>         0.0000
     21 H6          6.6106   -0.7133   -2.2088 H         1 <0>         0.0000
     22 H7          6.0368   -2.2917   -1.5554 H         1 <0>         0.0000
     23 H8          2.4174    2.4174   -4.5936 H         1 <0>         0.0000
     24 H9          1.6332    0.8373   -4.5513 H         1 <0>         0.0000
     25 H10         4.9152   -2.8748   -4.2065 H         1 <0>         0.0000
@<TRIPOS>BOND
     1    1    2 2
     2    1   14 1
     3    1   16 1
     4    2    7 1
     5    2    8 1
     6    3    8 2
     7    3    9 1
     8    3   14 1
     9    4    7 1
    10    4   10 2
    11    4   13 1
    12    5   13 1
    13    5   17 1
    14    5   18 1
    15    5   19 1
    16    6   15 1
    17    6   20 1
    18    6   21 1
    19    6   22 1
    20    7   23 1
    21    7   24 1
    22    9   15 1
    23    9   25 1
    24   11   15 2
    25   12   15 2
