@<TRIPOS>MOLECULE
*****
   15    14     0     0     0
SMALL
NO_CHARGES

@<TRIPOS>ATOM
      1 C1          4.1447   -2.8979    5.2771 C.1       1 <0>         0.0000
      2 C2          1.7633   -5.1336    4.1548 C.3       1 <0>         0.0000
      3 C3          4.4725   -2.3539    2.8421 C.3       1 <0>         0.0000
      4 C4          3.1162   -1.7585    2.4538 C.3       1 <0>         0.0000
      5 N1          4.4672   -3.0032    4.1261 N.2       1 <0>         0.0000
      6 S1          3.7540   -2.9001    6.8158 S.2       1 <0>         0.0000
      7 S2          0.9509   -3.5310    3.7986 S.3       1 <0>         0.0000
      8 S3          1.8062   -2.9569    1.9782 S.3       1 <0>         0.0000
      9 H1          1.3566   -5.4645    5.1150 H         1 <0>         0.0000
     10 H2          2.8438   -5.0205    4.2402 H         1 <0>         0.0000
     11 H3          1.5169   -5.8668    3.3847 H         1 <0>         0.0000
     12 H4          5.2200   -1.5498    2.8691 H         1 <0>         0.0000
     13 H5          4.7940   -3.0782    2.0892 H         1 <0>         0.0000
     14 H6          2.7335   -1.1109    3.2464 H         1 <0>         0.0000
     15 H7          3.2580   -1.1472    1.5553 H         1 <0>         0.0000
@<TRIPOS>BOND
     1    1    5 2
     2    1    6 2
     3    2    7 1
     4    2    9 1
     5    2   10 1
     6    2   11 1
     7    3    4 1
     8    3    5 1
     9    3   12 1
    10    3   13 1
    11    4    8 1
    12    4   14 1
    13    4   15 1
    14    7    8 1
