@<TRIPOS>MOLECULE
*****
   16    17     0     0     0
SMALL
NO_CHARGES

@<TRIPOS>ATOM
      1 C1         -1.5406   -0.7895   -0.2406 C.3       1 <0>         0.0000
      2 C2          0.6709   -0.5528   -1.3180 C.3       1 <0>         0.0000
      3 C3         -0.4858   -0.1940    0.6738 C.3       1 <0>         0.0000
      4 C4          0.3233    0.6058   -0.4082 C.3       1 <0>         0.0000
      5 C5          0.2983    1.0643    1.0168 C.3       1 <0>         0.0000
      6 N1         -0.6998   -1.2049   -1.4362 N.3       1 <0>         0.0000
      7 O1          1.3965    0.8726    1.8630 O.3       1 <0>         0.0000
      8 H1         -2.0430   -1.6651    0.1857 H         1 <0>         0.0000
      9 H2         -2.3048   -0.0705   -0.5512 H         1 <0>         0.0000
     10 H3          0.9977   -0.2326   -2.3122 H         1 <0>         0.0000
     11 H4          1.4312   -1.2150   -0.8885 H         1 <0>         0.0000
     12 H5          0.1662   -1.0059    1.0060 H         1 <0>         0.0000
     13 H6         -0.3690    1.2575   -0.9455 H         1 <0>         0.0000
     14 H7         -0.1958    2.0302    1.1386 H         1 <0>         0.0000
     15 H8         -0.6080   -2.2172   -1.4728 H         1 <0>         0.0000
     16 H9          1.0669    0.8423    2.7764 H         1 <0>         0.0000
@<TRIPOS>BOND
     1    1    3 1
     2    1    6 1
     3    1    8 1
     4    1    9 1
     5    2    4 1
     6    2    6 1
     7    2   10 1
     8    2   11 1
     9    3    4 1
    10    3    5 1
    11    3   12 1
    12    4    5 1
    13    4   13 1
    14    5    7 1
    15    5   14 1
    16    6   15 1
    17    7   16 1
