@<TRIPOS>MOLECULE
*****
   24    24     0     0     0
SMALL
NO_CHARGES

@<TRIPOS>ATOM
      1 C1          4.5888    1.2605   -5.2070 C.2       1 <0>         0.0000
      2 C2          3.7383    0.4479   -4.5131 C.2       1 <0>         0.0000
      3 C3          5.5828   -0.7830   -4.1557 C.2       1 <0>         0.0000
      4 C4          1.9372    2.1418   -4.1706 C.2       1 <0>         0.0000
      5 C5          1.8779    3.9318   -2.6332 C.3       1 <0>         0.0000
      6 C6          8.3728   -0.6302   -2.3354 C.3       1 <0>         0.0000
      7 C7          2.2470    0.6754   -4.3425 C.3       1 <0>         0.0000
      8 N1          4.2788   -0.6709   -3.9274 N.2       1 <0>         0.0000
      9 N2          6.3139   -1.8048   -3.6707 N.2       1 <0>         0.0000
     10 O1          1.6580    2.9235   -5.0645 O.2       1 <0>         0.0000
     11 O2          8.5010   -1.1319   -4.9194 O.2       1 <0>         0.0000
     12 O3          8.4405   -3.0846   -3.3093 O.2       1 <0>         0.0000
     13 O4          2.0267    2.5237   -2.8678 O.3       1 <0>         0.0000
     14 S1          6.2032    0.5899   -5.1952 S.3       1 <0>         0.0000
     15 S2          7.9270   -1.7565   -3.6978 S.o2      1 <0>         0.0000
     16 H1          4.3518    2.1716   -5.7417 H         1 <0>         0.0000
     17 H2          1.9929    4.0634   -1.5563 H         1 <0>         0.0000
     18 H3          0.8936    4.2794   -2.9599 H         1 <0>         0.0000
     19 H4          2.6483    4.4921   -3.1702 H         1 <0>         0.0000
     20 H5          9.4628   -0.5655   -2.2998 H         1 <0>         0.0000
     21 H6          7.9380    0.3510   -2.5384 H         1 <0>         0.0000
     22 H7          7.9765   -1.0484   -1.4088 H         1 <0>         0.0000
     23 H8          1.6940    0.3127   -5.2146 H         1 <0>         0.0000
     24 H9          1.9243    0.1205   -3.4595 H         1 <0>         0.0000
@<TRIPOS>BOND
     1    1    2 2
     2    1   14 1
     3    1   16 1
     4    2    7 1
     5    2    8 1
     6    3    8 2
     7    3    9 1
     8    3   14 1
     9    4    7 1
    10    4   10 2
    11    4   13 1
    12    5   13 1
    13    5   17 1
    14    5   18 1
    15    5   19 1
    16    6   15 1
    17    6   20 1
    18    6   21 1
    19    6   22 1
    20    7   23 1
    21    7   24 1
    22    9   15 1
    23   11   15 2
    24   12   15 2
