@<TRIPOS>MOLECULE
*****
   25    25     0     0     0
SMALL
NO_CHARGES

@<TRIPOS>ATOM
      1 C1          4.7353    1.6465   -4.6948 C.2       1 <0>         0.0000
      2 C2          4.2311    0.4855   -4.1737 C.2       1 <0>         0.0000
      3 C3          6.1167   -0.3353   -5.0011 C.2       1 <0>         0.0000
      4 C4          1.7533    0.9579   -4.1687 C.2       1 <0>         0.0000
      5 C5          0.7438    3.0055   -4.7916 C.3       1 <0>         0.0000
      6 C6          6.4634   -3.5718   -3.9740 C.3       1 <0>         0.0000
      7 C7          2.9215    0.3250   -3.4350 C.3       1 <0>         0.0000
      8 N1          5.0180   -0.6352   -4.3661 N.2       1 <0>         0.0000
      9 N2          7.0940   -1.2850   -5.3080 N.pl3     1 <0>         0.0000
     10 O1          0.8888    0.3485   -4.7639 O.2       1 <0>         0.0000
     11 O2          8.9566   -2.8226   -4.6195 O.2       1 <0>         0.0000
     12 O3          7.7243   -1.5700   -2.7702 O.2       1 <0>         0.0000
     13 O4          1.7939    2.3113   -4.0827 O.3       1 <0>         0.0000
     14 S1          6.2899    1.3588   -5.4190 S.3       1 <0>         0.0000
     15 S2          7.7211   -2.2921   -4.0400 S.o2      1 <0>         0.0000
     16 H1          4.2834    2.6282   -4.7050 H         1 <0>         0.0000
     17 H2          0.9282    4.0656   -4.6191 H         1 <0>         0.0000
     18 H3         -0.2336    2.7151   -4.4004 H         1 <0>         0.0000
     19 H4          0.7887    2.7727   -5.8580 H         1 <0>         0.0000
     20 H5          6.7575   -4.2500   -3.1708 H         1 <0>         0.0000
     21 H6          5.5124   -3.0842   -3.7595 H         1 <0>         0.0000
     22 H7          6.4491   -4.0808   -4.9373 H         1 <0>         0.0000
     23 H8          2.7109   -0.7383   -3.3285 H         1 <0>         0.0000
     24 H9          2.9996    0.7710   -2.4380 H         1 <0>         0.0000
     25 H10         7.8679   -0.9746   -5.8921 H         1 <0>         0.0000
@<TRIPOS>BOND
     1    1    2 2
     2    1   14 1
     3    1   16 1
     4    2    7 1
     5    2    8 1
     6    3    8 2
     7    3    9 1
     8    3   14 1
     9    4    7 1
    10    4   10 2
    11    4   13 1
    12    5   13 1
    13    5   17 1
    14    5   18 1
    15    5   19 1
    16    6   15 1
    17    6   20 1
    18    6   21 1
    19    6   22 1
    20    7   23 1
    21    7   24 1
    22    9   15 1
    23    9   25 1
    24   11   15 2
    25   12   15 2
