@<TRIPOS>MOLECULE
*****
   20    21     0     0     0
SMALL
NO_CHARGES

@<TRIPOS>ATOM
      1 C1          3.6345   -2.1211   -1.1090 C.2       1 <0>         0.0000
      2 C2          3.8663   -2.0796    0.2276 C.2       1 <0>         0.0000
      3 C3          1.6372   -1.2293   -0.3772 C.2       1 <0>         0.0000
      4 C4         -0.4548    0.8829    0.8715 C.2       1 <0>         0.0000
      5 C5          0.3039    0.9690   -0.4712 C.3       1 <0>         0.0000
      6 C6          0.2697   -0.6111   -0.4438 C.3       1 <0>         0.0000
      7 C7         -0.6262   -1.2595   -1.5019 C.3       1 <0>         0.0000
      8 N1          2.3694   -1.6387   -1.4178 N.pl3     1 <0>         0.0000
      9 N2         -0.2991   -0.5154    0.9129 N.am      1 <0>         0.0000
     10 O1         -0.9983    1.6565    1.6085 O.2       1 <0>         0.0000
     11 S1          2.4948   -1.4404    1.0833 S.3       1 <0>         0.0000
     12 H1          4.2889   -2.4736   -1.8960 H         1 <0>         0.0000
     13 H2          4.7576   -2.3969    0.7531 H         1 <0>         0.0000
     14 H3         -0.2695    1.4134   -1.2863 H         1 <0>         0.0000
     15 H4          1.2901    1.4328   -0.4081 H         1 <0>         0.0000
     16 H5         -1.6091   -0.7833   -1.4764 H         1 <0>         0.0000
     17 H6         -0.7544   -2.3299   -1.3160 H         1 <0>         0.0000
     18 H7         -0.2278   -1.1224   -2.5131 H         1 <0>         0.0000
     19 H8          2.0189   -1.5974   -2.3731 H         1 <0>         0.0000
     20 H9         -0.9264   -1.1836    1.3589 H         1 <0>         0.0000
@<TRIPOS>BOND
     1    1    2 2
     2    1    8 1
     3    1   12 1
     4    2   11 1
     5    2   13 1
     6    3    6 1
     7    3    8 2
     8    3   11 1
     9    4    5 1
    10    4    9 am
    11    4   10 2
    12    5    6 1
    13    5   14 1
    14    5   15 1
    15    6    7 1
    16    6    9 1
    17    7   16 1
    18    7   17 1
    19    7   18 1
    20    8   19 1
    21    9   20 1
