@<TRIPOS>MOLECULE
*****
   25    25     0     0     0
SMALL
NO_CHARGES

@<TRIPOS>ATOM
      1 C1          4.5457    0.5736   -6.2807 C.2       1 <0>         0.0000
      2 C2          4.4432    0.5984   -4.9176 C.2       1 <0>         0.0000
      3 C3          6.6065    0.1260   -5.0567 C.2       1 <0>         0.0000
      4 C4          1.9438    1.2170   -4.7836 C.2       1 <0>         0.0000
      5 C5         -0.3262    1.7752   -4.4234 C.3       1 <0>         0.0000
      6 C6          7.7857   -0.6289   -1.9453 C.3       1 <0>         0.0000
      7 C7          3.2306    0.8607   -4.0681 C.3       1 <0>         0.0000
      8 N1          5.6243    0.3556   -4.2329 N.2       1 <0>         0.0000
      9 N2          7.9042   -0.1655   -4.6232 N.pl3     1 <0>         0.0000
     10 O1          1.7704    1.3108   -5.9837 O.2       1 <0>         0.0000
     11 O2          7.1485   -2.5116   -3.7024 O.2       1 <0>         0.0000
     12 O3          9.5775   -1.7382   -3.6034 O.2       1 <0>         0.0000
     13 O4          0.9638    1.4278   -3.8746 O.3       1 <0>         0.0000
     14 S1          6.1738    0.1790   -6.7541 S.3       1 <0>         0.0000
     15 S2          8.1434   -1.4619   -3.4954 S.o2      1 <0>         0.0000
     16 H1          3.7773    0.7763   -7.0109 H         1 <0>         0.0000
     17 H2         -0.9817    1.9033   -3.5625 H         1 <0>         0.0000
     18 H3         -0.6914    0.9754   -5.0714 H         1 <0>         0.0000
     19 H4         -0.2576    2.7018   -4.9979 H         1 <0>         0.0000
     20 H5          7.8808   -1.3834   -1.1622 H         1 <0>         0.0000
     21 H6          8.5145    0.1708   -1.8158 H         1 <0>         0.0000
     22 H7          6.7683   -0.2430   -2.0098 H         1 <0>         0.0000
     23 H8          3.0301   -0.0184   -3.4444 H         1 <0>         0.0000
     24 H9          3.4511    1.6646   -3.3570 H         1 <0>         0.0000
     25 H10         8.6222   -0.2245   -5.3427 H         1 <0>         0.0000
@<TRIPOS>BOND
     1    1    2 2
     2    1   14 1
     3    1   16 1
     4    2    7 1
     5    2    8 1
     6    3    8 2
     7    3    9 1
     8    3   14 1
     9    4    7 1
    10    4   10 2
    11    4   13 1
    12    5   13 1
    13    5   17 1
    14    5   18 1
    15    5   19 1
    16    6   15 1
    17    6   20 1
    18    6   21 1
    19    6   22 1
    20    7   23 1
    21    7   24 1
    22    9   15 1
    23    9   25 1
    24   11   15 2
    25   12   15 2
