@<TRIPOS>MOLECULE
*****
   24    24     0     0     0
SMALL
NO_CHARGES

@<TRIPOS>ATOM
      1 C1          4.0142    1.5573   -4.7061 C.2       1 <0>         0.0000
      2 C2          3.6105    0.4354   -4.0403 C.2       1 <0>         0.0000
      3 C3          5.8153    0.0672   -3.8210 C.2       1 <0>         0.0000
      4 C4          2.1100   -0.2742   -2.2476 C.2       1 <0>         0.0000
      5 C5          2.9250   -1.9019   -0.7254 C.3       1 <0>         0.0000
      6 C6          6.1902   -3.0745   -3.3419 C.3       1 <0>         0.0000
      7 C7          2.1781    0.0519   -3.7306 C.3       1 <0>         0.0000
      8 N1          4.5990   -0.3946   -3.5666 N.2       1 <0>         0.0000
      9 N2          7.0199   -0.4372   -3.5201 N.2       1 <0>         0.0000
     10 O1          1.8921    0.5401   -1.3681 O.2       1 <0>         0.0000
     11 O2          6.3634   -1.5103   -1.2197 O.2       1 <0>         0.0000
     12 O3          8.4874   -2.1450   -2.4238 O.2       1 <0>         0.0000
     13 O4          2.3877   -1.5783   -2.0280 O.3       1 <0>         0.0000
     14 S1          5.7700    1.6154   -4.7508 S.3       1 <0>         0.0000
     15 S2          7.0738   -1.7211   -2.5066 S.o2      1 <0>         0.0000
     16 H1          3.4038    2.3450   -5.1287 H         1 <0>         0.0000
     17 H2          2.8417   -2.9864   -0.6337 H         1 <0>         0.0000
     18 H3          2.3561   -1.4041    0.0630 H         1 <0>         0.0000
     19 H4          3.9770   -1.6016   -0.7055 H         1 <0>         0.0000
     20 H5          6.2566   -3.9454   -2.6857 H         1 <0>         0.0000
     21 H6          5.1560   -2.7630   -3.4900 H         1 <0>         0.0000
     22 H7          6.6924   -3.2691   -4.2916 H         1 <0>         0.0000
     23 H8          1.5027    0.8807   -3.9513 H         1 <0>         0.0000
     24 H9          1.8877   -0.8313   -4.3096 H         1 <0>         0.0000
@<TRIPOS>BOND
     1    1    2 2
     2    1   14 1
     3    1   16 1
     4    2    7 1
     5    2    8 1
     6    3    8 2
     7    3    9 1
     8    3   14 1
     9    4    7 1
    10    4   10 2
    11    4   13 1
    12    5   13 1
    13    5   17 1
    14    5   18 1
    15    5   19 1
    16    6   15 1
    17    6   20 1
    18    6   21 1
    19    6   22 1
    20    7   23 1
    21    7   24 1
    22    9   15 1
    23   11   15 2
    24   12   15 2
