@<TRIPOS>MOLECULE
*****
   25    25     0     0     0
SMALL
NO_CHARGES

@<TRIPOS>ATOM
      1 C1          4.4883    1.6591   -4.6745 C.2       1 <0>         0.0000
      2 C2          3.8320    0.5251   -4.2844 C.2       1 <0>         0.0000
      3 C3          5.7841   -0.3846   -4.8005 C.2       1 <0>         0.0000
      4 C4          2.3073   -0.0202   -2.3250 C.2       1 <0>         0.0000
      5 C5          3.2413    0.1028   -0.1607 C.3       1 <0>         0.0000
      6 C6          7.8698   -1.2739   -2.5082 C.3       1 <0>         0.0000
      7 C7          2.4245    0.4423   -3.7718 C.3       1 <0>         0.0000
      8 N1          4.5835   -0.6352   -4.3546 N.2       1 <0>         0.0000
      9 N2          6.7216   -1.3996   -5.0423 N.pl3     1 <0>         0.0000
     10 O1          1.4048   -0.7136   -1.9010 O.2       1 <0>         0.0000
     11 O2          8.8667   -2.6349   -4.5735 O.2       1 <0>         0.0000
     12 O3          8.8572   -0.0723   -4.6530 O.2       1 <0>         0.0000
     13 O4          3.3040    0.4708   -1.5547 O.3       1 <0>         0.0000
     14 S1          6.1111    1.2929   -5.1814 S.3       1 <0>         0.0000
     15 S2          8.2527   -1.3455   -4.2730 S.o2      1 <0>         0.0000
     16 H1          4.1304    2.6805   -4.6576 H         1 <0>         0.0000
     17 H2          4.1068    0.5753    0.3037 H         1 <0>         0.0000
     18 H3          3.2881   -0.9833   -0.0530 H         1 <0>         0.0000
     19 H4          2.3152    0.4682    0.2890 H         1 <0>         0.0000
     20 H5          8.8232   -1.1765   -1.9860 H         1 <0>         0.0000
     21 H6          7.2409   -0.4021   -2.3234 H         1 <0>         0.0000
     22 H7          7.3647   -2.1975   -2.2239 H         1 <0>         0.0000
     23 H8          1.9446    1.4241   -3.8388 H         1 <0>         0.0000
     24 H9          1.8334   -0.2550   -4.3699 H         1 <0>         0.0000
     25 H10         6.3042   -2.3275   -4.9693 H         1 <0>         0.0000
@<TRIPOS>BOND
     1    1    2 2
     2    1   14 1
     3    1   16 1
     4    2    7 1
     5    2    8 1
     6    3    8 2
     7    3    9 1
     8    3   14 1
     9    4    7 1
    10    4   10 2
    11    4   13 1
    12    5   13 1
    13    5   17 1
    14    5   18 1
    15    5   19 1
    16    6   15 1
    17    6   20 1
    18    6   21 1
    19    6   22 1
    20    7   23 1
    21    7   24 1
    22    9   15 1
    23    9   25 1
    24   11   15 2
    25   12   15 2
