@<TRIPOS>MOLECULE
*****
   18    18     0     0     0
SMALL
NO_CHARGES

@<TRIPOS>ATOM
      1 C1          2.8062   -0.3675   -0.2377 C.1       1 <0>         0.0000
      2 C2          0.8078    0.4338    1.9031 C.2       1 <0>         0.0000
      3 C3          1.7472    0.2437    3.9601 C.2       1 <0>         0.0000
      4 C4         -0.7559    0.5876   -0.0679 C.3       1 <0>         0.0000
      5 C5          0.6924    0.6080    0.4115 C.3       1 <0>         0.0000
      6 N1          3.9658   -0.2316   -0.1672 N.1       1 <0>         0.0000
      7 N2         -0.2030    0.2472    2.7062 N.2       1 <0>         0.0000
      8 N3          2.0050    0.4520    2.5943 N.am      1 <0>         0.0000
      9 N4          0.3657    0.1337    3.9560 N.am      1 <0>         0.0000
     10 N5          1.4663   -0.4338   -0.3219 N.3       1 <0>         0.0000
     11 O1          2.5329    0.1801    4.8919 O.2       1 <0>         0.0000
     12 H1         -1.2354   -0.3656    0.1725 H         1 <0>         0.0000
     13 H2         -1.3278    1.3768    0.4229 H         1 <0>         0.0000
     14 H3         -0.7812    0.7395   -1.1492 H         1 <0>         0.0000
     15 H4          1.1561    1.5605    0.1345 H         1 <0>         0.0000
     16 H5          2.9418    0.5056    2.2097 H         1 <0>         0.0000
     17 H6         -0.2129   -0.0049    4.7724 H         1 <0>         0.0000
     18 H7          1.0930   -1.3744   -0.2175 H         1 <0>         0.0000
@<TRIPOS>BOND
     1    1    6 3
     2    1   10 1
     3    2    5 1
     4    2    7 2
     5    2    8 1
     6    3    8 am
     7    3    9 am
     8    3   11 2
     9    4    5 1
    10    4   12 1
    11    4   13 1
    12    4   14 1
    13    5   10 1
    14    5   15 1
    15    7    9 1
    16    8   16 1
    17    9   17 1
    18   10   18 1
