@<TRIPOS>MOLECULE
*****
   22    22     0     0     0
SMALL
NO_CHARGES

@<TRIPOS>ATOM
      1 C1         -0.1893    0.1787    1.5549 C.3       1 <0>         0.0000
      2 C2         -0.2337   -0.8614   -0.6858 C.3       1 <0>         0.0000
      3 C3         -0.0243   -1.1575    0.8141 C.3       1 <0>         0.0000
      4 C4         -0.9605   -2.2490    1.3332 C.3       1 <0>         0.0000
      5 C5          1.4919    2.9196    2.0392 C.3       1 <0>         0.0000
      6 N1          0.5563    1.1558    0.7456 N.pl3     1 <0>         0.0000
      7 N2          0.4581    2.5202    1.0864 N.3       1 <0>         0.0000
      8 O1          1.1372    1.2325   -1.8126 O.2       1 <0>         0.0000
      9 O2         -1.2744    1.5820   -1.0898 O.2       1 <0>         0.0000
     10 S1          0.0338    0.9340   -0.9016 S.o2      1 <0>         0.0000
     11 H1         -1.2523    0.4571    1.6506 H         1 <0>         0.0000
     12 H2          0.2533    0.1343    2.5533 H         1 <0>         0.0000
     13 H3          0.4634   -1.3880   -1.3377 H         1 <0>         0.0000
     14 H4         -1.2606   -1.0420   -1.0086 H         1 <0>         0.0000
     15 H5          1.0148   -1.4708    0.9528 H         1 <0>         0.0000
     16 H6         -2.0092   -1.9572    1.2107 H         1 <0>         0.0000
     17 H7         -0.7834   -2.4401    2.3971 H         1 <0>         0.0000
     18 H8         -0.8062   -3.1894    0.7944 H         1 <0>         0.0000
     19 H9          2.4697    2.7777    1.5745 H         1 <0>         0.0000
     20 H10         1.4668    2.3629    2.9894 H         1 <0>         0.0000
     21 H11         1.3583    3.9839    2.2542 H         1 <0>         0.0000
     22 H12        -0.4830    2.7420    1.4152 H         1 <0>         0.0000
@<TRIPOS>BOND
     1    1    3 1
     2    1    6 1
     3    1   11 1
     4    1   12 1
     5    2    3 1
     6    2   10 1
     7    2   13 1
     8    2   14 1
     9    3    4 1
    10    3   15 1
    11    4   16 1
    12    4   17 1
    13    4   18 1
    14    5    7 1
    15    5   19 1
    16    5   20 1
    17    5   21 1
    18    6    7 1
    19    6   10 1
    20    7   22 1
    21    8   10 2
    22    9   10 2
