@<TRIPOS>MOLECULE
*****
   27    28     0     0     0
SMALL
NO_CHARGES

@<TRIPOS>ATOM
      1 C1         -2.3420   -2.5554   -0.6090 C.2       1 <0>         0.0000
      2 C2         -5.2488   -2.8872   -2.1003 C.3       1 <0>         0.0000
      3 C3         -5.9007   -1.7330   -1.3661 C.3       1 <0>         0.0000
      4 C4         -0.2081    0.3563    0.6641 C.3       1 <0>         0.0000
      5 C5         -0.4821   -1.1306    2.5271 C.3       1 <0>         0.0000
      6 C6         -4.7861   -2.5164   -0.7145 C.3       1 <0>         0.0000
      7 C7          0.5692   -0.2120    1.8716 C.3       1 <0>         0.0000
      8 C8         -1.0908   -1.7223   -0.3154 C.3       1 <0>         0.0000
      9 N1         -1.3717   -0.5129    0.4664 N.3       1 <0>         0.0000
     10 N2         -3.5153   -1.8659   -0.5625 N.am      1 <0>         0.0000
     11 O1         -2.2388   -3.7414   -0.9151 O.2       1 <0>         0.0000
     12 O2         -1.7198   -0.8991    1.8165 O.3       1 <0>         0.0000
     13 O3          0.9772    0.8928    2.6802 O.3       1 <0>         0.0000
     14 H1         -5.8018   -3.8144   -2.2123 H         1 <0>         0.0000
     15 H2         -4.5754   -2.6521   -2.9175 H         1 <0>         0.0000
     16 H3         -5.6707   -0.7272   -1.7060 H         1 <0>         0.0000
     17 H4         -6.9048   -1.8629   -0.9740 H         1 <0>         0.0000
     18 H5         -0.5528    1.3573    0.9360 H         1 <0>         0.0000
     19 H6          0.3847    0.4157   -0.2501 H         1 <0>         0.0000
     20 H7         -0.2004   -2.1888    2.4653 H         1 <0>         0.0000
     21 H8         -0.6645   -0.8596    3.5693 H         1 <0>         0.0000
     22 H9         -5.0521   -3.1981    0.0908 H         1 <0>         0.0000
     23 H10         1.4467   -0.7890    1.5548 H         1 <0>         0.0000
     24 H11        -0.3559   -2.3959    0.1434 H         1 <0>         0.0000
     25 H12        -0.6852   -1.3980   -1.2797 H         1 <0>         0.0000
     26 H13        -3.4744   -0.9446   -0.1388 H         1 <0>         0.0000
     27 H14         1.5840    0.5689    3.3635 H         1 <0>         0.0000
@<TRIPOS>BOND
     1    1    8 1
     2    1   10 am
     3    1   11 2
     4    2    3 1
     5    2    6 1
     6    2   14 1
     7    2   15 1
     8    3    6 1
     9    3   16 1
    10    3   17 1
    11    4    7 1
    12    4    9 1
    13    4   18 1
    14    4   19 1
    15    5    7 1
    16    5   12 1
    17    5   20 1
    18    5   21 1
    19    6   10 1
    20    6   22 1
    21    7   13 1
    22    7   23 1
    23    8    9 1
    24    8   24 1
    25    8   25 1
    26    9   12 1
    27   10   26 1
    28   13   27 1
