@<TRIPOS>MOLECULE
*****
   23    23     0     0     0
SMALL
NO_CHARGES

@<TRIPOS>ATOM
      1 C1          0.2507   -0.2810   -1.4984 C.3       1 <0>         0.0000
      2 C2          0.6914   -1.0190    0.8171 C.3       1 <0>         0.0000
      3 C3          0.1784   -1.5000   -0.5546 C.3       1 <0>         0.0000
      4 C4         -1.2310   -2.1019   -0.4771 C.3       1 <0>         0.0000
      5 C5         -0.5480    2.3576   -2.6828 C.3       1 <0>         0.0000
      6 N1         -0.4580    0.7951   -0.7683 N.pl3     1 <0>         0.0000
      7 N2         -0.1348    2.1278   -1.2542 N.4       1 <0>         0.0000
      8 O1         -0.9365    0.9551    1.8380 O.2       1 <0>         0.0000
      9 O2          1.3435    1.6312    0.9124 O.2       1 <0>         0.0000
     10 S1          0.1857    0.7235    0.9482 S.o2      1 <0>         0.0000
     11 H1          1.2963   -0.0107   -1.7104 H         1 <0>         0.0000
     12 H2         -0.2692   -0.4920   -2.4344 H         1 <0>         0.0000
     13 H3          0.2486   -1.5424    1.6655 H         1 <0>         0.0000
     14 H4          1.7804   -1.0086    0.8952 H         1 <0>         0.0000
     15 H5          0.8776   -2.2505   -0.9323 H         1 <0>         0.0000
     16 H6         -1.9605   -1.3879   -0.0851 H         1 <0>         0.0000
     17 H7         -1.2318   -2.9802    0.1734 H         1 <0>         0.0000
     18 H8         -1.5643   -2.4221   -1.4680 H         1 <0>         0.0000
     19 H9         -1.5990    2.0870   -2.7733 H         1 <0>         0.0000
     20 H10        -0.3957    3.4156   -2.9003 H         1 <0>         0.0000
     21 H11         0.0740    1.7479   -3.3344 H         1 <0>         0.0000
     22 H12         0.8696    2.3449   -1.0988 H         1 <0>         0.0000
     23 H13        -0.6603    2.7798   -0.6555 H         1 <0>         0.0000
@<TRIPOS>BOND
     1    1    3 1
     2    1    6 1
     3    1   11 1
     4    1   12 1
     5    2    3 1
     6    2   10 1
     7    2   13 1
     8    2   14 1
     9    3    4 1
    10    3   15 1
    11    4   16 1
    12    4   17 1
    13    4   18 1
    14    5    7 1
    15    5   19 1
    16    5   20 1
    17    5   21 1
    18    6    7 1
    19    6   10 1
    20    7   22 1
    21    7   23 1
    22    8   10 2
    23    9   10 2
