@<TRIPOS>MOLECULE
*****
   24    24     0     0     0
SMALL
NO_CHARGES

@<TRIPOS>ATOM
      1 C1          3.9977    1.0897   -5.6454 C.2       1 <0>         0.0000
      2 C2          3.6060    0.5538   -4.4536 C.2       1 <0>         0.0000
      3 C3          5.4410   -0.7205   -4.6918 C.2       1 <0>         0.0000
      4 C4          2.6860    1.4131   -2.2529 C.2       1 <0>         0.0000
      5 C5          4.1467    2.6483   -0.8772 C.3       1 <0>         0.0000
      6 C6          8.7416   -0.3601   -4.4639 C.3       1 <0>         0.0000
      7 C7          2.3873    0.9677   -3.6737 C.3       1 <0>         0.0000
      8 N1          4.3951   -0.4404   -3.9261 N.2       1 <0>         0.0000
      9 N2          6.3512   -1.6567   -4.3638 N.2       1 <0>         0.0000
     10 O1          2.0376    1.0996   -1.2690 O.2       1 <0>         0.0000
     11 O2          7.6814   -1.4834   -6.5987 O.2       1 <0>         0.0000
     12 O3          8.4567   -2.9751   -4.7064 O.2       1 <0>         0.0000
     13 O4          3.7471    2.2524   -2.1970 O.3       1 <0>         0.0000
     14 S1          5.4472    0.2978   -6.2190 S.3       1 <0>         0.0000
     15 S2          7.7651   -1.7446   -5.1370 S.o2      1 <0>         0.0000
     16 H1          3.5259    1.8885   -6.2050 H         1 <0>         0.0000
     17 H2          5.0254    3.2799   -1.0155 H         1 <0>         0.0000
     18 H3          4.3999    1.7696   -0.2784 H         1 <0>         0.0000
     19 H4          3.3479    3.2041   -0.3769 H         1 <0>         0.0000
     20 H5          9.7201   -0.3758   -4.9494 H         1 <0>         0.0000
     21 H6          8.2199    0.5737   -4.6851 H         1 <0>         0.0000
     22 H7          8.8381   -0.5076   -3.3871 H         1 <0>         0.0000
     23 H8          1.8841    1.7983   -4.1828 H         1 <0>         0.0000
     24 H9          1.6746    0.1428   -3.5872 H         1 <0>         0.0000
@<TRIPOS>BOND
     1    1    2 2
     2    1   14 1
     3    1   16 1
     4    2    7 1
     5    2    8 1
     6    3    8 2
     7    3    9 1
     8    3   14 1
     9    4    7 1
    10    4   10 2
    11    4   13 1
    12    5   13 1
    13    5   17 1
    14    5   18 1
    15    5   19 1
    16    6   15 1
    17    6   20 1
    18    6   21 1
    19    6   22 1
    20    7   23 1
    21    7   24 1
    22    9   15 1
    23   11   15 2
    24   12   15 2
