@<TRIPOS>MOLECULE
*****
   36    37     0     0     0
SMALL
NO_CHARGES

@<TRIPOS>ATOM
      1 C1          0.9907    0.2658    0.3573 C.ar      1 <0>         0.0000
      2 C2          1.1804    1.4517    1.0658 C.ar      1 <0>         0.0000
      3 C3          4.8683    1.3264    1.7680 C.2       1 <0>         0.0000
      4 C4          3.3478   -0.2453    0.5634 C.ar      1 <0>         0.0000
      5 C5          3.5466    0.9421    1.2742 C.ar      1 <0>         0.0000
      6 C6          5.0330    2.4685    2.4466 C.2       1 <0>         0.0000
      7 C7          2.0714   -0.5807    0.1067 C.ar      1 <0>         0.0000
      8 C8          2.4575    1.7852    1.5213 C.ar      1 <0>         0.0000
      9 C9          3.8858    3.3820    2.7209 C.2       1 <0>         0.0000
     10 C10         6.3958    2.7682    2.9014 C.2       1 <0>         0.0000
     11 C11         1.8622   -1.8482   -0.6516 C.3       1 <0>         0.0000
     12 C12         8.9154    3.9653    2.6316 C.3       1 <0>         0.0000
     13 C13         8.2801    5.2475    4.6975 C.3       1 <0>         0.0000
     14 C14         8.4742    2.7434    4.7872 C.3       1 <0>         0.0000
     15 C15         8.0952    3.9442    3.9210 C.3       1 <0>         0.0000
     16 N1          6.6836    3.8303    3.5673 N.2       1 <0>         0.0000
     17 N2          2.6558    2.9795    2.2362 N.am      1 <0>         0.0000
     18 O1          4.0501    4.4284    3.3452 O.2       1 <0>         0.0000
     19 H1         -0.0042    0.0082    0.0036 H         1 <0>         0.0000
     20 H2          0.3321    2.1036    1.2556 H         1 <0>         0.0000
     21 H3          5.6956    0.6539    1.5624 H         1 <0>         0.0000
     22 H4          4.1835   -0.9122    0.3627 H         1 <0>         0.0000
     23 H5          7.1518    2.0096    2.6322 H         1 <0>         0.0000
     24 H6          1.9934   -1.6757   -1.7268 H         1 <0>         0.0000
     25 H7          2.5713   -2.6236   -0.3343 H         1 <0>         0.0000
     26 H8          0.8549   -2.2508   -0.4839 H         1 <0>         0.0000
     27 H9          8.7889    3.0340    2.0678 H         1 <0>         0.0000
     28 H10         8.6159    4.7965    1.9838 H         1 <0>         0.0000
     29 H11         9.9852    4.0715    2.8448 H         1 <0>         0.0000
     30 H12         7.6952    5.2417    5.6245 H         1 <0>         0.0000
     31 H13         7.9446    6.1093    4.1090 H         1 <0>         0.0000
     32 H14         9.3312    5.4072    4.9619 H         1 <0>         0.0000
     33 H15         7.8888    2.7233    5.7135 H         1 <0>         0.0000
     34 H16         8.3003    1.8006    4.2571 H         1 <0>         0.0000
     35 H17         9.5315    2.7809    5.0735 H         1 <0>         0.0000
     36 H18         1.8493    3.5746    2.4027 H         1 <0>         0.0000
@<TRIPOS>BOND
     1    1    2 ar
     2    1    7 ar
     3    1   19 1
     4    2    8 ar
     5    2   20 1
     6    3    5 1
     7    3    6 2
     8    3   21 1
     9    4    5 ar
    10    4    7 ar
    11    4   22 1
    12    5    8 ar
    13    6    9 1
    14    6   10 1
    15    7   11 1
    16    8   17 1
    17    9   17 am
    18    9   18 2
    19   10   16 2
    20   10   23 1
    21   11   24 1
    22   11   25 1
    23   11   26 1
    24   12   15 1
    25   12   27 1
    26   12   28 1
    27   12   29 1
    28   13   15 1
    29   13   30 1
    30   13   31 1
    31   13   32 1
    32   14   15 1
    33   14   33 1
    34   14   34 1
    35   14   35 1
    36   15   16 1
    37   17   36 1
