@<TRIPOS>MOLECULE
*****
   24    24     0     0     0
SMALL
NO_CHARGES

@<TRIPOS>ATOM
      1 C1          4.0066    2.0764   -5.5594 C.2       1 <0>         0.0000
      2 C2          3.3675    1.0193   -4.9748 C.2       1 <0>         0.0000
      3 C3          4.9593   -0.1943   -5.9885 C.2       1 <0>         0.0000
      4 C4          2.1949    2.3182   -3.1975 C.2       1 <0>         0.0000
      5 C5          3.0820    3.1457   -1.1728 C.3       1 <0>         0.0000
      6 C6          5.2687   -2.9512   -4.3848 C.3       1 <0>         0.0000
      7 C7          2.1229    1.1202   -4.1118 C.3       1 <0>         0.0000
      8 N1          3.8888   -0.2340   -5.1977 N.2       1 <0>         0.0000
      9 N2          5.7774   -1.1570   -6.4289 N.2       1 <0>         0.0000
     10 O1          1.7515    3.4288   -3.4379 O.2       1 <0>         0.0000
     11 O2          6.5266   -3.5341   -6.6314 O.2       1 <0>         0.0000
     12 O3          4.0442   -3.0918   -6.7281 O.2       1 <0>         0.0000
     13 O4          2.8515    2.0270   -2.0423 O.3       1 <0>         0.0000
     14 S1          5.3716    1.4915   -6.4896 S.3       1 <0>         0.0000
     15 S2          5.3729   -2.7224   -6.1871 S.o2      1 <0>         0.0000
     16 H1          3.7467    3.1255   -5.5073 H         1 <0>         0.0000
     17 H2          3.6227    2.7435   -0.3148 H         1 <0>         0.0000
     18 H3          2.1360    3.5936   -0.8555 H         1 <0>         0.0000
     19 H4          3.6827    3.9059   -1.6799 H         1 <0>         0.0000
     20 H5          5.0246   -4.0021   -4.2131 H         1 <0>         0.0000
     21 H6          6.2434   -2.7071   -3.9578 H         1 <0>         0.0000
     22 H7          4.4893   -2.2915   -4.0032 H         1 <0>         0.0000
     23 H8          1.2257    1.2174   -4.7303 H         1 <0>         0.0000
     24 H9          2.0507    0.2047   -3.5218 H         1 <0>         0.0000
@<TRIPOS>BOND
     1    1    2 2
     2    1   14 1
     3    1   16 1
     4    2    7 1
     5    2    8 1
     6    3    8 2
     7    3    9 1
     8    3   14 1
     9    4    7 1
    10    4   10 2
    11    4   13 1
    12    5   13 1
    13    5   17 1
    14    5   18 1
    15    5   19 1
    16    6   15 1
    17    6   20 1
    18    6   21 1
    19    6   22 1
    20    7   23 1
    21    7   24 1
    22    9   15 1
    23   11   15 2
    24   12   15 2
