@<TRIPOS>MOLECULE
*****
   50    53     0     0     0
SMALL
NO_CHARGES

@<TRIPOS>ATOM
      1 C1          3.0021    9.2062  -11.4668 C.ar      1 <0>         0.0000
      2 C2          3.8753    8.1878  -11.9330 C.ar      1 <0>         0.0000
      3 C3          2.1141    8.9428  -10.4442 C.ar      1 <0>         0.0000
      4 C4          1.1742    7.3159   -8.7928 C.ar      1 <0>         0.0000
      5 C5          1.7153   -0.0483   -6.3181 C.ar      1 <0>         0.0000
      6 C6          0.1321    0.9878   -4.8421 C.ar      1 <0>         0.0000
      7 C7          3.8464    6.9275  -11.3720 C.ar      1 <0>         0.0000
      8 C8          1.8946    1.1663   -7.0009 C.ar      1 <0>         0.0000
      9 C9          0.2992    2.1982   -5.5060 C.ar      1 <0>         0.0000
     10 C10         1.1892    6.0431   -8.2719 C.ar      1 <0>         0.0000
     11 C11         2.0623    7.6541   -9.8477 C.ar      1 <0>         0.0000
     12 C12         0.8530   -0.1633   -5.2239 C.ar      1 <0>         0.0000
     13 C13         2.9414    6.6268  -10.3171 C.ar      1 <0>         0.0000
     14 C14         1.1884    2.2954   -6.5855 C.ar      1 <0>         0.0000
     15 C15         2.1021    5.0921   -8.8098 C.ar      1 <0>         0.0000
     16 C16        -0.8234   -2.0044   -4.7301 C.2       1 <0>         0.0000
     17 C17         2.5690   -1.3761   -1.1987 C.3       1 <0>         0.0000
     18 C18         2.0714   -2.8175   -1.4057 C.3       1 <0>         0.0000
     19 C19         2.2469   -0.7087   -2.5456 C.3       1 <0>         0.0000
     20 C20         0.7525   -2.6510   -2.1905 C.3       1 <0>         0.0000
     21 C21         0.8766   -1.3028   -2.9629 C.3       1 <0>         0.0000
     22 C22         2.1528    3.6732   -8.2886 C.3       1 <0>         0.0000
     23 C23         0.6749   -1.4808   -4.4873 C.3       1 <0>         0.0000
     24 N1          2.9451    5.3681   -9.7901 N.ar      1 <0>         0.0000
     25 O1         -1.6872   -1.3112   -4.1227 O.co2     1 <0>         0.0000
     26 O2         -0.9506   -3.0022   -5.4664 O.co2     1 <0>         0.0000
     27 O3          1.6032   -2.4607   -4.9812 O.3       1 <0>         0.0000
     28 O4          1.2874    3.5483   -7.1789 O.3       1 <0>         0.0000
     29 H1          3.0371   10.1938  -11.9199 H         1 <0>         0.0000
     30 H2          4.5709    8.4071  -12.7395 H         1 <0>         0.0000
     31 H3          1.4422    9.7186  -10.0824 H         1 <0>         0.0000
     32 H4          0.4887    8.0677   -8.4064 H         1 <0>         0.0000
     33 H5          2.2364   -0.9335   -6.6685 H         1 <0>         0.0000
     34 H6         -0.5991    0.9005   -4.0464 H         1 <0>         0.0000
     35 H7          4.5056    6.1349  -11.7146 H         1 <0>         0.0000
     36 H8          2.5733    1.2018   -7.8470 H         1 <0>         0.0000
     37 H9         -0.2643    3.0804   -5.2112 H         1 <0>         0.0000
     38 H10         0.5307    5.7392   -7.4671 H         1 <0>         0.0000
     39 H11         1.9908   -0.8953   -0.3977 H         1 <0>         0.0000
     40 H12         3.6295   -1.3129   -0.9235 H         1 <0>         0.0000
     41 H13         2.8014   -3.3668   -2.0150 H         1 <0>         0.0000
     42 H14         1.9502   -3.3705   -0.4664 H         1 <0>         0.0000
     43 H15         2.2290    0.3845   -2.5005 H         1 <0>         0.0000
     44 H16         3.0358   -0.9732   -3.2663 H         1 <0>         0.0000
     45 H17         0.5729   -3.4804   -2.8770 H         1 <0>         0.0000
     46 H18        -0.1007   -2.6031   -1.5065 H         1 <0>         0.0000
     47 H19         0.0825   -0.6376   -2.6248 H         1 <0>         0.0000
     48 H20         1.8591    2.9888   -9.0975 H         1 <0>         0.0000
     49 H21         3.1896    3.4324   -8.0159 H         1 <0>         0.0000
     50 H22         2.4896   -2.1402   -4.7438 H         1 <0>         0.0000
@<TRIPOS>BOND
     1    1    2 ar
     2    1    3 ar
     3    1   29 1
     4    2    7 ar
     5    2   30 1
     6    3   11 ar
     7    3   31 1
     8    4   10 ar
     9    4   11 ar
    10    4   32 1
    11    5    8 ar
    12    5   12 ar
    13    5   33 1
    14    6    9 ar
    15    6   12 ar
    16    6   34 1
    17    7   13 ar
    18    7   35 1
    19    8   14 ar
    20    8   36 1
    21    9   14 ar
    22    9   37 1
    23   10   15 ar
    24   10   38 1
    25   11   13 ar
    26   12   23 1
    27   13   24 ar
    28   14   28 1
    29   15   22 1
    30   15   24 ar
    31   16   23 1
    32   16   25 1
    33   16   26 2
    34   17   18 1
    35   17   19 1
    36   17   39 1
    37   17   40 1
    38   18   20 1
    39   18   41 1
    40   18   42 1
    41   19   21 1
    42   19   43 1
    43   19   44 1
    44   20   21 1
    45   20   45 1
    46   20   46 1
    47   21   23 1
    48   21   47 1
    49   22   28 1
    50   22   48 1
    51   22   49 1
    52   23   27 1
    53   27   50 1
