@<TRIPOS>MOLECULE
*****
   25    27     0     0     0
SMALL
NO_CHARGES

@<TRIPOS>ATOM
      1 C1         -0.4145   -0.7806    0.6222 C.2       1 <0>         0.0000
      2 C2         -1.4862   -1.8969    2.3607 C.2       1 <0>         0.0000
      3 C3         -1.0817   -0.6389    1.8250 C.2       1 <0>         0.0000
      4 C4         -2.2009   -2.1983    3.5842 C.2       1 <0>         0.0000
      5 C5         -1.1028   -2.9131    1.5344 C.2       1 <0>         0.0000
      6 C6         -2.0122   -4.6422    2.8959 C.2       1 <0>         0.0000
      7 C7         -4.3804   -4.8083    4.9411 C.3       1 <0>         0.0000
      8 C8         -4.4776   -3.3623    5.3261 C.3       1 <0>         0.0000
      9 C9         -3.1385   -3.9614    4.9936 C.3       1 <0>         0.0000
     10 C10        -1.3354    0.6767    2.4604 C.3       1 <0>         0.0000
     11 N1         -1.3317   -4.2417    1.7484 N.am      1 <0>         0.0000
     12 N2         -2.4230   -3.5887    3.7752 N.am      1 <0>         0.0000
     13 O1         -2.5662   -1.3198    4.3607 O.2       1 <0>         0.0000
     14 O2         -2.2302   -5.8384    3.1093 O.2       1 <0>         0.0000
     15 S1         -0.2816   -2.4292    0.1492 S.3       1 <0>         0.0000
     16 H1          0.0024   -0.0033   -0.0033 H         1 <0>         0.0000
     17 H2         -4.5191   -5.5486    5.7195 H         1 <0>         0.0000
     18 H3         -4.7675   -5.0980    3.9718 H         1 <0>         0.0000
     19 H4         -4.9299   -2.6817    4.6151 H         1 <0>         0.0000
     20 H5         -4.6816   -3.1286    6.3638 H         1 <0>         0.0000
     21 H6         -2.4645   -4.1376    5.8250 H         1 <0>         0.0000
     22 H7         -2.2957    1.0942    2.1237 H         1 <0>         0.0000
     23 H8         -1.3633    0.5999    3.5582 H         1 <0>         0.0000
     24 H9         -0.5445    1.4040    2.2201 H         1 <0>         0.0000
     25 H10        -1.0090   -4.9312    1.0777 H         1 <0>         0.0000
@<TRIPOS>BOND
     1    1    3 2
     2    1   15 1
     3    1   16 1
     4    2    3 1
     5    2    5 2
     6    2    4 1
     7    3   10 1
     8    4   12 am
     9    4   13 2
    10    5   11 1
    11    5   15 1
    12    6   11 am
    13    6   12 am
    14    6   14 2
    15    7    8 1
    16    7    9 1
    17    7   17 1
    18    7   18 1
    19    8    9 1
    20    8   19 1
    21    8   20 1
    22    9   12 1
    23    9   21 1
    24   10   22 1
    25   10   23 1
    26   10   24 1
    27   11   25 1
