@<TRIPOS>MOLECULE
*****
   20    20     0     0     0
SMALL
NO_CHARGES

@<TRIPOS>ATOM
      1 C1         -0.0197   -1.6084   -1.5088 C.2       1 <0>         0.0000
      2 C2          1.2131    1.1353    0.1485 C.2       1 <0>         0.0000
      3 C3         -0.8158   -0.3956    0.2315 C.3       1 <0>         0.0000
      4 C4          2.5153    1.4074   -0.5738 C.3       1 <0>         0.0000
      5 C5         -0.7024   -0.9047    1.6627 C.3       1 <0>         0.0000
      6 C6         -1.9255    0.6289    0.0337 C.3       1 <0>         0.0000
      7 N1          0.9065   -0.7345   -1.3815 N.2       1 <0>         0.0000
      8 N2          0.4876    0.0664   -0.3120 N.am      1 <0>         0.0000
      9 O1          0.8020    1.8114    1.0940 O.2       1 <0>         0.0000
     10 O2         -1.0702   -1.5399   -0.6548 O.3       1 <0>         0.0000
     11 H1         -0.0279   -2.3991   -2.2476 H         1 <0>         0.0000
     12 H2          2.3386    1.5975   -1.6360 H         1 <0>         0.0000
     13 H3          3.1826    0.5434   -0.5109 H         1 <0>         0.0000
     14 H4          2.9821    2.2762   -0.1099 H         1 <0>         0.0000
     15 H5          0.0911   -1.6534    1.7337 H         1 <0>         0.0000
     16 H6         -1.6488   -1.3605    1.9667 H         1 <0>         0.0000
     17 H7         -0.4699   -0.0717    2.3279 H         1 <0>         0.0000
     18 H8         -1.9727    0.9344   -1.0149 H         1 <0>         0.0000
     19 H9         -1.7271    1.5046    0.6536 H         1 <0>         0.0000
     20 H10        -2.8857    0.1903    0.3192 H         1 <0>         0.0000
@<TRIPOS>BOND
     1    1    7 2
     2    1   10 1
     3    1   11 1
     4    2    4 1
     5    2    8 am
     6    2    9 2
     7    3    5 1
     8    3    6 1
     9    3    8 1
    10    3   10 1
    11    4   12 1
    12    4   13 1
    13    4   14 1
    14    5   15 1
    15    5   16 1
    16    5   17 1
    17    6   18 1
    18    6   19 1
    19    6   20 1
    20    7    8 1
