@<TRIPOS>MOLECULE
*****
   29    30     0     0     0
SMALL
NO_CHARGES

@<TRIPOS>ATOM
      1 C1          3.5850   -2.2399    4.0324 C.ar      1 <0>         0.0000
      2 C2          4.4604    0.2902    3.8419 C.ar      1 <0>         0.0000
      3 C3          3.0012   -1.3278    3.1479 C.ar      1 <0>         0.0000
      4 C4          5.0343   -0.6443    4.7216 C.ar      1 <0>         0.0000
      5 C5          1.8520   -1.7621    2.2735 C.2       1 <0>         0.0000
      6 C6         -0.9065   -0.0238    0.7419 C.3       1 <0>         0.0000
      7 C7          0.4684   -0.2924   -0.8372 C.3       1 <0>         0.0000
      8 C8          0.2880   -0.9957    0.5317 C.3       1 <0>         0.0000
      9 C9         -1.2825    1.4961   -1.2131 C.3       1 <0>         0.0000
     10 C10        -0.6045    2.4589   -2.1717 C.3       1 <0>         0.0000
     11 N1          3.4446   -0.0622    3.0589 N.ar      1 <0>         0.0000
     12 N2          4.6102   -1.8920    4.8233 N.ar      1 <0>         0.0000
     13 N3         -0.3512    0.8360   -0.3288 N.3       1 <0>         0.0000
     14 N4          1.3924   -0.7935    1.4410 N.am      1 <0>         0.0000
     15 O1          1.4060   -2.9100    2.3388 O.2       1 <0>         0.0000
     16 F1          0.3252    1.7921   -2.9460 F         1 <0>         0.0000
     17 F2          0.0643    3.4484   -1.4987 F         1 <0>         0.0000
     18 Cl1         6.3712   -0.1462    5.7324 Cl        1 <0>         0.0000
     19 H1          3.2152   -3.2585    4.0952 H         1 <0>         0.0000
     20 H2          4.8291    1.3107    3.7810 H         1 <0>         0.0000
     21 H3         -1.8631   -0.4996    0.4715 H         1 <0>         0.0000
     22 H4         -0.9979    0.4575    1.7212 H         1 <0>         0.0000
     23 H5          1.4845   -0.0254   -1.1396 H         1 <0>         0.0000
     24 H6         -0.0186   -0.8504   -1.6521 H         1 <0>         0.0000
     25 H7          0.0553   -2.0584    0.5222 H         1 <0>         0.0000
     26 H8         -1.9876    2.0818   -0.6128 H         1 <0>         0.0000
     27 H9         -1.8746    0.7869   -1.8240 H         1 <0>         0.0000
     28 H10        -1.3135    2.9378   -2.8551 H         1 <0>         0.0000
     29 H11         1.8306    0.1205    1.5040 H         1 <0>         0.0000
@<TRIPOS>BOND
     1    1    3 ar
     2    1   12 ar
     3    1   19 1
     4    2    4 ar
     5    2   11 ar
     6    2   20 1
     7    3    5 1
     8    3   11 ar
     9    4   12 ar
    10    4   18 1
    11    5   14 am
    12    5   15 2
    13    6    8 1
    14    6   13 1
    15    6   21 1
    16    6   22 1
    17    7    8 1
    18    7   13 1
    19    7   23 1
    20    7   24 1
    21    8   14 1
    22    8   25 1
    23    9   10 1
    24    9   13 1
    25    9   26 1
    26    9   27 1
    27   10   16 1
    28   10   17 1
    29   10   28 1
    30   14   29 1
