@<TRIPOS>MOLECULE
*****
   36    38     0     0     0
SMALL
NO_CHARGES

@<TRIPOS>ATOM
      1 C1          1.9351   -2.4453    1.1653 C.ar      1 <0>         0.0000
      2 C2          2.8267   -0.2439    0.7225 C.ar      1 <0>         0.0000
      3 C3          0.8550   -1.8728    1.8370 C.ar      1 <0>         0.0000
      4 C4          1.7465    0.3287    1.3942 C.ar      1 <0>         0.0000
      5 C5          1.2343   -1.2447   -3.3689 C.2       1 <0>         0.0000
      6 C6          5.9471   -1.3435    3.8037 C.2       1 <0>         0.0000
      7 C7          2.4682   -1.3236   -2.7673 C.2       1 <0>         0.0000
      8 C8          4.9776   -2.0026    3.0853 C.2       1 <0>         0.0000
      9 C9          1.2579   -3.1204   -2.3631 C.2       1 <0>         0.0000
     10 C10         6.8907   -1.9444    1.9929 C.2       1 <0>         0.0000
     11 C11         2.9210   -1.6309    0.6081 C.ar      1 <0>         0.0000
     12 C12         0.7607   -0.4858    1.9514 C.ar      1 <0>         0.0000
     13 C13         3.5628   -3.0899   -1.3330 C.3       1 <0>         0.0000
     14 C14         4.9868   -3.1210    0.8187 C.3       1 <0>         0.0000
     15 C15         4.0753   -2.2426   -0.1115 C.3       1 <0>         0.0000
     16 N1          0.4856   -2.3661   -3.1132 N.2       1 <0>         0.0000
     17 N2          7.1356   -1.3105    3.1181 N.2       1 <0>         0.0000
     18 N3          2.4684   -2.5305   -2.1264 N.pl3     1 <0>         0.0000
     19 N4          5.5968   -2.3813    1.9275 N.pl3     1 <0>         0.0000
     20 O1          4.9261   -1.2199   -0.6874 O.3       1 <0>         0.0000
     21 Cl1        -0.5720    0.2202    2.7798 Cl        1 <0>         0.0000
     22 H1          2.0016   -3.5268    1.0806 H         1 <0>         0.0000
     23 H2          3.5905    0.3977    0.2910 H         1 <0>         0.0000
     24 H3          0.0942   -2.5199    2.2657 H         1 <0>         0.0000
     25 H4          1.6863    1.4109    1.4755 H         1 <0>         0.0000
     26 H5          0.8470   -0.4373   -3.9730 H         1 <0>         0.0000
     27 H6          5.8497   -0.8910    4.7798 H         1 <0>         0.0000
     28 H7          3.3137   -0.6505   -2.7410 H         1 <0>         0.0000
     29 H8          3.9400   -2.2261    3.2904 H         1 <0>         0.0000
     30 H9          0.9979   -4.0921   -1.9659 H         1 <0>         0.0000
     31 H10         7.6024   -2.1159    1.1969 H         1 <0>         0.0000
     32 H11         3.2111   -4.0671   -0.9737 H         1 <0>         0.0000
     33 H12         4.3794   -3.2952   -2.0360 H         1 <0>         0.0000
     34 H13         4.4090   -3.9439    1.2574 H         1 <0>         0.0000
     35 H14         5.8269   -3.5726    0.2759 H         1 <0>         0.0000
     36 H15         5.6357   -1.7006   -1.1266 H         1 <0>         0.0000
@<TRIPOS>BOND
     1    1    3 ar
     2    1   11 ar
     3    1   22 1
     4    2    4 ar
     5    2   11 ar
     6    2   23 1
     7    3   12 ar
     8    3   24 1
     9    4   12 ar
    10    4   25 1
    11    5    7 2
    12    5   16 1
    13    5   26 1
    14    6    8 2
    15    6   17 1
    16    6   27 1
    17    7   18 1
    18    7   28 1
    19    8   19 1
    20    8   29 1
    21    9   16 2
    22    9   18 1
    23    9   30 1
    24   10   17 2
    25   10   19 1
    26   10   31 1
    27   11   15 1
    28   12   21 1
    29   13   15 1
    30   13   18 1
    31   13   32 1
    32   13   33 1
    33   14   15 1
    34   14   19 1
    35   14   34 1
    36   14   35 1
    37   15   20 1
    38   20   36 1
