@<TRIPOS>MOLECULE
*****
   64    68     0     0     0
SMALL
NO_CHARGES

@<TRIPOS>ATOM
      1 C1         -6.3506   -7.2611   10.1814 C.ar      1 <0>         0.0000
      2 C2         -6.8279   -6.2669    9.2899 C.ar      1 <0>         0.0000
      3 C3          5.7298   -0.4738   -3.4014 C.ar      1 <0>         0.0000
      4 C4          6.4733   -1.6243   -3.0753 C.ar      1 <0>         0.0000
      5 C5         -5.0937   -7.8059   10.0017 C.ar      1 <0>         0.0000
      6 C6         -6.0404   -5.8399    8.2381 C.ar      1 <0>         0.0000
      7 C7          4.4039   -0.3440   -2.9771 C.ar      1 <0>         0.0000
      8 C8          1.3527   -0.7758   -1.4973 C.ar      1 <0>         0.0000
      9 C9          5.9123   -2.6653   -2.3286 C.ar      1 <0>         0.0000
     10 C10         0.2894   -1.2402   -0.7270 C.ar      1 <0>         0.0000
     11 C11        -2.9692   -7.9310    8.7094 C.ar      1 <0>         0.0000
     12 C12        -3.9120   -5.9591    6.9555 C.ar      1 <0>         0.0000
     13 C13         1.4721   -3.3331   -0.2580 C.ar      1 <0>         0.0000
     14 C14        -4.2627   -7.3854    8.9290 C.ar      1 <0>         0.0000
     15 C15        -4.7443   -6.3839    8.0279 C.ar      1 <0>         0.0000
     16 C16         3.8168   -1.3705   -2.2272 C.ar      1 <0>         0.0000
     17 C17         2.5154   -1.5564   -1.6204 C.ar      1 <0>         0.0000
     18 C18         4.5815   -2.5395   -1.9106 C.ar      1 <0>         0.0000
     19 C19         2.5480   -2.8268   -0.9878 C.ar      1 <0>         0.0000
     20 C20         0.3669   -2.5013   -0.0860 C.ar      1 <0>         0.0000
     21 C21        -2.1713   -7.5129    7.6680 C.ar      1 <0>         0.0000
     22 C22        -2.6500   -6.4933    6.7700 C.ar      1 <0>         0.0000
     23 C23         3.0973   -5.0202    1.7741 C.2       1 <0>         0.0000
     24 C24        -0.4442   -8.5176    6.3033 C.3       1 <0>         0.0000
     25 C25         4.3796   -4.6064    0.9738 C.3       1 <0>         0.0000
     26 C26        -1.4648   -3.9562    2.7267 C.3       1 <0>         0.0000
     27 C27        -1.1186   -5.0233    3.7744 C.3       1 <0>         0.0000
     28 C28         4.2274   -4.6729   -0.5578 C.3       1 <0>         0.0000
     29 C29        -0.3952   -3.9327    1.6483 C.3       1 <0>         0.0000
     30 C30        -2.2034   -5.1413    4.8304 C.3       1 <0>         0.0000
     31 N1          3.7923   -3.4156   -1.1784 N.pl3     1 <0>         0.0000
     32 O1          2.8820   -4.3977    2.8465 O.co2     1 <0>         0.0000
     33 O2          2.4037   -5.9458    1.2516 O.co2     1 <0>         0.0000
     34 O3         -0.9108   -8.0385    7.5805 O.3       1 <0>         0.0000
     35 O4         -0.6752   -2.8458    0.7384 O.3       1 <0>         0.0000
     36 O5         -1.7845   -6.1239    5.7925 O.3       1 <0>         0.0000
     37 H1         -6.9766   -7.5914   11.0068 H         1 <0>         0.0000
     38 H2         -7.8173   -5.8406    9.4375 H         1 <0>         0.0000
     39 H3          6.1941    0.3196   -3.9825 H         1 <0>         0.0000
     40 H4          7.5064   -1.7066   -3.4061 H         1 <0>         0.0000
     41 H5         -4.7231   -8.5680   10.6842 H         1 <0>         0.0000
     42 H6         -6.4068   -5.0766    7.5547 H         1 <0>         0.0000
     43 H7          3.8335    0.5494   -3.2236 H         1 <0>         0.0000
     44 H8          1.2903    0.2020   -1.9707 H         1 <0>         0.0000
     45 H9          6.5026   -3.5419   -2.0780 H         1 <0>         0.0000
     46 H10        -0.6000   -0.6354   -0.5734 H         1 <0>         0.0000
     47 H11        -2.5779   -8.6965    9.3744 H         1 <0>         0.0000
     48 H12        -4.2799   -5.1842    6.2921 H         1 <0>         0.0000
     49 H13         1.5355   -4.3128    0.1985 H         1 <0>         0.0000
     50 H14         0.3189   -9.2645    6.5342 H         1 <0>         0.0000
     51 H15        -0.0129   -7.7107    5.7108 H         1 <0>         0.0000
     52 H16        -1.2591   -8.9904    5.7442 H         1 <0>         0.0000
     53 H17         5.1613   -5.3207    1.2646 H         1 <0>         0.0000
     54 H18         4.7142   -3.6134    1.2877 H         1 <0>         0.0000
     55 H19        -2.4480   -4.1544    2.2784 H         1 <0>         0.0000
     56 H20        -1.5187   -2.9668    3.1979 H         1 <0>         0.0000
     57 H21        -0.1608   -4.7818    4.2459 H         1 <0>         0.0000
     58 H22        -0.9858   -5.9964    3.2885 H         1 <0>         0.0000
     59 H23         3.4965   -5.4553   -0.7871 H         1 <0>         0.0000
     60 H24         5.1686   -4.9449   -1.0422 H         1 <0>         0.0000
     61 H25         0.5943   -3.8030    2.0989 H         1 <0>         0.0000
     62 H26        -0.3796   -4.8822    1.1008 H         1 <0>         0.0000
     63 H27        -3.1535   -5.4583    4.3794 H         1 <0>         0.0000
     64 H28        -2.3682   -4.1841    5.3441 H         1 <0>         0.0000
@<TRIPOS>BOND
     1    1    2 ar
     2    1    5 ar
     3    1   37 1
     4    2    6 ar
     5    2   38 1
     6    3    4 ar
     7    3    7 ar
     8    3   39 1
     9    4    9 ar
    10    4   40 1
    11    5   14 ar
    12    5   41 1
    13    6   15 ar
    14    6   42 1
    15    7   16 ar
    16    7   43 1
    17    8   10 ar
    18    8   17 ar
    19    8   44 1
    20    9   18 ar
    21    9   45 1
    22   10   20 ar
    23   10   46 1
    24   11   14 ar
    25   11   21 ar
    26   11   47 1
    27   12   15 ar
    28   12   22 ar
    29   12   48 1
    30   13   19 ar
    31   13   20 ar
    32   13   49 1
    33   14   15 ar
    34   16   17 1
    35   16   18 ar
    36   17   19 ar
    37   18   31 1
    38   19   31 1
    39   20   35 1
    40   21   22 ar
    41   21   34 1
    42   22   36 1
    43   23   25 1
    44   23   32 1
    45   23   33 2
    46   24   34 1
    47   24   50 1
    48   24   51 1
    49   24   52 1
    50   25   28 1
    51   25   53 1
    52   25   54 1
    53   26   27 1
    54   26   29 1
    55   26   55 1
    56   26   56 1
    57   27   30 1
    58   27   57 1
    59   27   58 1
    60   28   31 1
    61   28   59 1
    62   28   60 1
    63   29   35 1
    64   29   61 1
    65   29   62 1
    66   30   36 1
    67   30   63 1
    68   30   64 1
