@<TRIPOS>MOLECULE
*****
   36    36     0     0     0
SMALL
NO_CHARGES

@<TRIPOS>ATOM
      1 C1         -1.6867    0.7271    5.3364 C.ar      1 <0>         0.0000
      2 C2         -0.0632    2.2903    6.1012 C.ar      1 <0>         0.0000
      3 C3         -0.6911    1.0525    6.2592 C.ar      1 <0>         0.0000
      4 C4         -1.3732    2.7347    4.2739 C.ar      1 <0>         0.0000
      5 C5         -2.8943    0.7703   -0.7880 C.3       1 <0>         0.0000
      6 C6          1.9860    4.0758    0.8173 C.3       1 <0>         0.0000
      7 C7         -3.3770    1.7512    0.2863 C.3       1 <0>         0.0000
      8 C8          1.0468    3.9957    2.0251 C.3       1 <0>         0.0000
      9 C9         -2.2568    2.1851    1.2374 C.3       1 <0>         0.0000
     10 C10        -0.1324    4.9683    1.9191 C.3       1 <0>         0.0000
     11 C11        -2.7571    3.1697    2.3026 C.3       1 <0>         0.0000
     12 C12        -1.1073    4.8929    3.1027 C.3       1 <0>         0.0000
     13 N1         -2.0322    1.5488    4.3487 N.ar      1 <0>         0.0000
     14 N2         -0.3901    3.1293    5.1226 N.ar      1 <0>         0.0000
     15 N3         -1.7379    3.5822    3.2709 N.pl3     1 <0>         0.0000
     16 Br1        -0.2010   -0.1462    7.6645 Br        1 <0>         0.0000
     17 H1         -2.2169   -0.2223    5.3955 H         1 <0>         0.0000
     18 H2          0.7255    2.6095    6.7810 H         1 <0>         0.0000
     19 H3         -2.4807   -0.1373   -0.3338 H         1 <0>         0.0000
     20 H4         -3.7120    0.4695   -1.4517 H         1 <0>         0.0000
     21 H5         -2.1085    1.2179   -1.4074 H         1 <0>         0.0000
     22 H6          2.4065    5.0821    0.7057 H         1 <0>         0.0000
     23 H7          2.8216    3.3744    0.9147 H         1 <0>         0.0000
     24 H8          1.4559    3.8348   -0.1120 H         1 <0>         0.0000
     25 H9         -3.8136    2.6363   -0.1963 H         1 <0>         0.0000
     26 H10        -4.1846    1.2888    0.8683 H         1 <0>         0.0000
     27 H11         0.6651    2.9732    2.1239 H         1 <0>         0.0000
     28 H12         1.6015    4.2015    2.9482 H         1 <0>         0.0000
     29 H13        -1.8416    1.3067    1.7417 H         1 <0>         0.0000
     30 H14        -1.4416    2.6424    0.6645 H         1 <0>         0.0000
     31 H15         0.2424    5.9993    1.8650 H         1 <0>         0.0000
     32 H16        -0.6731    4.7935    0.9799 H         1 <0>         0.0000
     33 H17        -3.5936    2.7193    2.8439 H         1 <0>         0.0000
     34 H18        -3.1269    4.0814    1.8222 H         1 <0>         0.0000
     35 H19        -1.9061    5.6330    2.9681 H         1 <0>         0.0000
     36 H20        -0.5853    5.1317    4.0285 H         1 <0>         0.0000
@<TRIPOS>BOND
     1    1    3 ar
     2    1   13 ar
     3    1   17 1
     4    2    3 ar
     5    2   14 ar
     6    2   18 1
     7    3   16 1
     8    4   13 ar
     9    4   14 ar
    10    4   15 1
    11    5    7 1
    12    5   19 1
    13    5   20 1
    14    5   21 1
    15    6    8 1
    16    6   22 1
    17    6   23 1
    18    6   24 1
    19    7    9 1
    20    7   25 1
    21    7   26 1
    22    8   10 1
    23    8   27 1
    24    8   28 1
    25    9   11 1
    26    9   29 1
    27    9   30 1
    28   10   12 1
    29   10   31 1
    30   10   32 1
    31   11   15 1
    32   11   33 1
    33   11   34 1
    34   12   15 1
    35   12   35 1
    36   12   36 1
