@<TRIPOS>MOLECULE
*****
   64    68     0     0     0
SMALL
NO_CHARGES

@<TRIPOS>ATOM
      1 C1         -4.8114   -3.4187   11.7510 C.ar      1 <0>         0.0000
      2 C2         -5.5404   -3.1555   10.5637 C.ar      1 <0>         0.0000
      3 C3          4.3831   -0.1948   -4.1933 C.ar      1 <0>         0.0000
      4 C4          5.5019   -0.5000   -3.3946 C.ar      1 <0>         0.0000
      5 C5         -3.5023   -3.8545   11.6761 C.ar      1 <0>         0.0000
      6 C6         -4.9468   -3.3322    9.3287 C.ar      1 <0>         0.0000
      7 C7          3.1196   -0.6940   -3.8623 C.ar      1 <0>         0.0000
      8 C8          0.4584   -2.1814   -2.3155 C.ar      1 <0>         0.0000
      9 C9          5.3860   -1.3089   -2.2595 C.ar      1 <0>         0.0000
     10 C10        -0.3714   -2.8294   -1.4039 C.ar      1 <0>         0.0000
     11 C11        -1.5184   -4.4811   10.3072 C.ar      1 <0>         0.0000
     12 C12        -2.9708   -3.9735    7.9607 C.ar      1 <0>         0.0000
     13 C13         1.5572   -3.5502   -0.0775 C.ar      1 <0>         0.0000
     14 C14        -2.8674   -4.0446   10.4201 C.ar      1 <0>         0.0000
     15 C15        -3.6017   -3.7788    9.2211 C.ar      1 <0>         0.0000
     16 C16         2.9743   -1.5055   -2.7305 C.ar      1 <0>         0.0000
     17 C17         1.8464   -2.1533   -2.0941 C.ar      1 <0>         0.0000
     18 C18         4.1225   -1.8168   -1.9329 C.ar      1 <0>         0.0000
     19 C19         2.3654   -2.8398   -0.9655 C.ar      1 <0>         0.0000
     20 C20         0.1781   -3.4799   -0.2713 C.ar      1 <0>         0.0000
     21 C21        -0.9182   -4.6627    9.0833 C.ar      1 <0>         0.0000
     22 C22        -1.6633   -4.4154    7.8759 C.ar      1 <0>         0.0000
     23 C23         3.2356   -3.0841    2.4960 C.2       1 <0>         0.0000
     24 C24         1.3530   -4.2978    8.4248 C.3       1 <0>         0.0000
     25 C25         4.2560   -2.3349    1.5725 C.3       1 <0>         0.0000
     26 C26        -1.2459   -4.3231    2.9764 C.3       1 <0>         0.0000
     27 C27        -0.6285   -4.5763    4.3601 C.3       1 <0>         0.0000
     28 C28         4.5748   -3.0580    0.2490 C.3       1 <0>         0.0000
     29 C29        -0.1416   -4.3037    1.9336 C.3       1 <0>         0.0000
     30 C30        -1.6373   -4.3538    5.4726 C.3       1 <0>         0.0000
     31 N1          3.7386   -2.6407   -0.8834 N.pl3     1 <0>         0.0000
     32 O1          2.4685   -2.3598    3.1853 O.co2     1 <0>         0.0000
     33 O2          3.2862   -4.3502    2.4541 O.co2     1 <0>         0.0000
     34 O3          0.3642   -5.1477    9.0415 O.3       1 <0>         0.0000
     35 O4         -0.7086   -3.9949    0.6406 O.3       1 <0>         0.0000
     36 O5         -0.9944   -4.6595    6.7224 O.3       1 <0>         0.0000
     37 H1         -5.2859   -3.2762   12.7189 H         1 <0>         0.0000
     38 H2         -6.5702   -2.8125   10.6284 H         1 <0>         0.0000
     39 H3          4.5045    0.4376   -5.0697 H         1 <0>         0.0000
     40 H4          6.4767   -0.0973   -3.6610 H         1 <0>         0.0000
     41 H5         -2.9386   -4.0576   12.5844 H         1 <0>         0.0000
     42 H6         -5.5069   -3.1290    8.4183 H         1 <0>         0.0000
     43 H7          2.2549   -0.4504   -4.4764 H         1 <0>         0.0000
     44 H8          0.0242   -1.6692   -3.1718 H         1 <0>         0.0000
     45 H9          6.2578   -1.5282   -1.6499 H         1 <0>         0.0000
     46 H10        -1.4515   -2.8180   -1.5201 H         1 <0>         0.0000
     47 H11        -0.9318   -4.6838   11.1996 H         1 <0>         0.0000
     48 H12        -3.5448   -3.7836    7.0605 H         1 <0>         0.0000
     49 H13         1.9986   -4.0760    0.7599 H         1 <0>         0.0000
     50 H14         2.3107   -4.7953    8.5876 H         1 <0>         0.0000
     51 H15         1.3625   -3.3154    8.9129 H         1 <0>         0.0000
     52 H16         1.1740   -4.1825    7.3550 H         1 <0>         0.0000
     53 H17         5.1872   -2.2609    2.1496 H         1 <0>         0.0000
     54 H18         3.9111   -1.3142    1.3840 H         1 <0>         0.0000
     55 H19        -1.9993   -5.0848    2.7362 H         1 <0>         0.0000
     56 H20        -1.7524   -3.3495    2.9603 H         1 <0>         0.0000
     57 H21         0.2298   -3.9106    4.5031 H         1 <0>         0.0000
     58 H22        -0.2460   -5.6013    4.4219 H         1 <0>         0.0000
     59 H23         4.4423   -4.1320    0.4149 H         1 <0>         0.0000
     60 H24         5.6110   -2.8945   -0.0573 H         1 <0>         0.0000
     61 H25         0.5965   -3.5475    2.2136 H         1 <0>         0.0000
     62 H26         0.3758   -5.2696    1.8870 H         1 <0>         0.0000
     63 H27        -2.5187   -5.0001    5.3547 H         1 <0>         0.0000
     64 H28        -1.9742   -3.3089    5.4863 H         1 <0>         0.0000
@<TRIPOS>BOND
     1    1    2 ar
     2    1    5 ar
     3    1   37 1
     4    2    6 ar
     5    2   38 1
     6    3    4 ar
     7    3    7 ar
     8    3   39 1
     9    4    9 ar
    10    4   40 1
    11    5   14 ar
    12    5   41 1
    13    6   15 ar
    14    6   42 1
    15    7   16 ar
    16    7   43 1
    17    8   10 ar
    18    8   17 ar
    19    8   44 1
    20    9   18 ar
    21    9   45 1
    22   10   20 ar
    23   10   46 1
    24   11   14 ar
    25   11   21 ar
    26   11   47 1
    27   12   15 ar
    28   12   22 ar
    29   12   48 1
    30   13   19 ar
    31   13   20 ar
    32   13   49 1
    33   14   15 ar
    34   16   17 1
    35   16   18 ar
    36   17   19 ar
    37   18   31 1
    38   19   31 1
    39   20   35 1
    40   21   22 ar
    41   21   34 1
    42   22   36 1
    43   23   25 1
    44   23   32 1
    45   23   33 2
    46   24   34 1
    47   24   50 1
    48   24   51 1
    49   24   52 1
    50   25   28 1
    51   25   53 1
    52   25   54 1
    53   26   27 1
    54   26   29 1
    55   26   55 1
    56   26   56 1
    57   27   30 1
    58   27   57 1
    59   27   58 1
    60   28   31 1
    61   28   59 1
    62   28   60 1
    63   29   35 1
    64   29   61 1
    65   29   62 1
    66   30   36 1
    67   30   63 1
    68   30   64 1
