@<TRIPOS>MOLECULE
*****
   21    21     0     0     0
SMALL
NO_CHARGES

@<TRIPOS>ATOM
      1 C1         -0.6419    1.7078    0.8054 C.2       1 <0>         0.0000
      2 C2         -1.7110    0.0965   -0.8720 C.2       1 <0>         0.0000
      3 C3         -0.2474   -0.8297    1.1063 C.3       1 <0>         0.0000
      4 C4         -0.5460    0.3371    0.1713 C.3       1 <0>         0.0000
      5 C5          0.7882   -0.3804    0.0910 C.3       1 <0>         0.0000
      6 C6          2.0524    0.2757    0.6308 C.3       1 <0>         0.0000
      7 C7          1.0823   -1.3060   -1.0803 C.3       1 <0>         0.0000
      8 N1         -1.8425    1.9134    1.4533 N.am      1 <0>         0.0000
      9 O1         -2.8761    0.1695   -0.3688 O.co2     1 <0>         0.0000
     10 O2          0.2424    2.5734    0.7673 O.2       1 <0>         0.0000
     11 O3         -1.3873   -0.1336   -2.0572 O.co2     1 <0>         0.0000
     12 H1         -0.0688   -0.6109    2.1583 H         1 <0>         0.0000
     13 H2         -0.7965   -1.7516    0.9251 H         1 <0>         0.0000
     14 H3          2.4897    0.9512   -0.1127 H         1 <0>         0.0000
     15 H4          2.7931   -0.5023    0.8682 H         1 <0>         0.0000
     16 H5          1.8672    0.8669    1.5286 H         1 <0>         0.0000
     17 H6          1.4782   -0.7392   -1.9303 H         1 <0>         0.0000
     18 H7          0.1885   -1.8179   -1.4348 H         1 <0>         0.0000
     19 H8          1.8352   -2.0488   -0.7761 H         1 <0>         0.0000
     20 H9         -2.0601    2.8954    1.5868 H         1 <0>         0.0000
     21 H10        -2.5863    1.3171    1.0542 H         1 <0>         0.0000
@<TRIPOS>BOND
     1    1    4 1
     2    1    8 am
     3    1   10 2
     4    2    4 1
     5    2    9 1
     6    2   11 2
     7    3    4 1
     8    3    5 1
     9    3   12 1
    10    3   13 1
    11    4    5 1
    12    5    6 1
    13    5    7 1
    14    6   14 1
    15    6   15 1
    16    6   16 1
    17    7   17 1
    18    7   18 1
    19    7   19 1
    20    8   20 1
    21    8   21 1
