@<TRIPOS>MOLECULE
*****
   27    28     0     0     0
SMALL
NO_CHARGES

@<TRIPOS>ATOM
      1 C1          0.0696   -0.7722   -3.5426 C.2       1 <0>         0.0000
      2 C2         -2.9845    1.1276   -4.4367 C.3       1 <0>         0.0000
      3 C3         -2.6818   -0.1748   -5.1488 C.3       1 <0>         0.0000
      4 C4          0.9883   -0.4715    0.1614 C.3       1 <0>         0.0000
      5 C5         -1.3702   -0.6432    0.5421 C.3       1 <0>         0.0000
      6 C6         -1.5534    0.6965   -4.6558 C.3       1 <0>         0.0000
      7 C7         -0.0594   -0.2854    1.2759 C.3       1 <0>         0.0000
      8 C8          0.7950   -1.0438   -2.2215 C.3       1 <0>         0.0000
      9 N1          0.1898   -0.3881   -1.0708 N.3       1 <0>         0.0000
     10 N2         -0.8006    0.2725   -3.5111 N.am      1 <0>         0.0000
     11 O1          0.3150   -1.4508   -4.5378 O.2       1 <0>         0.0000
     12 O2         -0.9806   -1.1984   -0.7125 O.3       1 <0>         0.0000
     13 O3         -0.1830    1.0554    1.7522 O.3       1 <0>         0.0000
     14 H1         -3.3536    1.9691   -5.0153 H         1 <0>         0.0000
     15 H2         -3.3736    1.0654   -3.4241 H         1 <0>         0.0000
     16 H3         -2.8521   -1.0987   -4.6069 H         1 <0>         0.0000
     17 H4         -2.8377   -0.2337   -6.2213 H         1 <0>         0.0000
     18 H5          1.7417    0.3204    0.1661 H         1 <0>         0.0000
     19 H6          1.4786   -1.4530    0.2547 H         1 <0>         0.0000
     20 H7         -1.9737   -1.3977    1.0494 H         1 <0>         0.0000
     21 H8         -1.9487    0.2787    0.4065 H         1 <0>         0.0000
     22 H9         -0.9783    1.2271   -5.4117 H         1 <0>         0.0000
     23 H10         0.1441   -0.9666    2.1105 H         1 <0>         0.0000
     24 H11         0.8657   -2.1314   -2.0887 H         1 <0>         0.0000
     25 H12         1.8113   -0.6490   -2.3238 H         1 <0>         0.0000
     26 H13        -0.8855    0.7661   -2.6290 H         1 <0>         0.0000
     27 H14         0.5669    1.2444    2.3369 H         1 <0>         0.0000
@<TRIPOS>BOND
     1    1    8 1
     2    1   10 am
     3    1   11 2
     4    2    3 1
     5    2    6 1
     6    2   14 1
     7    2   15 1
     8    3    6 1
     9    3   16 1
    10    3   17 1
    11    4    7 1
    12    4    9 1
    13    4   18 1
    14    4   19 1
    15    5    7 1
    16    5   12 1
    17    5   20 1
    18    5   21 1
    19    6   10 1
    20    6   22 1
    21    7   13 1
    22    7   23 1
    23    8    9 1
    24    8   24 1
    25    8   25 1
    26    9   12 1
    27   10   26 1
    28   13   27 1
