@<TRIPOS>MOLECULE
*****
   27    28     0     0     0
SMALL
NO_CHARGES

@<TRIPOS>ATOM
      1 C1          0.9823   -0.1134   -3.8203 C.2       1 <0>         0.0000
      2 C2         -2.0517   -0.4791   -5.9632 C.3       1 <0>         0.0000
      3 C3         -0.6888   -0.7120   -6.5819 C.3       1 <0>         0.0000
      4 C4          0.2163    1.2350   -1.0231 C.3       1 <0>         0.0000
      5 C5         -0.3373   -0.2450    0.7628 C.3       1 <0>         0.0000
      6 C6         -0.8405    0.2483   -5.4293 C.3       1 <0>         0.0000
      7 C7         -0.6817    1.1652    0.2157 C.3       1 <0>         0.0000
      8 C8          1.2998   -0.5153   -2.3764 C.3       1 <0>         0.0000
      9 N1          0.2180   -0.1702   -1.4579 N.3       1 <0>         0.0000
     10 N2         -0.3454   -0.1352   -4.1370 N.am      1 <0>         0.0000
     11 O1          1.8777    0.1580   -4.6145 O.2       1 <0>         0.0000
     12 O2          0.5320   -0.8579   -0.1991 O.3       1 <0>         0.0000
     13 O3         -2.0658    1.3083   -0.0935 O.3       1 <0>         0.0000
     14 H1         -2.7859    0.1007   -6.5143 H         1 <0>         0.0000
     15 H2         -2.4675   -1.2757   -5.3524 H         1 <0>         0.0000
     16 H3         -0.1914   -1.6519   -6.3679 H         1 <0>         0.0000
     17 H4         -0.4784   -0.2926   -7.5604 H         1 <0>         0.0000
     18 H5         -0.2048    1.8779   -1.7988 H         1 <0>         0.0000
     19 H6          1.2321    1.5722   -0.7660 H         1 <0>         0.0000
     20 H7          0.2049   -0.2241    1.7112 H         1 <0>         0.0000
     21 H8         -1.2601   -0.8268    0.8816 H         1 <0>         0.0000
     22 H9         -0.7470    1.3076   -5.6589 H         1 <0>         0.0000
     23 H10        -0.4624    1.9595    0.9300 H         1 <0>         0.0000
     24 H11         1.4211   -1.6024   -2.3484 H         1 <0>         0.0000
     25 H12         2.2567   -0.0570   -2.0972 H         1 <0>         0.0000
     26 H13        -0.9907   -0.2880   -3.3696 H         1 <0>         0.0000
     27 H14        -2.2899    0.6157   -0.7378 H         1 <0>         0.0000
@<TRIPOS>BOND
     1    1    8 1
     2    1   10 am
     3    1   11 2
     4    2    3 1
     5    2    6 1
     6    2   14 1
     7    2   15 1
     8    3    6 1
     9    3   16 1
    10    3   17 1
    11    4    7 1
    12    4    9 1
    13    4   18 1
    14    4   19 1
    15    5    7 1
    16    5   12 1
    17    5   20 1
    18    5   21 1
    19    6   10 1
    20    6   22 1
    21    7   13 1
    22    7   23 1
    23    8    9 1
    24    8   24 1
    25    8   25 1
    26    9   12 1
    27   10   26 1
    28   13   27 1
