@<TRIPOS>MOLECULE
*****
   25    25     0     0     0
SMALL
NO_CHARGES

@<TRIPOS>ATOM
      1 C1          1.0619    0.2684    3.6503 C.2       1 <0>         0.0000
      2 C2          0.8775    0.0058    2.3384 C.2       1 <0>         0.0000
      3 C3          3.1411   -0.5639    2.5089 C.2       1 <0>         0.0000
      4 C4         -0.2745    0.9266    0.2918 C.2       1 <0>         0.0000
      5 C5         -1.3557    2.4410   -1.1613 C.3       1 <0>         0.0000
      6 C6          6.3352   -0.7754    0.4682 C.3       1 <0>         0.0000
      7 C7         -0.4072    0.1146    1.5726 C.3       1 <0>         0.0000
      8 N1          4.3623   -0.9308    2.2338 N.2       1 <0>         0.0000
      9 N2          2.0305   -0.4688    1.7133 N.pl3     1 <0>         0.0000
     10 O1          0.6822    0.8722   -0.4567 O.2       1 <0>         0.0000
     11 O2          4.9000   -2.9835    0.7892 O.2       1 <0>         0.0000
     12 O3          3.7972   -0.9847   -0.3056 O.2       1 <0>         0.0000
     13 O4         -1.3671    1.6812    0.0719 O.3       1 <0>         0.0000
     14 S1          2.7114   -0.0738    4.1549 S.3       1 <0>         0.0000
     15 S2          4.7231   -1.5293    0.7175 S.o2      1 <0>         0.0000
     16 H1          0.3229    0.6159    4.3585 H         1 <0>         0.0000
     17 H2         -2.3054    2.9740   -1.1794 H         1 <0>         0.0000
     18 H3         -1.2697    1.7683   -2.0170 H         1 <0>         0.0000
     19 H4         -0.5169    3.1399   -1.1636 H         1 <0>         0.0000
     20 H5          6.7073   -1.1488   -0.4874 H         1 <0>         0.0000
     21 H6          6.2142    0.3076    0.4444 H         1 <0>         0.0000
     22 H7          6.9846   -1.0856    1.2867 H         1 <0>         0.0000
     23 H8         -1.1843    0.5387    2.2086 H         1 <0>         0.0000
     24 H9         -0.7416   -0.8864    1.2681 H         1 <0>         0.0000
     25 H10         2.1397   -0.5232    0.6953 H         1 <0>         0.0000
@<TRIPOS>BOND
     1    1    2 2
     2    1   14 1
     3    1   16 1
     4    2    7 1
     5    2    9 1
     6    3    8 2
     7    3    9 1
     8    3   14 1
     9    4    7 1
    10    4   10 2
    11    4   13 1
    12    5   13 1
    13    5   17 1
    14    5   18 1
    15    5   19 1
    16    6   15 1
    17    6   20 1
    18    6   21 1
    19    6   22 1
    20    7   23 1
    21    7   24 1
    22    8   15 1
    23    9   25 1
    24   11   15 2
    25   12   15 2
