@<TRIPOS>MOLECULE
*****
   15    14     0     0     0
SMALL
NO_CHARGES

@<TRIPOS>ATOM
      1 C1          5.7043   -2.0618    2.1085 C.1       1 <0>         0.0000
      2 C2          3.7214   -3.9843    0.0346 C.3       1 <0>         0.0000
      3 C3          3.9673   -2.5447    3.8652 C.3       1 <0>         0.0000
      4 C4          2.7185   -1.8659    3.2955 C.3       1 <0>         0.0000
      5 N1          5.0433   -2.6531    2.9164 N.2       1 <0>         0.0000
      6 S1          6.6345   -1.4094    0.9997 S.2       1 <0>         0.0000
      7 S2          2.6736   -2.4982    0.2562 S.3       1 <0>         0.0000
      8 S3          1.7343   -2.8468    2.0923 S.3       1 <0>         0.0000
      9 H1          4.2476   -3.8365   -0.9131 H         1 <0>         0.0000
     10 H2          3.1036   -4.8817   -0.0301 H         1 <0>         0.0000
     11 H3          4.4489   -4.0807    0.8402 H         1 <0>         0.0000
     12 H4          3.7192   -3.5471    4.2236 H         1 <0>         0.0000
     13 H5          4.3269   -1.9642    4.7253 H         1 <0>         0.0000
     14 H6          2.0236   -1.6834    4.1231 H         1 <0>         0.0000
     15 H7          2.9697   -0.9020    2.8461 H         1 <0>         0.0000
@<TRIPOS>BOND
     1    1    5 2
     2    1    6 2
     3    2    7 1
     4    2    9 1
     5    2   10 1
     6    2   11 1
     7    3    4 1
     8    3    5 1
     9    3   12 1
    10    3   13 1
    11    4    8 1
    12    4   14 1
    13    4   15 1
    14    7    8 1
