@<TRIPOS>MOLECULE
*****
   11    10     0     0     0
SMALL
NO_CHARGES

@<TRIPOS>ATOM
      1 C1          0.1708    0.3629    0.3350 C.2       1 <0>         0.0000
      2 C2         -0.3704   -2.1867   -0.8437 C.3       1 <0>         0.0000
      3 N1          1.0219    1.3355    0.4510 N.2       1 <0>         0.0000
      4 N2          0.5642    2.4779    1.1672 N.3       1 <0>         0.0000
      5 S1         -1.4993    0.2848    0.8119 S.2       1 <0>         0.0000
      6 S2          1.0175   -1.0748   -0.4443 S.3       1 <0>         0.0000
      7 H1          0.0814   -3.0996   -1.2502 H         1 <0>         0.0000
      8 H2         -1.0388   -1.7432   -1.5859 H         1 <0>         0.0000
      9 H3         -0.9505   -2.4167    0.0518 H         1 <0>         0.0000
     10 H4         -0.4649    2.4587    1.1961 H         1 <0>         0.0000
     11 H5          0.8607    3.2851    0.6187 H         1 <0>         0.0000
@<TRIPOS>BOND
     1    1    3 1
     2    1    5 2
     3    1    6 1
     4    2    6 1
     5    2    7 1
     6    2    8 1
     7    2    9 1
     8    3    4 1
     9    4   10 1
    10    4   11 1
