@<TRIPOS>MOLECULE
*****
   24    24     0     0     0
SMALL
NO_CHARGES

@<TRIPOS>ATOM
      1 C1          3.8981    1.5573   -5.7027 C.2       1 <0>         0.0000
      2 C2          3.6166    0.8969   -4.5427 C.2       1 <0>         0.0000
      3 C3          5.6164   -0.0690   -4.8834 C.2       1 <0>         0.0000
      4 C4          2.6198    1.4742   -2.2867 C.2       1 <0>         0.0000
      5 C5          3.8947    2.8557   -0.8656 C.3       1 <0>         0.0000
      6 C6          6.9915   -2.3406   -6.9069 C.3       1 <0>         0.0000
      7 C7          2.3627    1.0680   -3.7276 C.3       1 <0>         0.0000
      8 N1          4.5529   -0.0037   -4.0937 N.2       1 <0>         0.0000
      9 N2          6.6571   -0.8857   -4.6331 N.2       1 <0>         0.0000
     10 O1          2.0613    0.9974   -1.3133 O.2       1 <0>         0.0000
     11 O2          8.8940   -1.9069   -5.1268 O.2       1 <0>         0.0000
     12 O3          8.1297    0.0147   -6.5866 O.2       1 <0>         0.0000
     13 O4          3.5255    2.4754   -2.1991 O.3       1 <0>         0.0000
     14 S1          5.4719    1.0864   -6.3019 S.3       1 <0>         0.0000
     15 S2          7.7814   -1.1686   -5.7556 S.o2      1 <0>         0.0000
     16 H1          3.3001    2.3087   -6.2045 H         1 <0>         0.0000
     17 H2          4.6495    3.6343   -0.9830 H         1 <0>         0.0000
     18 H3          4.3117    1.9993   -0.3299 H         1 <0>         0.0000
     19 H4          3.0293    3.2367   -0.3147 H         1 <0>         0.0000
     20 H5          7.7163   -2.5796   -7.6886 H         1 <0>         0.0000
     21 H6          6.7169   -3.2337   -6.3435 H         1 <0>         0.0000
     22 H7          6.1083   -1.8636   -7.3374 H         1 <0>         0.0000
     23 H8          1.7261    1.8365   -4.1819 H         1 <0>         0.0000
     24 H9          1.7902    0.1374   -3.6810 H         1 <0>         0.0000
@<TRIPOS>BOND
     1    1    2 2
     2    1   14 1
     3    1   16 1
     4    2    7 1
     5    2    8 1
     6    3    8 2
     7    3    9 1
     8    3   14 1
     9    4    7 1
    10    4   10 2
    11    4   13 1
    12    5   13 1
    13    5   17 1
    14    5   18 1
    15    5   19 1
    16    6   15 1
    17    6   20 1
    18    6   21 1
    19    6   22 1
    20    7   23 1
    21    7   24 1
    22    9   15 1
    23   11   15 2
    24   12   15 2
