@<TRIPOS>MOLECULE
*****
   29    30     0     0     0
SMALL
NO_CHARGES

@<TRIPOS>ATOM
      1 C1         -2.2692   -1.3296   -1.3243 C.ar      1 <0>         0.0000
      2 C2         -3.6312   -1.4941   -1.4132 C.ar      1 <0>         0.0000
      3 C3         -1.7639   -0.2017   -0.6310 C.ar      1 <0>         0.0000
      4 C4         -4.4277   -0.5062   -0.7961 C.ar      1 <0>         0.0000
      5 C5          0.2061    1.3096    0.1437 C.3       1 <0>         0.0000
      6 C6          0.3364    0.0211    0.9156 C.3       1 <0>         0.0000
      7 C7         -0.2838    0.0177   -0.4839 C.3       1 <0>         0.0000
      8 C8          0.2325    0.3723    3.4105 C.3       1 <0>         0.0000
      9 C9         -6.5709    0.3635   -0.2452 C.3       1 <0>         0.0000
     10 C10        -0.4629   -0.2241    2.1790 C.3       1 <0>         0.0000
     11 N1         -2.5887    0.6890   -0.0753 N.ar      1 <0>         0.0000
     12 N2         -3.9200    0.5368   -0.1529 N.ar      1 <0>         0.0000
     13 N3          0.5905   -0.5305   -1.5036 N.3       1 <0>         0.0000
     14 O1         -5.7703   -0.6509   -0.8793 O.3       1 <0>         0.0000
     15 H1         -1.5968   -2.0522   -1.7760 H         1 <0>         0.0000
     16 H2         -4.0967   -2.3311   -1.9248 H         1 <0>         0.0000
     17 H3         -0.5580    2.0084    0.4666 H         1 <0>         0.0000
     18 H4          1.0989    1.7373   -0.3001 H         1 <0>         0.0000
     19 H5          1.3348   -0.4129    0.9175 H         1 <0>         0.0000
     20 H6          1.2311   -0.0571    3.5522 H         1 <0>         0.0000
     21 H7         -0.3457    0.1829    4.3214 H         1 <0>         0.0000
     22 H8          0.3491    1.4561    3.3029 H         1 <0>         0.0000
     23 H9         -7.6034    0.0625   -0.4255 H         1 <0>         0.0000
     24 H10        -6.3724    1.3446   -0.6844 H         1 <0>         0.0000
     25 H11        -6.3631    0.4072    0.8271 H         1 <0>         0.0000
     26 H12        -1.4608    0.2111    2.0777 H         1 <0>         0.0000
     27 H13        -0.6006   -1.3047    2.3206 H         1 <0>         0.0000
     28 H14         0.3099   -0.2204   -2.4328 H         1 <0>         0.0000
     29 H15         0.5869   -1.5486   -1.4953 H         1 <0>         0.0000
@<TRIPOS>BOND
     1    1    2 ar
     2    1    3 ar
     3    1   15 1
     4    2    4 ar
     5    2   16 1
     6    3    7 1
     7    3   11 ar
     8    4   12 ar
     9    4   14 1
    10    5    6 1
    11    5    7 1
    12    5   17 1
    13    5   18 1
    14    6    7 1
    15    6   10 1
    16    6   19 1
    17    7   13 1
    18    8   10 1
    19    8   20 1
    20    8   21 1
    21    8   22 1
    22    9   14 1
    23    9   23 1
    24    9   24 1
    25    9   25 1
    26   10   26 1
    27   10   27 1
    28   11   12 ar
    29   13   28 1
    30   13   29 1
