@<TRIPOS>MOLECULE
*****
   25    25     0     0     0
SMALL
NO_CHARGES

@<TRIPOS>ATOM
      1 C1          5.0983    1.4820   -4.9856 C.2       1 <0>         0.0000
      2 C2          4.6189    0.7739   -3.9186 C.2       1 <0>         0.0000
      3 C3          6.0903   -0.7104   -4.6631 C.2       1 <0>         0.0000
      4 C4          2.9127    2.5179   -3.0876 C.2       1 <0>         0.0000
      5 C5          1.3550    4.0024   -2.1053 C.3       1 <0>         0.0000
      6 C6          5.2951   -3.2617   -6.4946 C.3       1 <0>         0.0000
      7 C7          3.5672    1.1625   -2.9162 C.3       1 <0>         0.0000
      8 N1          5.1843   -0.4827   -3.7518 N.2       1 <0>         0.0000
      9 N2          6.8689   -1.8777   -4.6581 N.pl3     1 <0>         0.0000
     10 O1          3.0887    3.3107   -3.9928 O.2       1 <0>         0.0000
     11 O2          7.5247   -1.9751   -7.1128 O.2       1 <0>         0.0000
     12 O3          7.6857   -4.0535   -5.6199 O.2       1 <0>         0.0000
     13 O4          2.0596    2.7424   -2.0612 O.3       1 <0>         0.0000
     14 S1          6.3375    0.5829   -5.8141 S.3       1 <0>         0.0000
     15 S2          6.9997   -2.8437   -6.0638 S.o2      1 <0>         0.0000
     16 H1          4.7809    2.4536   -5.3333 H         1 <0>         0.0000
     17 H2          0.7248    4.0125   -1.2164 H         1 <0>         0.0000
     18 H3          0.7471    4.0667   -3.0106 H         1 <0>         0.0000
     19 H4          2.0626    4.8342   -2.0865 H         1 <0>         0.0000
     20 H5          5.3405   -3.8410   -7.4184 H         1 <0>         0.0000
     21 H6          4.8661   -3.8549   -5.6864 H         1 <0>         0.0000
     22 H7          4.7390   -2.3368   -6.6517 H         1 <0>         0.0000
     23 H8          2.7699    0.4099   -2.9127 H         1 <0>         0.0000
     24 H9          3.9934    1.1207   -1.9077 H         1 <0>         0.0000
     25 H10         6.7024   -2.4452   -3.8274 H         1 <0>         0.0000
@<TRIPOS>BOND
     1    1    2 2
     2    1   14 1
     3    1   16 1
     4    2    7 1
     5    2    8 1
     6    3    8 2
     7    3    9 1
     8    3   14 1
     9    4    7 1
    10    4   10 2
    11    4   13 1
    12    5   13 1
    13    5   17 1
    14    5   18 1
    15    5   19 1
    16    6   15 1
    17    6   20 1
    18    6   21 1
    19    6   22 1
    20    7   23 1
    21    7   24 1
    22    9   15 1
    23    9   25 1
    24   11   15 2
    25   12   15 2
