@<TRIPOS>MOLECULE
*****
   25    25     0     0     0
SMALL
NO_CHARGES

@<TRIPOS>ATOM
      1 C1          4.6878    1.8901   -5.1684 C.2       1 <0>         0.0000
      2 C2          3.9205    0.9127   -4.5969 C.2       1 <0>         0.0000
      3 C3          5.5019   -0.3890   -5.4399 C.2       1 <0>         0.0000
      4 C4          3.0134    0.9867   -2.2968 C.2       1 <0>         0.0000
      5 C5          3.4374   -0.5617   -0.5657 C.3       1 <0>         0.0000
      6 C6          5.0282   -3.4854   -4.1538 C.3       1 <0>         0.0000
      7 C7          2.6779    1.1357   -3.7760 C.3       1 <0>         0.0000
      8 N1          4.3837   -0.3769   -4.7734 N.2       1 <0>         0.0000
      9 N2          6.1959   -1.5722   -5.7058 N.pl3     1 <0>         0.0000
     10 O1          3.3024    1.9105   -1.5624 O.2       1 <0>         0.0000
     11 O2          7.5993   -3.5082   -4.9255 O.2       1 <0>         0.0000
     12 O3          6.8451   -1.8244   -3.1653 O.2       1 <0>         0.0000
     13 O4          2.9886   -0.3073   -1.9154 O.3       1 <0>         0.0000
     14 S1          6.0930    1.1923   -5.9236 S.3       1 <0>         0.0000
     15 S2          6.5834   -2.6138   -4.3673 S.o2      1 <0>         0.0000
     16 H1          4.5154    2.9579   -5.1896 H         1 <0>         0.0000
     17 H2          3.3464   -1.6389   -0.4287 H         1 <0>         0.0000
     18 H3          2.8125   -0.0253    0.1516 H         1 <0>         0.0000
     19 H4          4.4771   -0.2474   -0.4530 H         1 <0>         0.0000
     20 H5          5.1795   -4.1744   -3.3206 H         1 <0>         0.0000
     21 H6          4.2642   -2.7410   -3.9287 H         1 <0>         0.0000
     22 H7          4.8133   -4.0231   -5.0769 H         1 <0>         0.0000
     23 H8          2.2964    2.1455   -3.9296 H         1 <0>         0.0000
     24 H9          1.9171    0.4038   -4.0586 H         1 <0>         0.0000
     25 H10         7.0124   -1.5010   -6.3101 H         1 <0>         0.0000
@<TRIPOS>BOND
     1    1    2 2
     2    1   14 1
     3    1   16 1
     4    2    7 1
     5    2    8 1
     6    3    8 2
     7    3    9 1
     8    3   14 1
     9    4    7 1
    10    4   10 2
    11    4   13 1
    12    5   13 1
    13    5   17 1
    14    5   18 1
    15    5   19 1
    16    6   15 1
    17    6   20 1
    18    6   21 1
    19    6   22 1
    20    7   23 1
    21    7   24 1
    22    9   15 1
    23    9   25 1
    24   11   15 2
    25   12   15 2
