@<TRIPOS>MOLECULE
*****
   25    25     0     0     0
SMALL
NO_CHARGES

@<TRIPOS>ATOM
      1 C1          0.7103    0.4892    3.4040 C.2       1 <0>         0.0000
      2 C2          0.7013   -0.0513    2.1664 C.2       1 <0>         0.0000
      3 C3          2.8869   -0.6085    2.7909 C.2       1 <0>         0.0000
      4 C4         -0.1026    0.4157   -0.1789 C.2       1 <0>         0.0000
      5 C5         -0.8921    1.5889   -2.0696 C.3       1 <0>         0.0000
      6 C6          6.3236   -1.3150    1.3422 C.3       1 <0>         0.0000
      7 C7         -0.4551   -0.0916    1.2124 C.3       1 <0>         0.0000
      8 N1          4.1151   -1.0479    2.7862 N.2       1 <0>         0.0000
      9 N2          1.9065   -0.6709    1.8367 N.pl3     1 <0>         0.0000
     10 O1          0.9472    0.1824   -0.7462 O.2       1 <0>         0.0000
     11 O2          4.7527   -3.3755    1.9122 O.2       1 <0>         0.0000
     12 O3          3.9138   -1.6479    0.2624 O.2       1 <0>         0.0000
     13 O4         -1.1152    1.1202   -0.7171 O.3       1 <0>         0.0000
     14 S1          2.2526    0.2376    4.2106 S.3       1 <0>         0.0000
     15 S2          4.6579   -1.9697    1.5047 S.o2      1 <0>         0.0000
     16 H1         -0.1038    0.9958    3.9031 H         1 <0>         0.0000
     17 H2         -1.8037    2.1177   -2.3446 H         1 <0>         0.0000
     18 H3         -0.7158    0.7427   -2.7368 H         1 <0>         0.0000
     19 H4         -0.0301    2.2584   -2.0971 H         1 <0>         0.0000
     20 H5          6.8085   -1.8944    0.5547 H         1 <0>         0.0000
     21 H6          6.2596   -0.2617    1.0695 H         1 <0>         0.0000
     22 H7          6.8350   -1.4493    2.2953 H         1 <0>         0.0000
     23 H8         -1.2924    0.4758    1.6191 H         1 <0>         0.0000
     24 H9         -0.7924   -1.1291    1.0846 H         1 <0>         0.0000
     25 H10         2.1561   -0.9493    0.8820 H         1 <0>         0.0000
@<TRIPOS>BOND
     1    1    2 2
     2    1   14 1
     3    1   16 1
     4    2    7 1
     5    2    9 1
     6    3    8 2
     7    3    9 1
     8    3   14 1
     9    4    7 1
    10    4   10 2
    11    4   13 1
    12    5   13 1
    13    5   17 1
    14    5   18 1
    15    5   19 1
    16    6   15 1
    17    6   20 1
    18    6   21 1
    19    6   22 1
    20    7   23 1
    21    7   24 1
    22    8   15 1
    23    9   25 1
    24   11   15 2
    25   12   15 2
