@<TRIPOS>MOLECULE
*****
   23    24     0     0     0
SMALL
NO_CHARGES

@<TRIPOS>ATOM
      1 C1          5.6720    1.6560    0.0990 C.ar      1 <0>         0.0000
      2 C2          4.4260    2.0990    0.5310 C.ar      1 <0>         0.0000
      3 C3          5.7860    0.4230   -0.5340 C.ar      1 <0>         0.0000
      4 C4          3.2980    1.3120    0.3280 C.ar      1 <0>         0.0000
      5 C5          4.6570   -0.3640   -0.7360 C.ar      1 <0>         0.0000
      6 C6          3.3930    0.0670   -0.3110 C.ar      1 <0>         0.0000
      7 C7          2.0830   -1.7520   -1.4120 C.2       1 <0>         0.0000
      8 C8          2.2000   -0.7590   -0.5240 C.2       1 <0>         0.0000
      9 C9          0.7300   -2.3980   -1.4160 C.3       1 <0>         0.0000
     10 C10         0.9170   -0.5580    0.2360 C.3       1 <0>         0.0000
     11 C11         0.1960   -1.9030   -0.0490 C.3       1 <0>         0.0000
     12 H1          6.5330    2.2560    0.2530 H         1 <0>         0.0000
     13 H2          4.3370    3.0380    1.0140 H         1 <0>         0.0000
     14 H3          6.7340    0.0820   -0.8620 H         1 <0>         0.0000
     15 H4          2.3560    1.6640    0.6570 H         1 <0>         0.0000
     16 H5          4.7590   -1.3040   -1.2110 H         1 <0>         0.0000
     17 H6          2.8450   -2.0540   -2.0820 H         1 <0>         0.0000
     18 H7          0.8120   -3.4770   -1.4260 H         1 <0>         0.0000
     19 H8          0.1420   -1.9820   -2.2240 H         1 <0>         0.0000
     20 H9          0.3680    0.2600   -0.2110 H         1 <0>         0.0000
     21 H10         1.1050   -0.4500    1.2960 H         1 <0>         0.0000
     22 H11        -0.8890   -1.7900   -0.0520 H         1 <0>         0.0000
     23 H12         0.4900   -2.6210    0.7180 H         1 <0>         0.0000
@<TRIPOS>BOND
     1    1    2 ar
     2    1    3 ar
     3    1   12 1
     4    2    4 ar
     5    2   13 1
     6    3    5 ar
     7    3   14 1
     8    4    6 ar
     9    4   15 1
    10    5    6 ar
    11    5   16 1
    12    6    8 1
    13    7    8 2
    14    7    9 1
    15    7   17 1
    16    8   10 1
    17    9   11 1
    18    9   18 1
    19    9   19 1
    20   10   11 1
    21   10   20 1
    22   10   21 1
    23   11   22 1
    24   11   23 1
