@<TRIPOS>MOLECULE
*****
   18    18     0     0     0
SMALL
NO_CHARGES

@<TRIPOS>ATOM
      1 C1          1.5480    0.0936    1.5236 C.ar      1 <0>         0.0000
      2 C2          0.2802    0.0142    0.9380 C.ar      1 <0>         0.0000
      3 C3          1.7638   -0.5323    2.7484 C.ar      1 <0>         0.0000
      4 C4         -0.7152   -0.6821    1.6274 C.ar      1 <0>         0.0000
      5 C5          0.6860   -1.2022    3.3565 C.ar      1 <0>         0.0000
      6 C6          0.3254   -2.9893    5.0843 C.2       1 <0>         0.0000
      7 C7          0.6873   -3.3043    6.5296 C.3       1 <0>         0.0000
      8 N1         -0.5329   -1.2667    2.8182 N.ar      1 <0>         0.0000
      9 N2          0.8862   -1.7991    4.6201 N.am      1 <0>         0.0000
     10 O1         -0.4010   -3.7062    4.4194 O.2       1 <0>         0.0000
     11 H1          2.3592    0.6210    1.0285 H         1 <0>         0.0000
     12 H2          0.0662    0.4779   -0.0202 H         1 <0>         0.0000
     13 H3          2.7432   -0.5191    3.2201 H         1 <0>         0.0000
     14 H4         -1.7183   -0.7648    1.2115 H         1 <0>         0.0000
     15 H5         -0.0709   -2.8648    7.1866 H         1 <0>         0.0000
     16 H6          1.6643   -2.9113    6.8293 H         1 <0>         0.0000
     17 H7          0.6723   -4.3861    6.6668 H         1 <0>         0.0000
     18 H8          1.6298   -1.4032    5.1795 H         1 <0>         0.0000
@<TRIPOS>BOND
     1    1    2 ar
     2    1    3 ar
     3    1   11 1
     4    2    4 ar
     5    2   12 1
     6    3    5 ar
     7    3   13 1
     8    4    8 ar
     9    4   14 1
    10    5    8 ar
    11    5    9 1
    12    6    7 1
    13    6    9 am
    14    6   10 2
    15    7   15 1
    16    7   16 1
    17    7   17 1
    18    9   18 1
