@<TRIPOS>MOLECULE
*****
   27    28     0     0     0
SMALL
NO_CHARGES

@<TRIPOS>ATOM
      1 C1          2.0024   -0.8001   -0.1467 C.ar      1 <0>         0.0000
      2 C2          4.5118   -4.6631    5.6157 C.ar      1 <0>         0.0000
      3 C3          0.8814   -0.3137    0.5328 C.ar      1 <0>         0.0000
      4 C4          3.4024   -5.5160    5.5516 C.ar      1 <0>         0.0000
      5 C5          2.9944   -1.4672    0.5685 C.ar      1 <0>         0.0000
      6 C6          4.6799   -3.6732    4.6501 C.ar      1 <0>         0.0000
      7 C7          0.7706   -0.4955    1.9132 C.ar      1 <0>         0.0000
      8 C8          2.4682   -5.3766    4.5227 C.ar      1 <0>         0.0000
      9 C9          2.8657   -1.6861    1.9498 C.ar      1 <0>         0.0000
     10 C10         3.7405   -3.4909    3.6204 C.ar      1 <0>         0.0000
     11 C11         1.7448   -1.1867    2.6477 C.ar      1 <0>         0.0000
     12 C12         2.6520   -4.3685    3.5818 C.ar      1 <0>         0.0000
     13 C13         3.9977   -2.4148    2.6055 C.2       1 <0>         0.0000
     14 C14         1.5618   -1.3252    4.1445 C.3       1 <0>         0.0000
     15 O1          5.1596   -2.1480    2.3091 O.2       1 <0>         0.0000
     16 F1          1.7364   -4.2650    2.5870 F         1 <0>         0.0000
     17 H1          2.1049   -0.6535   -1.2185 H         1 <0>         0.0000
     18 H2          5.2417   -4.7761    6.4120 H         1 <0>         0.0000
     19 H3          0.1015    0.2177   -0.0067 H         1 <0>         0.0000
     20 H4          3.2662   -6.2951    6.2967 H         1 <0>         0.0000
     21 H5          3.8836   -1.8369    0.0670 H         1 <0>         0.0000
     22 H6          5.5416   -3.0131    4.6702 H         1 <0>         0.0000
     23 H7         -0.0899   -0.0859    2.4376 H         1 <0>         0.0000
     24 H8          1.6093   -6.0347    4.4341 H         1 <0>         0.0000
     25 H9          1.0910   -2.2795    4.4031 H         1 <0>         0.0000
     26 H10         2.5062   -1.2693    4.6902 H         1 <0>         0.0000
     27 H11         0.9122   -0.5290    4.5186 H         1 <0>         0.0000
@<TRIPOS>BOND
     1    1    3 ar
     2    1    5 ar
     3    1   17 1
     4    2    4 ar
     5    2    6 ar
     6    2   18 1
     7    3    7 ar
     8    3   19 1
     9    4    8 ar
    10    4   20 1
    11    5    9 ar
    12    5   21 1
    13    6   10 ar
    14    6   22 1
    15    7   11 ar
    16    7   23 1
    17    8   12 ar
    18    8   24 1
    19    9   11 ar
    20    9   13 1
    21   10   12 ar
    22   10   13 1
    23   11   14 1
    24   12   16 1
    25   13   15 2
    26   14   25 1
    27   14   26 1
    28   14   27 1
