@<TRIPOS>MOLECULE
*****
   17    17     0     0     0
SMALL
NO_CHARGES

@<TRIPOS>ATOM
      1 C1          2.1332   -0.1369   -0.3643 C.2       1 <0>         0.0000
      2 C2          0.8302    0.3386   -0.6665 C.2       1 <0>         0.0000
      3 C3          3.1924    0.4532   -1.0017 C.2       1 <0>         0.0000
      4 C4          0.5888    1.3656   -1.5567 C.2       1 <0>         0.0000
      5 C5          1.7136    1.9836   -2.2774 C.2       1 <0>         0.0000
      6 C6         -0.8002    1.8798   -1.7728 C.2       1 <0>         0.0000
      7 C7         -1.9651    0.9838   -1.3603 C.3       1 <0>         0.0000
      8 N1          2.9770    1.4489   -1.8986 N.am      1 <0>         0.0000
      9 O1          1.6868    2.8479   -3.1435 O.2       1 <0>         0.0000
     10 O2         -1.0132    2.9867   -2.2436 O.2       1 <0>         0.0000
     11 H1          2.2967   -0.9333    0.3515 H         1 <0>         0.0000
     12 H2         -0.0087   -0.1222   -0.1532 H         1 <0>         0.0000
     13 H3          4.2255    0.1658   -0.8314 H         1 <0>         0.0000
     14 H4         -2.0486    0.9323   -0.2686 H         1 <0>         0.0000
     15 H5         -1.8533   -0.0377   -1.7369 H         1 <0>         0.0000
     16 H6         -2.8836    1.4221   -1.7524 H         1 <0>         0.0000
     17 H7          3.7567    1.8790   -2.3875 H         1 <0>         0.0000
@<TRIPOS>BOND
     1    1    2 1
     2    1    3 2
     3    1   11 1
     4    2    4 2
     5    2   12 1
     6    3    8 1
     7    3   13 1
     8    4    5 1
     9    4    6 1
    10    5    8 am
    11    5    9 2
    12    6    7 1
    13    6   10 2
    14    7   14 1
    15    7   15 1
    16    7   16 1
    17    8   17 1
