@<TRIPOS>MOLECULE
*****
   22    23     0     0     0
SMALL
NO_CHARGES

@<TRIPOS>ATOM
      1 C1          1.9508   -1.0475   -0.1653 C.ar      1 <0>         0.0000
      2 C2          3.0657   -1.4207    0.5947 C.ar      1 <0>         0.0000
      3 C3          0.7638   -0.6924    0.4815 C.ar      1 <0>         0.0000
      4 C4          2.9937   -1.4567    1.9876 C.ar      1 <0>         0.0000
      5 C5          0.6858   -0.7114    1.8769 C.ar      1 <0>         0.0000
      6 C6          1.2130   -1.5015    6.1589 C.2       1 <0>         0.0000
      7 C7          2.5139   -0.9567    6.0320 C.2       1 <0>         0.0000
      8 C8          1.7975   -1.1088    2.6292 C.ar      1 <0>         0.0000
      9 C9          0.7381   -1.6218    4.8624 C.2       1 <0>         0.0000
     10 C10        -0.5574   -2.1966    4.3772 C.3       1 <0>         0.0000
     11 N1          2.8401   -0.7503    4.7595 N.2       1 <0>         0.0000
     12 N2          1.7424   -1.1481    4.0484 N.pl3     1 <0>         0.0000
     13 H1          2.0102   -1.0258   -1.2501 H         1 <0>         0.0000
     14 H2          3.9954   -1.6906    0.1006 H         1 <0>         0.0000
     15 H3         -0.1018   -0.3815   -0.0974 H         1 <0>         0.0000
     16 H4          3.8497   -1.7401    2.5898 H         1 <0>         0.0000
     17 H5         -0.2238   -0.3931    2.3740 H         1 <0>         0.0000
     18 H6          0.6907   -1.7851    7.0630 H         1 <0>         0.0000
     19 H7          3.2235   -0.7042    6.8107 H         1 <0>         0.0000
     20 H8         -1.2950   -1.4214    4.1421 H         1 <0>         0.0000
     21 H9         -0.4190   -2.8066    3.4800 H         1 <0>         0.0000
     22 H10        -0.9833   -2.8292    5.1597 H         1 <0>         0.0000
@<TRIPOS>BOND
     1    1    3 ar
     2    1    2 ar
     3    1   13 1
     4    2    4 ar
     5    2   14 1
     6    3    5 ar
     7    3   15 1
     8    4    8 ar
     9    4   16 1
    10    5    8 ar
    11    5   17 1
    12    6    7 1
    13    6    9 2
    14    6   18 1
    15    7   11 2
    16    7   19 1
    17    8   12 1
    18    9   10 1
    19    9   12 1
    20   10   20 1
    21   10   21 1
    22   10   22 1
    23   11   12 1
