@<TRIPOS>MOLECULE
*****
   32    34     0     0     0
SMALL
NO_CHARGES

@<TRIPOS>ATOM
      1 C1         -3.7187   -5.3670    0.4093 C.ar      1 <0>         0.0000
      2 C2         -2.8963   -6.3131   -0.2091 C.ar      1 <0>         0.0000
      3 C3         -3.2191   -4.6064    1.4725 C.ar      1 <0>         0.0000
      4 C4          2.0580   -7.4691    2.5350 C.ar      1 <0>         0.0000
      5 C5          2.9391   -6.4012    2.7282 C.ar      1 <0>         0.0000
      6 C6          0.7312   -1.0807    1.9877 C.2       1 <0>         0.0000
      7 C7         -1.5820   -6.4945    0.2310 C.ar      1 <0>         0.0000
      8 C8         -1.9064   -4.7852    1.9092 C.ar      1 <0>         0.0000
      9 C9          0.7716   -7.2267    2.0519 C.ar      1 <0>         0.0000
     10 C10         2.5260   -5.1049    2.4212 C.ar      1 <0>         0.0000
     11 C11         1.1048   -2.3874    2.4190 C.2       1 <0>         0.0000
     12 C12         0.1618   -0.8657    0.7616 C.2       1 <0>         0.0000
     13 C13        -1.0689   -5.7292    1.2909 C.ar      1 <0>         0.0000
     14 C14         0.3332   -5.9272    1.7494 C.ar      1 <0>         0.0000
     15 C15         1.2354   -4.8510    1.9278 C.ar      1 <0>         0.0000
     16 C16         0.8869   -3.4514    1.5771 C.2       1 <0>         0.0000
     17 C17        -0.0800   -1.9644   -0.1567 C.2       1 <0>         0.0000
     18 N1          0.3387   -3.2130    0.3436 N.am      1 <0>         0.0000
     19 O1         -0.5863   -1.8901   -1.2795 O.2       1 <0>         0.0000
     20 H1         -4.7378   -5.2187    0.0627 H         1 <0>         0.0000
     21 H2         -3.2724   -6.9022   -1.0413 H         1 <0>         0.0000
     22 H3         -3.8522   -3.8695    1.9595 H         1 <0>         0.0000
     23 H4          2.3669   -8.4846    2.7682 H         1 <0>         0.0000
     24 H5          3.9441   -6.5766    3.1021 H         1 <0>         0.0000
     25 H6          0.8954   -0.2397    2.6581 H         1 <0>         0.0000
     26 H7         -0.9401   -7.2175   -0.2664 H         1 <0>         0.0000
     27 H8         -1.5251   -4.1897    2.7338 H         1 <0>         0.0000
     28 H9          0.0742   -8.0518    1.9360 H         1 <0>         0.0000
     29 H10         3.2179   -4.2749    2.5311 H         1 <0>         0.0000
     30 H11         1.5192   -2.5590    3.4052 H         1 <0>         0.0000
     31 H12        -0.1347    0.1218    0.4248 H         1 <0>         0.0000
     32 H13         0.1523   -3.9932   -0.2795 H         1 <0>         0.0000
@<TRIPOS>BOND
     1    1    3 ar
     2    1    2 ar
     3    1   20 1
     4    2    7 ar
     5    2   21 1
     6    3    8 ar
     7    3   22 1
     8    4    5 ar
     9    4    9 ar
    10    4   23 1
    11    5   10 ar
    12    5   24 1
    13    6   12 2
    14    6   11 1
    15    6   25 1
    16    7   13 ar
    17    7   26 1
    18    8   13 ar
    19    8   27 1
    20    9   14 ar
    21    9   28 1
    22   10   15 ar
    23   10   29 1
    24   11   16 2
    25   11   30 1
    26   12   17 1
    27   12   31 1
    28   13   14 1
    29   14   15 ar
    30   15   16 1
    31   16   18 1
    32   17   18 am
    33   17   19 2
    34   18   32 1
