@<TRIPOS>MOLECULE
*****
   15    15     0     0     0
SMALL
NO_CHARGES

@<TRIPOS>ATOM
      1 C1          0.4536    0.0483    1.1465 C.3       1 <0>         0.0000
      2 C2          0.0484    1.1204   -0.5905 C.3       1 <0>         0.0000
      3 C3         -0.2123   -0.3458   -0.1817 C.3       1 <0>         0.0000
      4 C4          0.5335   -1.3929   -0.9978 C.3       1 <0>         0.0000
      5 O1          0.8491    1.3388    0.5980 O.3       1 <0>         0.0000
      6 O2         -1.5719   -0.7479    0.0022 O.3       1 <0>         0.0000
      7 O3          0.4734   -2.6717   -0.3798 O.3       1 <0>         0.0000
      8 H1         -0.2607    0.1566    1.9697 H         1 <0>         0.0000
      9 H2          1.3160   -0.5479    1.4580 H         1 <0>         0.0000
     10 H3          0.6246    1.2879   -1.5090 H         1 <0>         0.0000
     11 H4         -0.8581    1.7389   -0.5941 H         1 <0>         0.0000
     12 H5          1.5911   -1.1266   -1.0803 H         1 <0>         0.0000
     13 H6          0.1138   -1.4248   -2.0188 H         1 <0>         0.0000
     14 H7         -2.0178   -0.7250   -0.8613 H         1 <0>         0.0000
     15 H8         -0.4468   -2.7950   -0.0887 H         1 <0>         0.0000
@<TRIPOS>BOND
     1    1    3 1
     2    1    5 1
     3    1    8 1
     4    1    9 1
     5    2    3 1
     6    2    5 1
     7    2   10 1
     8    2   11 1
     9    3    4 1
    10    3    6 1
    11    4    7 1
    12    4   12 1
    13    4   13 1
    14    6   14 1
    15    7   15 1
