@<TRIPOS>MOLECULE
*****
   29    30     0     0     0
SMALL
NO_CHARGES

@<TRIPOS>ATOM
      1 C1         -2.4291   -4.9957    5.2799 C.ar      1 <0>         0.0000
      2 C2         -1.4927   -4.9699    6.3133 C.ar      1 <0>         0.0000
      3 C3         -1.7725   -0.5190    1.6010 C.2       1 <0>         0.0000
      4 C4         -2.2475   -4.1596    4.1728 C.ar      1 <0>         0.0000
      5 C5         -0.3847   -4.1159    6.2516 C.ar      1 <0>         0.0000
      6 C6         -1.9334   -1.4028    2.7019 C.2       1 <0>         0.0000
      7 C7         -0.6956   -0.6375    0.7671 C.2       1 <0>         0.0000
      8 C8         -1.1451   -3.3049    4.0819 C.ar      1 <0>         0.0000
      9 C9         -0.2104   -3.2808    5.1415 C.ar      1 <0>         0.0000
     10 C10        -1.0027   -2.3918    2.9167 C.2       1 <0>         0.0000
     11 C11         0.3072   -1.6608    0.9680 C.2       1 <0>         0.0000
     12 C12         1.0357   -3.6277    2.2018 C.3       1 <0>         0.0000
     13 C13         1.8045   -2.3308    6.0286 C.3       1 <0>         0.0000
     14 N1          0.0622   -2.5406    2.0565 N.am      1 <0>         0.0000
     15 O1          1.3149   -1.8180    0.2672 O.2       1 <0>         0.0000
     16 O2          0.8265   -2.4045    4.9943 O.3       1 <0>         0.0000
     17 H1         -3.2880   -5.6585    5.3291 H         1 <0>         0.0000
     18 H2         -1.6174   -5.6140    7.1798 H         1 <0>         0.0000
     19 H3         -2.5081    0.2645    1.4329 H         1 <0>         0.0000
     20 H4         -2.9623   -4.1717    3.3545 H         1 <0>         0.0000
     21 H5          0.3251   -4.1040    7.0707 H         1 <0>         0.0000
     22 H6         -2.7544   -1.2940    3.4003 H         1 <0>         0.0000
     23 H7         -0.5341    0.0268   -0.0751 H         1 <0>         0.0000
     24 H8          0.6052   -4.4273    2.8016 H         1 <0>         0.0000
     25 H9          1.9469   -3.2578    2.6779 H         1 <0>         0.0000
     26 H10         1.2921   -3.9944    1.2080 H         1 <0>         0.0000
     27 H11         2.5239   -1.5797    5.7012 H         1 <0>         0.0000
     28 H12         2.3155   -3.2918    6.1630 H         1 <0>         0.0000
     29 H13         1.3554   -2.0163    6.9781 H         1 <0>         0.0000
@<TRIPOS>BOND
     1    1    2 ar
     2    1    4 ar
     3    1   17 1
     4    2    5 ar
     5    2   18 1
     6    3    7 2
     7    3    6 1
     8    3   19 1
     9    4    8 ar
    10    4   20 1
    11    5    9 ar
    12    5   21 1
    13    6   10 2
    14    6   22 1
    15    7   11 1
    16    7   23 1
    17    8    9 ar
    18    8   10 1
    19    9   16 1
    20   10   14 1
    21   11   14 am
    22   11   15 2
    23   12   14 1
    24   12   24 1
    25   12   25 1
    26   12   26 1
    27   13   16 1
    28   13   27 1
    29   13   28 1
    30   13   29 1
