@<TRIPOS>MOLECULE
*****
   15    15     0     0     0
SMALL
NO_CHARGES

@<TRIPOS>ATOM
      1 C1          0.4625   -0.0053    1.1819 C.3       1 <0>         0.0000
      2 C2          0.0531    1.1448   -0.5008 C.3       1 <0>         0.0000
      3 C3         -0.2523   -0.3362   -0.1528 C.3       1 <0>         0.0000
      4 C4          0.5165   -1.3506   -0.9944 C.3       1 <0>         0.0000
      5 O1          0.9279    1.2630    0.6488 O.3       1 <0>         0.0000
      6 O2         -1.6016   -0.7462   -0.1028 O.3       1 <0>         0.0000
      7 O3          0.0930   -1.4188   -2.3506 O.3       1 <0>         0.0000
      8 H1         -0.2306    0.1363    2.0227 H         1 <0>         0.0000
      9 H2          1.2927   -0.6493    1.4933 H         1 <0>         0.0000
     10 H3          0.5815    1.3628   -1.4375 H         1 <0>         0.0000
     11 H4         -0.8225    1.8043   -0.4191 H         1 <0>         0.0000
     12 H5          0.3468   -2.3474   -0.5785 H         1 <0>         0.0000
     13 H6          1.5897   -1.1230   -0.9214 H         1 <0>         0.0000
     14 H7         -2.1055   -0.0932    0.4088 H         1 <0>         0.0000
     15 H8          0.2818   -0.5682   -2.7765 H         1 <0>         0.0000
@<TRIPOS>BOND
     1    1    3 1
     2    1    5 1
     3    1    8 1
     4    1    9 1
     5    2    3 1
     6    2    5 1
     7    2   10 1
     8    2   11 1
     9    3    4 1
    10    3    6 1
    11    4    7 1
    12    4   12 1
    13    4   13 1
    14    6   14 1
    15    7   15 1
