@<TRIPOS>MOLECULE
*****
   16    16     0     0     0
SMALL
NO_CHARGES

@<TRIPOS>ATOM
      1 C1          1.3186   -0.9923    1.9385 C.2       1 <0>         0.0000
      2 C2          2.3272   -0.6359   -0.4313 C.3       1 <0>         0.0000
      3 C3          0.8635   -0.9853   -0.6213 C.3       1 <0>         0.0000
      4 C4          1.3175   -0.2696    0.6190 C.3       1 <0>         0.0000
      5 C5          0.9462   -0.7520    4.3690 C.3       1 <0>         0.0000
      6 N1          0.9955   -0.2251    3.0134 N.am      1 <0>         0.0000
      7 O1          1.5984   -2.1917    1.9892 O.2       1 <0>         0.0000
      8 F1          0.9823    1.0829    0.7144 F         1 <0>         0.0000
      9 H1          3.0192   -1.4327   -0.1808 H         1 <0>         0.0000
     10 H2          2.7244    0.1904   -1.0123 H         1 <0>         0.0000
     11 H3          0.2941   -0.3898   -1.3279 H         1 <0>         0.0000
     12 H4          0.5603   -2.0196   -0.5000 H         1 <0>         0.0000
     13 H5         -0.0564   -0.6381    4.7951 H         1 <0>         0.0000
     14 H6          1.6685   -0.2394    5.0137 H         1 <0>         0.0000
     15 H7          1.1968   -1.8122    4.3265 H         1 <0>         0.0000
     16 H8          0.7854    0.7502    2.8466 H         1 <0>         0.0000
@<TRIPOS>BOND
     1    1    4 1
     2    1    6 am
     3    1    7 2
     4    2    3 1
     5    2    4 1
     6    2    9 1
     7    2   10 1
     8    3    4 1
     9    3   11 1
    10    3   12 1
    11    4    8 1
    12    5    6 1
    13    5   13 1
    14    5   14 1
    15    5   15 1
    16    6   16 1
