@<TRIPOS>MOLECULE
*****
   25    26     0     0     0
SMALL
NO_CHARGES

@<TRIPOS>ATOM
      1 C1          1.5936   -1.1173    0.0848 C.ar      1 <0>         0.0000
      2 C2          1.7648    0.0774    0.7958 C.ar      1 <0>         0.0000
      3 C3          1.4193   -2.3147    0.7832 C.ar      1 <0>         0.0000
      4 C4          1.7622    0.0704    2.1918 C.ar      1 <0>         0.0000
      5 C5          1.4171   -2.3161    2.1835 C.ar      1 <0>         0.0000
      6 C6         -0.5971    1.0772    6.2925 C.2       1 <0>         0.0000
      7 C7         -1.3968    0.8441    5.1965 C.2       1 <0>         0.0000
      8 C8          1.5908   -1.1282    2.9048 C.ar      1 <0>         0.0000
      9 C9          0.5528   -0.2186    5.0001 C.2       1 <0>         0.0000
     10 C10         2.9976   -0.7925    4.9899 C.3       1 <0>         0.0000
     11 C11         1.6064   -1.1345    4.4264 C.3       1 <0>         0.0000
     12 N1          0.6086    0.4150    6.1601 N.2       1 <0>         0.0000
     13 N2         -0.6512    0.0101    4.3812 N.pl3     1 <0>         0.0000
     14 H1          1.5950   -1.1122   -1.0021 H         1 <0>         0.0000
     15 H2          1.8994    1.0139    0.2603 H         1 <0>         0.0000
     16 H3          1.2839   -3.2474    0.2414 H         1 <0>         0.0000
     17 H4          1.8877    1.0034    2.7365 H         1 <0>         0.0000
     18 H5          1.2803   -3.2523    2.7211 H         1 <0>         0.0000
     19 H6         -0.8164    1.6829    7.1623 H         1 <0>         0.0000
     20 H7         -2.3856    1.1854    4.9252 H         1 <0>         0.0000
     21 H8          3.3046    0.2123    4.6867 H         1 <0>         0.0000
     22 H9          3.7356   -1.5084    4.6160 H         1 <0>         0.0000
     23 H10         2.9822   -0.8222    6.0813 H         1 <0>         0.0000
     24 H11         1.3625   -2.1547    4.7516 H         1 <0>         0.0000
     25 H12        -0.9091   -0.3232    3.4611 H         1 <0>         0.0000
@<TRIPOS>BOND
     1    1    3 ar
     2    1    2 ar
     3    1   14 1
     4    2    4 ar
     5    2   15 1
     6    3    5 ar
     7    3   16 1
     8    4    8 ar
     9    4   17 1
    10    5    8 ar
    11    5   18 1
    12    6    7 2
    13    6   12 1
    14    6   19 1
    15    7   13 1
    16    7   20 1
    17    8   11 1
    18    9   11 1
    19    9   12 2
    20    9   13 1
    21   10   11 1
    22   10   21 1
    23   10   22 1
    24   10   23 1
    25   11   24 1
    26   13   25 1
