@<TRIPOS>MOLECULE
*****
   29    30     0     0     0
SMALL
NO_CHARGES

@<TRIPOS>ATOM
      1 C1         -0.1515    2.4734   -1.3063 C.ar      1 <0>         0.0000
      2 C2         -1.2100    2.5977   -0.3975 C.ar      1 <0>         0.0000
      3 C3          0.4741    1.2387   -1.4887 C.ar      1 <0>         0.0000
      4 C4         -1.6495    1.4981    0.3467 C.ar      1 <0>         0.0000
      5 C5          0.0253    0.1442   -0.7497 C.ar      1 <0>         0.0000
      6 C6         -1.0217    0.2697    0.1705 C.ar      1 <0>         0.0000
      7 C7          0.3371   -2.1397   -0.0751 C.cat     1 <0>         0.0000
      8 C8         -0.4337   -1.7791    1.1827 C.3       1 <0>         0.0000
      9 C9          0.7482   -0.3746    4.6367 C.3       1 <0>         0.0000
     10 C10         0.5261   -1.2620    2.2680 C.3       1 <0>         0.0000
     11 C11        -0.2122   -0.8955    3.5628 C.3       1 <0>         0.0000
     12 N1          0.5743   -1.1610   -0.9313 N.pl3     1 <0>         0.0000
     13 N2          0.7721   -3.3833   -0.2586 N.pl3     1 <0>         0.0000
     14 O1         -1.4635   -0.8490    0.8448 O.3       1 <0>         0.0000
     15 H1          0.1859    3.3348   -1.8733 H         1 <0>         0.0000
     16 H2         -1.6945    3.5596   -0.2618 H         1 <0>         0.0000
     17 H3          1.2935    1.1307   -2.1955 H         1 <0>         0.0000
     18 H4         -2.4694    1.5781    1.0536 H         1 <0>         0.0000
     19 H5         -0.9660   -2.6646    1.5395 H         1 <0>         0.0000
     20 H6          1.5045   -1.1234    4.8956 H         1 <0>         0.0000
     21 H7          0.2039   -0.1216    5.5507 H         1 <0>         0.0000
     22 H8          1.2697    0.5274    4.2991 H         1 <0>         0.0000
     23 H9          1.2714   -2.0423    2.4678 H         1 <0>         0.0000
     24 H10         1.0733   -0.3919    1.8875 H         1 <0>         0.0000
     25 H11        -0.9717   -0.1391    3.3426 H         1 <0>         0.0000
     26 H12        -0.7483   -1.7768    3.9361 H         1 <0>         0.0000
     27 H13         1.1127   -1.3313   -1.7779 H         1 <0>         0.0000
     28 H14         1.3232   -3.6666   -1.0633 H         1 <0>         0.0000
     29 H15         0.5544   -4.1026    0.4219 H         1 <0>         0.0000
@<TRIPOS>BOND
     1    1    2 ar
     2    1    3 ar
     3    1   15 1
     4    2    4 ar
     5    2   16 1
     6    3    5 ar
     7    3   17 1
     8    4    6 ar
     9    4   18 1
    10    5    6 ar
    11    5   12 1
    12    6   14 1
    13    7    8 1
    14    7   12 1
    15    7   13 2
    16    8   10 1
    17    8   14 1
    18    8   19 1
    19    9   11 1
    20    9   20 1
    21    9   21 1
    22    9   22 1
    23   10   11 1
    24   10   23 1
    25   10   24 1
    26   11   25 1
    27   11   26 1
    28   12   27 1
    29   13   28 1
    30   13   29 1
