@<TRIPOS>MOLECULE
*****
   26    26     0     0     0
SMALL
NO_CHARGES

@<TRIPOS>ATOM
      1 C1          1.7067   -0.6737   -0.1671 C.ar      1 <0>         0.0000
      2 C2          0.6484   -0.1486    0.5789 C.ar      1 <0>         0.0000
      3 C3          2.7396   -1.3570    0.4742 C.ar      1 <0>         0.0000
      4 C4          0.6260   -0.3265    1.9615 C.ar      1 <0>         0.0000
      5 C5          2.7478   -1.5399    1.8658 C.ar      1 <0>         0.0000
      6 C6          1.6582   -1.0245    2.5944 C.ar      1 <0>         0.0000
      7 C7          4.4355   -4.4059    4.3033 C.3       1 <0>         0.0000
      8 C8          3.9126   -2.2700    2.4709 C.3       1 <0>         0.0000
      9 N1          0.2486   -2.3778    4.4170 N.pl3     1 <0>         0.0000
     10 O1          2.7165   -1.6879    4.9667 O.2       1 <0>         0.0000
     11 O2          0.8415    0.0093    4.9249 O.2       1 <0>         0.0000
     12 O3          2.0786   -4.1786    3.1028 O.2       1 <0>         0.0000
     13 O4          4.0844   -4.8405    1.6875 O.2       1 <0>         0.0000
     14 S1          1.4516   -1.2061    4.3815 S.o2      1 <0>         0.0000
     15 S2          3.5183   -4.0493    2.7921 S.o2      1 <0>         0.0000
     16 H1          1.7314   -0.5493   -1.2461 H         1 <0>         0.0000
     17 H2         -0.1568    0.3923    0.0902 H         1 <0>         0.0000
     18 H3          3.5622   -1.7612   -0.1095 H         1 <0>         0.0000
     19 H4         -0.1890    0.0707    2.5577 H         1 <0>         0.0000
     20 H5          4.2675   -5.4636    4.5151 H         1 <0>         0.0000
     21 H6          5.4959   -4.2207    4.1225 H         1 <0>         0.0000
     22 H7          4.0393   -3.7713    5.0964 H         1 <0>         0.0000
     23 H8          4.2178   -1.8466    3.4253 H         1 <0>         0.0000
     24 H9          4.7547   -2.3060    1.7787 H         1 <0>         0.0000
     25 H10         0.6461   -3.2865    4.1595 H         1 <0>         0.0000
     26 H11        -0.1800   -2.3839    5.3433 H         1 <0>         0.0000
@<TRIPOS>BOND
     1    1    2 ar
     2    1    3 ar
     3    1   16 1
     4    2    4 ar
     5    2   17 1
     6    3    5 ar
     7    3   18 1
     8    4    6 ar
     9    4   19 1
    10    5    6 ar
    11    5    8 1
    12    6   14 1
    13    7   15 1
    14    7   20 1
    15    7   21 1
    16    7   22 1
    17    8   15 1
    18    8   23 1
    19    8   24 1
    20    9   14 1
    21    9   25 1
    22    9   26 1
    23   10   14 2
    24   11   14 2
    25   12   15 2
    26   13   15 2
