@<TRIPOS>MOLECULE
*****
   36    38     0     0     0
SMALL
NO_CHARGES

@<TRIPOS>ATOM
      1 C1         -2.1029   -4.5474    4.8588 C.ar      1 <0>         0.0000
      2 C2         -0.7386   -4.3466    5.1004 C.ar      1 <0>         0.0000
      3 C3         -2.8508   -3.5419    4.2390 C.ar      1 <0>         0.0000
      4 C4          0.2224    2.6162   -1.3566 C.ar      1 <0>         0.0000
      5 C5         -0.8667    2.7834   -0.4920 C.ar      1 <0>         0.0000
      6 C6         -0.1281   -3.1491    4.7175 C.ar      1 <0>         0.0000
      7 C7         -2.2360   -2.3439    3.8572 C.ar      1 <0>         0.0000
      8 C8          0.8240    1.3634   -1.4906 C.ar      1 <0>         0.0000
      9 C9         -1.3608    1.7090    0.2545 C.ar      1 <0>         0.0000
     10 C10        -0.8693   -2.1335    4.0922 C.ar      1 <0>         0.0000
     11 C11         0.3210    0.2943   -0.7497 C.ar      1 <0>         0.0000
     12 C12        -0.7582    0.4619    0.1260 C.ar      1 <0>         0.0000
     13 C13         0.5594   -1.9792   -0.0156 C.cat     1 <0>         0.0000
     14 C14        -0.2707   -1.5908    1.1893 C.3       1 <0>         0.0000
     15 C15        -0.1864   -0.8676    3.6238 C.3       1 <0>         0.0000
     16 C16         0.6292   -1.0984    2.3338 C.3       1 <0>         0.0000
     17 N1          0.8503   -1.0250   -0.8831 N.pl3     1 <0>         0.0000
     18 N2          0.9878   -3.2320   -0.1413 N.pl3     1 <0>         0.0000
     19 O1         -1.2562   -0.6310    0.8020 O.3       1 <0>         0.0000
     20 H1         -2.5805   -5.4742    5.1640 H         1 <0>         0.0000
     21 H2         -0.1558   -5.1161    5.5996 H         1 <0>         0.0000
     22 H3         -3.9130   -3.6851    4.0602 H         1 <0>         0.0000
     23 H4          0.6024    3.4578   -1.9262 H         1 <0>         0.0000
     24 H5         -1.3326    3.7589   -0.3931 H         1 <0>         0.0000
     25 H6          0.9287   -2.9935    4.9283 H         1 <0>         0.0000
     26 H7         -2.8261   -1.5627    3.3825 H         1 <0>         0.0000
     27 H8          1.6674    1.2222   -2.1624 H         1 <0>         0.0000
     28 H9         -2.2053    1.8226    0.9269 H         1 <0>         0.0000
     29 H10        -0.8431   -2.4604    1.5215 H         1 <0>         0.0000
     30 H11        -0.9226   -0.0785    3.4488 H         1 <0>         0.0000
     31 H12         0.5038   -0.4971    4.3882 H         1 <0>         0.0000
     32 H13         1.1404   -0.1779    2.0313 H         1 <0>         0.0000
     33 H14         1.4001   -1.8551    2.5182 H         1 <0>         0.0000
     34 H15         1.4244   -1.2221   -1.6997 H         1 <0>         0.0000
     35 H16         1.5836   -3.5439   -0.9022 H         1 <0>         0.0000
     36 H17         0.7226   -3.9260    0.5495 H         1 <0>         0.0000
@<TRIPOS>BOND
     1    1    3 ar
     2    1    2 ar
     3    1   20 1
     4    2    6 ar
     5    2   21 1
     6    3    7 ar
     7    3   22 1
     8    4    5 ar
     9    4    8 ar
    10    4   23 1
    11    5    9 ar
    12    5   24 1
    13    6   10 ar
    14    6   25 1
    15    7   10 ar
    16    7   26 1
    17    8   11 ar
    18    8   27 1
    19    9   12 ar
    20    9   28 1
    21   10   15 1
    22   11   12 ar
    23   11   17 1
    24   12   19 1
    25   13   14 1
    26   13   17 1
    27   13   18 2
    28   14   16 1
    29   14   19 1
    30   14   29 1
    31   15   16 1
    32   15   30 1
    33   15   31 1
    34   16   32 1
    35   16   33 1
    36   17   34 1
    37   18   35 1
    38   18   36 1
