@<TRIPOS>MOLECULE
*****
   25    25     0     0     0
SMALL
NO_CHARGES

@<TRIPOS>ATOM
      1 C1          4.8843    1.9890   -5.5362 C.2       1 <0>         0.0000
      2 C2          4.0098    1.1964   -4.8500 C.2       1 <0>         0.0000
      3 C3          5.6027   -0.3117   -5.1700 C.2       1 <0>         0.0000
      4 C4          2.6676    1.0943   -2.7869 C.2       1 <0>         0.0000
      5 C5          3.8770    1.0836   -0.7534 C.3       1 <0>         0.0000
      6 C6          4.6664   -3.1005   -3.4719 C.3       1 <0>         0.0000
      7 C7          2.7013    1.5993   -4.2258 C.3       1 <0>         0.0000
      8 N1          4.4187   -0.1121   -4.6715 N.2       1 <0>         0.0000
      9 N2          6.2564   -1.5385   -5.0491 N.pl3     1 <0>         0.0000
     10 O1          1.8736    0.2836   -2.3531 O.2       1 <0>         0.0000
     11 O2          7.3378   -3.3094   -3.6335 O.2       1 <0>         0.0000
     12 O3          6.3199   -1.3099   -2.4232 O.2       1 <0>         0.0000
     13 O4          3.6673    1.6433   -2.0687 O.3       1 <0>         0.0000
     14 S1          6.3260    1.0908   -5.9411 S.3       1 <0>         0.0000
     15 S2          6.2779   -2.3097   -3.4891 S.o2      1 <0>         0.0000
     16 H1          4.7831    3.0288   -5.8172 H         1 <0>         0.0000
     17 H2          4.6584    1.6936   -0.3012 H         1 <0>         0.0000
     18 H3          4.2136    0.0488   -0.8488 H         1 <0>         0.0000
     19 H4          2.9578    1.1277   -0.1659 H         1 <0>         0.0000
     20 H5          4.5970   -3.6243   -2.5166 H         1 <0>         0.0000
     21 H6          3.9133   -2.3169   -3.5544 H         1 <0>         0.0000
     22 H7          4.6244   -3.7979   -4.3081 H         1 <0>         0.0000
     23 H8          2.5923    2.6867   -4.2426 H         1 <0>         0.0000
     24 H9          1.8559    1.1467   -4.7488 H         1 <0>         0.0000
     25 H10         7.1781   -1.6208   -5.4733 H         1 <0>         0.0000
@<TRIPOS>BOND
     1    1    2 2
     2    1   14 1
     3    1   16 1
     4    2    7 1
     5    2    8 1
     6    3    8 2
     7    3    9 1
     8    3   14 1
     9    4    7 1
    10    4   10 2
    11    4   13 1
    12    5   13 1
    13    5   17 1
    14    5   18 1
    15    5   19 1
    16    6   15 1
    17    6   20 1
    18    6   21 1
    19    6   22 1
    20    7   23 1
    21    7   24 1
    22    9   15 1
    23    9   25 1
    24   11   15 2
    25   12   15 2
