@<TRIPOS>MOLECULE
*****
   34    35     0     0     0
SMALL
NO_CHARGES

@<TRIPOS>ATOM
      1 C1         -5.2027   -1.9710   -3.9095 C.2       1 <0>         0.0000
      2 C2         -4.6377   -2.9743   -3.0705 C.2       1 <0>         0.0000
      3 C3         -4.7532   -0.6798   -3.8552 C.2       1 <0>         0.0000
      4 C4         -3.6374   -2.6101   -2.2147 C.2       1 <0>         0.0000
      5 C5         -3.6998   -0.2727   -2.9496 C.2       1 <0>         0.0000
      6 C6         -2.6443   -0.9568    0.2242 C.2       1 <0>         0.0000
      7 C7         -2.2738   -0.3117    2.5568 C.3       1 <0>         0.0000
      8 C8         -0.5334    0.2363    0.9222 C.3       1 <0>         0.0000
      9 C9         -1.1956   -0.8574    3.4891 C.3       1 <0>         0.0000
     10 C10         0.5124   -0.3203    1.8903 C.3       1 <0>         0.0000
     11 C11         1.0974   -0.6069    4.2139 C.3       1 <0>         0.0000
     12 C12        -2.1131   -0.9798   -1.2223 C.3       1 <0>         0.0000
     13 N1         -3.1600   -1.3293   -2.1681 N.am      1 <0>         0.0000
     14 N2         -1.8294   -0.3945    1.1642 N.am      1 <0>         0.0000
     15 N3          0.0745   -0.1617    3.2745 N.3       1 <0>         0.0000
     16 O1         -3.2602    0.8787   -2.8326 O.2       1 <0>         0.0000
     17 O2         -3.7348   -1.4586    0.4954 O.2       1 <0>         0.0000
     18 H1         -6.0025   -2.2355   -4.5977 H         1 <0>         0.0000
     19 H2         -4.9892   -3.9991   -3.0870 H         1 <0>         0.0000
     20 H3         -5.1715    0.1049   -4.4763 H         1 <0>         0.0000
     21 H4         -3.1748   -3.3099   -1.5283 H         1 <0>         0.0000
     22 H5         -3.1997   -0.8777    2.6506 H         1 <0>         0.0000
     23 H6         -2.4744    0.7389    2.8034 H         1 <0>         0.0000
     24 H7         -0.6253    1.3203    1.0698 H         1 <0>         0.0000
     25 H8         -0.2032    0.0614   -0.1002 H         1 <0>         0.0000
     26 H9         -1.5097   -0.7038    4.5270 H         1 <0>         0.0000
     27 H10        -1.0929   -1.9482    3.3271 H         1 <0>         0.0000
     28 H11         0.7027   -1.3840    1.6421 H         1 <0>         0.0000
     29 H12         1.4512    0.2266    1.7509 H         1 <0>         0.0000
     30 H13         0.7569   -0.4301    5.2390 H         1 <0>         0.0000
     31 H14         2.0166   -0.0332    4.0584 H         1 <0>         0.0000
     32 H15         1.3394   -1.6817    4.1117 H         1 <0>         0.0000
     33 H16        -1.2944   -1.7037   -1.2975 H         1 <0>         0.0000
     34 H17        -1.7455   -0.0001   -1.5254 H         1 <0>         0.0000
@<TRIPOS>BOND
     1    1    3 2
     2    1    2 1
     3    1   18 1
     4    2    4 2
     5    2   19 1
     6    3    5 1
     7    3   20 1
     8    4   13 1
     9    4   21 1
    10    5   13 am
    11    5   16 2
    12    6   12 1
    13    6   14 am
    14    6   17 2
    15    7    9 1
    16    7   14 1
    17    7   22 1
    18    7   23 1
    19    8   10 1
    20    8   14 1
    21    8   24 1
    22    8   25 1
    23    9   15 1
    24    9   26 1
    25    9   27 1
    26   10   15 1
    27   10   28 1
    28   10   29 1
    29   11   15 1
    30   11   30 1
    31   11   31 1
    32   11   32 1
    33   12   13 1
    34   12   33 1
    35   12   34 1
