@<TRIPOS>MOLECULE
*****
   34    36     0     0     0
SMALL
NO_CHARGES

@<TRIPOS>ATOM
      1 C1          3.3891   -4.4940    0.7280 C.2       1 <0>         0.0000
      2 C2          3.7704   -5.6431    1.3842 C.2       1 <0>         0.0000
      3 C3         -0.5423   -4.6989    1.8202 C.ar      1 <0>         0.0000
      4 C4          1.9799   -4.3313    0.9697 C.ar      1 <0>         0.0000
      5 C5          1.5629   -5.4126    1.7757 C.ar      1 <0>         0.0000
      6 C6          0.9568   -3.4102    0.6246 C.ar      1 <0>         0.0000
      7 C7         -0.3041    0.7281   -1.8464 C.3       1 <0>         0.0000
      8 C8          0.6417   -0.4624   -1.6503 C.3       1 <0>         0.0000
      9 C9         -0.3955    1.5743   -0.5750 C.3       1 <0>         0.0000
     10 C10         0.1349   -0.3245    0.8148 C.3       1 <0>         0.0000
     11 C11         0.2459   -1.2546   -0.4028 C.3       1 <0>         0.0000
     12 C12        -1.0287    1.5638    1.7577 C.3       1 <0>         0.0000
     13 N1          0.3147   -5.6379    2.2238 N.ar      1 <0>         0.0000
     14 N2         -0.2984   -3.6113    1.0631 N.ar      1 <0>         0.0000
     15 N3          2.6651   -6.1975    2.0179 N.pl3     1 <0>         0.0000
     16 N4         -0.8144    0.7570    0.5632 N.3       1 <0>         0.0000
     17 N5          1.2100   -2.3273   -0.1705 N.pl3     1 <0>         0.0000
     18 H1          4.0485   -3.8635    0.1452 H         1 <0>         0.0000
     19 H2          4.7408   -6.1159    1.4511 H         1 <0>         0.0000
     20 H3         -1.5744   -4.8185    2.1456 H         1 <0>         0.0000
     21 H4          0.0380    1.3511   -2.6804 H         1 <0>         0.0000
     22 H5         -1.3061    0.3626   -2.0985 H         1 <0>         0.0000
     23 H6          0.6371   -1.1188   -2.5272 H         1 <0>         0.0000
     24 H7          1.6705   -0.0900   -1.5291 H         1 <0>         0.0000
     25 H8          0.5850    2.0583   -0.3811 H         1 <0>         0.0000
     26 H9         -1.1277    2.3774   -0.7126 H         1 <0>         0.0000
     27 H10        -0.2093   -0.9090    1.6722 H         1 <0>         0.0000
     28 H11         1.1454    0.0680    1.0582 H         1 <0>         0.0000
     29 H12        -0.7289   -1.7218   -0.5563 H         1 <0>         0.0000
     30 H13        -1.3910    0.9280    2.5716 H         1 <0>         0.0000
     31 H14        -1.7887    2.3265    1.5583 H         1 <0>         0.0000
     32 H15        -0.1103    2.0763    2.1041 H         1 <0>         0.0000
     33 H16         2.6477   -7.0435    2.5710 H         1 <0>         0.0000
     34 H17         2.1850   -2.1051   -0.3238 H         1 <0>         0.0000
@<TRIPOS>BOND
     1    1    2 2
     2    1    4 1
     3    1   18 1
     4    2   15 1
     5    2   19 1
     6    3   13 ar
     7    3   14 ar
     8    3   20 1
     9    4    5 ar
    10    4    6 ar
    11    5   13 ar
    12    5   15 1
    13    6   14 ar
    14    6   17 1
    15    7    8 1
    16    7    9 1
    17    7   21 1
    18    7   22 1
    19    8   11 1
    20    8   23 1
    21    8   24 1
    22    9   16 1
    23    9   25 1
    24    9   26 1
    25   10   11 1
    26   10   16 1
    27   10   27 1
    28   10   28 1
    29   11   17 1
    30   11   29 1
    31   12   16 1
    32   12   30 1
    33   12   31 1
    34   12   32 1
    35   15   33 1
    36   17   34 1
