@<TRIPOS>MOLECULE
*****
   28    27     0     0     0
SMALL
NO_CHARGES

@<TRIPOS>ATOM
      1 C1         -2.0813   -1.3798   -0.0238 C.2       1 <0>         0.0000
      2 C2         -4.4984   -2.8461    1.6378 C.2       1 <0>         0.0000
      3 C3         -0.6418   -2.4069   -1.7909 C.3       1 <0>         0.0000
      4 C4         -0.1999   -0.0400   -0.9763 C.3       1 <0>         0.0000
      5 C5         -4.1095   -0.3673    2.1260 C.3       1 <0>         0.0000
      6 C6         -5.8962   -3.7642   -0.1486 C.3       1 <0>         0.0000
      7 C7         -0.6624   -1.4531   -0.5857 C.3       1 <0>         0.0000
      8 C8         -3.4781   -1.7646    2.0574 C.3       1 <0>         0.0000
      9 N1         -4.9424   -2.7883    0.3594 N.am      1 <0>         0.0000
     10 N2         -2.2336   -1.7869    1.2657 N.am      1 <0>         0.0000
     11 O1         -3.0233   -0.9730   -0.7196 O.2       1 <0>         0.0000
     12 O2         -4.8936   -3.6780    2.4592 O.2       1 <0>         0.0000
     13 H1         -1.3248   -2.0482   -2.5657 H         1 <0>         0.0000
     14 H2          0.3668   -2.4620   -2.2133 H         1 <0>         0.0000
     15 H3         -0.9484   -3.4192   -1.5069 H         1 <0>         0.0000
     16 H4         -0.8754    0.3828   -1.7249 H         1 <0>         0.0000
     17 H5          0.8102   -0.0751   -1.3971 H         1 <0>         0.0000
     18 H6         -0.1860    0.6310   -0.1109 H         1 <0>         0.0000
     19 H7         -4.4131   -0.0141    1.1403 H         1 <0>         0.0000
     20 H8         -4.9887   -0.4019    2.7764 H         1 <0>         0.0000
     21 H9         -3.3937    0.3458    2.5471 H         1 <0>         0.0000
     22 H10        -5.4826   -4.7780   -0.1157 H         1 <0>         0.0000
     23 H11        -6.1391   -3.5088   -1.1820 H         1 <0>         0.0000
     24 H12        -6.8119   -3.7554    0.4498 H         1 <0>         0.0000
     25 H13         0.0145   -1.8436    0.1851 H         1 <0>         0.0000
     26 H14        -3.1855   -2.0637    3.0649 H         1 <0>         0.0000
     27 H15        -4.5208   -2.1015   -0.2641 H         1 <0>         0.0000
     28 H16        -1.4197   -2.1755    1.7221 H         1 <0>         0.0000
@<TRIPOS>BOND
     1    1    7 1
     2    1   10 am
     3    1   11 2
     4    2    8 1
     5    2    9 am
     6    2   12 2
     7    3    7 1
     8    3   13 1
     9    3   14 1
    10    3   15 1
    11    4    7 1
    12    4   16 1
    13    4   17 1
    14    4   18 1
    15    5    8 1
    16    5   19 1
    17    5   20 1
    18    5   21 1
    19    6    9 1
    20    6   22 1
    21    6   23 1
    22    6   24 1
    23    7   25 1
    24    8   10 1
    25    8   26 1
    26    9   27 1
    27   10   28 1
