@<TRIPOS>MOLECULE
*****
   23    23     0     0     0
SMALL
NO_CHARGES

@<TRIPOS>ATOM
      1 C1          1.5419   -2.1096   -0.7875 C.2       1 <0>         0.0000
      2 C2          1.9477    0.0021   -0.8106 C.2       1 <0>         0.0000
      3 C3          0.6291   -0.1329   -0.3703 C.2       1 <0>         0.0000
      4 C4          2.7519    1.2371   -1.0622 C.2       1 <0>         0.0000
      5 C5         -0.5428    0.7211   -0.0353 C.2       1 <0>         0.0000
      6 C6          3.5156    3.3810   -0.1359 C.3       1 <0>         0.0000
      7 C7         -1.4973    2.9620    0.1991 C.3       1 <0>         0.0000
      8 N1          2.4942   -1.2354   -1.0655 N.2       1 <0>         0.0000
      9 N2          0.4035   -1.4930   -0.3692 N.pl3     1 <0>         0.0000
     10 N3          2.6438    2.2063   -0.0697 N.am      1 <0>         0.0000
     11 N4         -0.3785    2.0665   -0.0632 N.am      1 <0>         0.0000
     12 O1          3.4164    1.4073   -2.0741 O.2       1 <0>         0.0000
     13 O2         -1.6223    0.1787    0.2434 O.2       1 <0>         0.0000
     14 H1          1.6328   -3.1851   -0.8687 H         1 <0>         0.0000
     15 H2          4.5699    3.1171    0.0056 H         1 <0>         0.0000
     16 H3          3.2097    4.0916    0.6356 H         1 <0>         0.0000
     17 H4          3.4121    3.8465   -1.1168 H         1 <0>         0.0000
     18 H5         -2.2577    2.8836   -0.5848 H         1 <0>         0.0000
     19 H6         -1.1222    3.9868    0.2325 H         1 <0>         0.0000
     20 H7         -1.9687    2.7173    1.1548 H         1 <0>         0.0000
     21 H8         -0.5016   -1.8884   -0.1324 H         1 <0>         0.0000
     22 H9          2.4579    1.8410    0.8588 H         1 <0>         0.0000
     23 H10         0.5384    2.4449   -0.2806 H         1 <0>         0.0000
@<TRIPOS>BOND
     1    1    8 2
     2    1    9 1
     3    1   14 1
     4    2    3 2
     5    2    4 1
     6    2    8 1
     7    3    5 1
     8    3    9 1
     9    4   10 am
    10    4   12 2
    11    5   11 am
    12    5   13 2
    13    6   10 1
    14    6   15 1
    15    6   16 1
    16    6   17 1
    17    7   11 1
    18    7   18 1
    19    7   19 1
    20    7   20 1
    21    9   21 1
    22   10   22 1
    23   11   23 1
