@<TRIPOS>MOLECULE
*****
   26    27     0     0     0
SMALL
NO_CHARGES

@<TRIPOS>ATOM
      1 C1         -0.5162   -2.0136    0.1292 C.ar      1 <0>         0.0000
      2 C2          0.2951   -1.0405   -0.5040 C.ar      1 <0>         0.0000
      3 C3         -0.0011   -3.2573    0.4396 C.ar      1 <0>         0.0000
      4 C4          1.6095   -1.3286   -0.8167 C.ar      1 <0>         0.0000
      5 C5          1.9076   -4.8566    0.4439 C.ar      1 <0>         0.0000
      6 C6          3.2101   -5.1351    0.1201 C.ar      1 <0>         0.0000
      7 C7          1.3448   -3.5839    0.1291 C.ar      1 <0>         0.0000
      8 C8          2.1571   -2.6000   -0.5094 C.ar      1 <0>         0.0000
      9 C9          4.0472   -4.1817   -0.5366 C.ar      1 <0>         0.0000
     10 C10         3.5207   -2.9131   -0.8291 C.ar      1 <0>         0.0000
     11 C11         5.4456   -4.4715   -0.9273 C.2       1 <0>         0.0000
     12 C12         7.2694   -6.0888   -1.2077 C.3       1 <0>         0.0000
     13 N1          5.9271   -5.7337   -0.7616 N.am      1 <0>         0.0000
     14 O1          6.1941   -3.5829   -1.4016 O.2       1 <0>         0.0000
     15 O2          4.2415   -1.9435   -1.4156 O.3       1 <0>         0.0000
     16 H1         -1.5491   -1.7773    0.3722 H         1 <0>         0.0000
     17 H2         -0.1204   -0.0652   -0.7424 H         1 <0>         0.0000
     18 H3         -0.6235   -4.0039    0.9274 H         1 <0>         0.0000
     19 H4          2.2424   -0.5923   -1.3002 H         1 <0>         0.0000
     20 H5          1.2952   -5.5978    0.9501 H         1 <0>         0.0000
     21 H6          3.6118   -6.1046    0.4019 H         1 <0>         0.0000
     22 H7          7.3415   -6.1085   -2.3012 H         1 <0>         0.0000
     23 H8          7.5212   -7.0743   -0.8101 H         1 <0>         0.0000
     24 H9          7.9854   -5.3557   -0.8327 H         1 <0>         0.0000
     25 H10         5.2796   -6.4793   -0.5563 H         1 <0>         0.0000
     26 H11         5.1637   -2.3185   -1.5370 H         1 <0>         0.0000
@<TRIPOS>BOND
     1    1    2 ar
     2    1    3 ar
     3    1   16 1
     4    2    4 ar
     5    2   17 1
     6    3    7 ar
     7    3   18 1
     8    4    8 ar
     9    4   19 1
    10    5    6 ar
    11    5    7 ar
    12    5   20 1
    13    6    9 ar
    14    6   21 1
    15    7    8 ar
    16    8   10 ar
    17    9   10 ar
    18    9   11 1
    19   10   15 1
    20   11   13 am
    21   11   14 2
    22   12   13 1
    23   12   22 1
    24   12   23 1
    25   12   24 1
    26   13   25 1
    27   15   26 1
