@<TRIPOS>MOLECULE
*****
   28    29     0     0     0
SMALL
NO_CHARGES

@<TRIPOS>ATOM
      1 C1          2.4589   -1.4145   -1.5026 C.ar      1 <0>         0.0000
      2 C2          1.3147   -1.0899   -0.7529 C.ar      1 <0>         0.0000
      3 C3          2.7096   -2.7400   -1.8257 C.ar      1 <0>         0.0000
      4 C4          0.4353   -2.0802   -0.3338 C.ar      1 <0>         0.0000
      5 C5          0.0950   -5.7355   -0.5858 C.2       1 <0>         0.0000
      6 C6          1.8375   -3.7644   -1.4153 C.ar      1 <0>         0.0000
      7 C7          1.1836   -6.1458   -1.3117 C.2       1 <0>         0.0000
      8 C8          0.6882   -3.4289   -0.6611 C.ar      1 <0>         0.0000
      9 C9          2.1461   -5.1640   -1.7837 C.2       1 <0>         0.0000
     10 C10         1.2727   -7.6268   -1.5544 C.2       1 <0>         0.0000
     11 C11        -1.3740   -4.1360    0.5266 C.3       1 <0>         0.0000
     12 C12         2.5457   -9.4479   -2.5726 C.3       1 <0>         0.0000
     13 N1         -0.1765   -4.4477   -0.2546 N.pl3     1 <0>         0.0000
     14 N2          2.3449   -8.0409   -2.2691 N.am      1 <0>         0.0000
     15 O1          3.1666   -5.4373   -2.4507 O.2       1 <0>         0.0000
     16 O2          0.4088   -8.4036   -1.1188 O.2       1 <0>         0.0000
     17 H1          3.1392   -0.6313   -1.8246 H         1 <0>         0.0000
     18 H2          1.1094   -0.0544   -0.4948 H         1 <0>         0.0000
     19 H3          3.5814   -3.0323   -2.4026 H         1 <0>         0.0000
     20 H4         -0.4395   -1.8036    0.2428 H         1 <0>         0.0000
     21 H5         -0.6073   -6.4902   -0.2464 H         1 <0>         0.0000
     22 H6         -2.0389   -3.4711   -0.0328 H         1 <0>         0.0000
     23 H7         -1.1048   -3.6611    1.4748 H         1 <0>         0.0000
     24 H8         -1.9052   -5.0628    0.7390 H         1 <0>         0.0000
     25 H9          2.6151  -10.0401   -1.6543 H         1 <0>         0.0000
     26 H10         3.4730   -9.5537   -3.1393 H         1 <0>         0.0000
     27 H11         1.7146   -9.8447   -3.1650 H         1 <0>         0.0000
     28 H12         2.9963   -7.3215   -2.5831 H         1 <0>         0.0000
@<TRIPOS>BOND
     1    1    2 ar
     2    1    3 ar
     3    1   17 1
     4    2    4 ar
     5    2   18 1
     6    3    6 ar
     7    3   19 1
     8    4    8 ar
     9    4   20 1
    10    5    7 2
    11    5   13 1
    12    5   21 1
    13    6    8 ar
    14    6    9 1
    15    7    9 1
    16    7   10 1
    17    8   13 1
    18    9   15 2
    19   10   14 am
    20   10   16 2
    21   11   13 1
    22   11   22 1
    23   11   23 1
    24   11   24 1
    25   12   14 1
    26   12   25 1
    27   12   26 1
    28   12   27 1
    29   14   28 1
