@<TRIPOS>MOLECULE
*****
   40    42     0     0     0
SMALL
NO_CHARGES

@<TRIPOS>ATOM
      1 C1         -0.2393   -0.2920    4.5357 C.2       1 <0>         0.0000
      2 C2          1.1288   -0.4221    4.5569 C.2       1 <0>         0.0000
      3 C3          0.5161   -1.1451    2.6316 C.2       1 <0>         0.0000
      4 C4         -1.0682    0.1741    5.6872 C.3       1 <0>         0.0000
      5 C5          0.2644   -0.6693    0.2754 C.3       1 <0>         0.0000
      6 C6          1.6127   -2.5397    1.0059 C.3       1 <0>         0.0000
      7 C7          0.0202   -1.3692   -1.0567 C.3       1 <0>         0.0000
      8 C8          1.3572   -3.2271   -0.3308 C.3       1 <0>         0.0000
      9 C9          1.1447    0.7623    6.5773 C.3       1 <0>         0.0000
     10 C10        -1.9948   -0.9763    2.8254 C.3       1 <0>         0.0000
     11 C11         3.2447    0.4298    5.3730 C.3       1 <0>         0.0000
     12 C12         0.9540   -2.8825   -2.6877 C.3       1 <0>         0.0000
     13 N1          1.6010   -0.9345    3.3692 N.2       1 <0>         0.0000
     14 N2         -0.6357   -0.7893    3.2921 N.pl3     1 <0>         0.0000
     15 N3         -0.1644    0.1649    6.8549 N.3       1 <0>         0.0000
     16 N4          1.9150   -0.0905    5.6705 N.pl3     1 <0>         0.0000
     17 N5          0.4708   -1.6745    1.3351 N.pl3     1 <0>         0.0000
     18 N6          1.1425   -2.2426   -1.3928 N.3       1 <0>         0.0000
     19 H1         -1.5116    1.1693    5.4909 H         1 <0>         0.0000
     20 H2         -1.8994   -0.5122    5.8992 H         1 <0>         0.0000
     21 H3          1.1421   -0.0087    0.1921 H         1 <0>         0.0000
     22 H4         -0.6019   -0.0520    0.5294 H         1 <0>         0.0000
     23 H5          1.7226   -3.2835    1.7983 H         1 <0>         0.0000
     24 H6          2.5457   -1.9605    0.9560 H         1 <0>         0.0000
     25 H7         -0.9313   -1.9345   -0.9969 H         1 <0>         0.0000
     26 H8         -0.0887   -0.6160   -1.8452 H         1 <0>         0.0000
     27 H9          2.2290   -3.8372   -0.5917 H         1 <0>         0.0000
     28 H10         0.4884   -3.9069   -0.2300 H         1 <0>         0.0000
     29 H11         1.0536    1.7825    6.1394 H         1 <0>         0.0000
     30 H12         1.6887    0.8445    7.5233 H         1 <0>         0.0000
     31 H13        -2.4437   -0.0333    2.4910 H         1 <0>         0.0000
     32 H14        -1.9778   -1.6802    1.9913 H         1 <0>         0.0000
     33 H15        -2.6116   -1.3918    3.6279 H         1 <0>         0.0000
     34 H16         3.8188    0.5017    6.3026 H         1 <0>         0.0000
     35 H17         3.2191    1.4249    4.8944 H         1 <0>         0.0000
     36 H18         3.7529   -0.2594    4.6976 H         1 <0>         0.0000
     37 H19         0.8443   -2.1195   -3.4655 H         1 <0>         0.0000
     38 H20         0.0626   -3.5384   -2.7209 H         1 <0>         0.0000
     39 H21         1.8320   -3.4899   -2.9305 H         1 <0>         0.0000
     40 H22        -0.5962    0.6639    7.6278 H         1 <0>         0.0000
@<TRIPOS>BOND
     1    1    2 2
     2    1    4 1
     3    1   14 1
     4    2   13 1
     5    2   16 1
     6    3   13 2
     7    3   14 1
     8    3   17 1
     9    4   15 1
    10    4   19 1
    11    4   20 1
    12    5    7 1
    13    5   17 1
    14    5   21 1
    15    5   22 1
    16    6    8 1
    17    6   17 1
    18    6   23 1
    19    6   24 1
    20    7   18 1
    21    7   25 1
    22    7   26 1
    23    8   18 1
    24    8   27 1
    25    8   28 1
    26    9   15 1
    27    9   16 1
    28    9   29 1
    29    9   30 1
    30   10   14 1
    31   10   31 1
    32   10   32 1
    33   10   33 1
    34   11   16 1
    35   11   34 1
    36   11   35 1
    37   11   36 1
    38   12   18 1
    39   12   37 1
    40   12   38 1
    41   12   39 1
    42   15   40 1
