@<TRIPOS>MOLECULE
*****
   60    63     0     0     0
SMALL
NO_CHARGES

@<TRIPOS>ATOM
      1 C1          5.7117   -5.9371   -1.2490 C.1       1 <0>         0.0000
      2 C2          9.1848   -4.9662   -0.3377 C.ar      1 <0>         0.0000
      3 C3          8.9825   -3.7014    0.2255 C.ar      1 <0>         0.0000
      4 C4          8.0946   -5.6792   -0.8304 C.ar      1 <0>         0.0000
      5 C5          7.6994   -3.1565    0.2878 C.ar      1 <0>         0.0000
      6 C6          4.8147   -2.6176    1.0683 C.ar      1 <0>         0.0000
      7 C7          4.3675   -3.2142   -1.2262 C.ar      1 <0>         0.0000
      8 C8          3.5639   -2.0189    1.1614 C.ar      1 <0>         0.0000
      9 C9          3.1185   -2.6014   -1.1377 C.ar      1 <0>         0.0000
     10 C10         1.4012   -0.0565   -1.9780 C.ar      1 <0>         0.0000
     11 C11        -1.2792   -0.6294   -2.4548 C.ar      1 <0>         0.0000
     12 C12         6.8005   -5.1310   -0.7666 C.ar      1 <0>         0.0000
     13 C13         5.2379   -3.2304   -0.1266 C.ar      1 <0>         0.0000
     14 C14         6.5828   -3.8487   -0.2077 C.ar      1 <0>         0.0000
     15 C15         2.6956   -1.9933    0.0555 C.ar      1 <0>         0.0000
     16 C16         0.6912   -0.8645   -1.0792 C.ar      1 <0>         0.0000
     17 C17        -0.6597   -1.1662   -1.3249 C.ar      1 <0>         0.0000
     18 C18         0.7779    0.4794   -3.1030 C.ar      1 <0>         0.0000
     19 C19        -0.5840    0.2023   -3.3364 C.ar      1 <0>         0.0000
     20 C20         1.3535   -1.3643    0.1526 C.2       1 <0>         0.0000
     21 C21        -0.5996    0.1881    2.5494 C.2       1 <0>         0.0000
     22 C22        -1.3853   -2.0652   -0.3606 C.3       1 <0>         0.0000
     23 C23        -1.6235   -1.4060    1.0056 C.3       1 <0>         0.0000
     24 C24        -2.0468   -2.4446    2.0510 C.3       1 <0>         0.0000
     25 C25         0.4861    1.2796    4.4471 C.3       1 <0>         0.0000
     26 C26         1.7783    0.7232   -5.2343 C.3       1 <0>         0.0000
     27 C27        -1.4254    2.1211   -4.4470 C.3       1 <0>         0.0000
     28 N1          4.8608   -6.6244   -1.6514 N.1       1 <0>         0.0000
     29 N2          0.8428   -1.2653    1.3409 N.2       1 <0>         0.0000
     30 N3         -0.4227   -0.6420    1.4294 N.am      1 <0>         0.0000
     31 N4          0.5574    0.5543    3.1878 N.am      1 <0>         0.0000
     32 O1         -1.7164    0.6021    2.8708 O.2       1 <0>         0.0000
     33 O2          1.5041    1.2974   -3.9448 O.3       1 <0>         0.0000
     34 O3         -1.2418    0.6927   -4.4417 O.3       1 <0>         0.0000
     35 H1         10.1821   -5.3931   -0.3899 H         1 <0>         0.0000
     36 H2          9.8267   -3.1347    0.6089 H         1 <0>         0.0000
     37 H3          8.2276   -6.6678   -1.2588 H         1 <0>         0.0000
     38 H4          7.5568   -2.1634    0.7037 H         1 <0>         0.0000
     39 H5          5.4656   -2.6369    1.9384 H         1 <0>         0.0000
     40 H6          4.6682   -3.6702   -2.1639 H         1 <0>         0.0000
     41 H7          3.2415   -1.5726    2.0958 H         1 <0>         0.0000
     42 H8          2.4634   -2.6052   -2.0026 H         1 <0>         0.0000
     43 H9          2.4486    0.1775   -1.8125 H         1 <0>         0.0000
     44 H10        -2.3238   -0.8399   -2.6690 H         1 <0>         0.0000
     45 H11        -2.3553   -2.3661   -0.7660 H         1 <0>         0.0000
     46 H12        -0.8066   -2.9855   -0.2159 H         1 <0>         0.0000
     47 H13        -2.4055   -0.6512    0.9072 H         1 <0>         0.0000
     48 H14        -1.2410   -3.1658    2.2242 H         1 <0>         0.0000
     49 H15        -2.9292   -2.9936    1.7034 H         1 <0>         0.0000
     50 H16        -2.2988   -1.9565    2.9946 H         1 <0>         0.0000
     51 H17         1.4658    1.7148    4.6615 H         1 <0>         0.0000
     52 H18         0.1863    0.6382    5.2867 H         1 <0>         0.0000
     53 H19        -0.2469    2.0822    4.3555 H         1 <0>         0.0000
     54 H20         2.3575    1.4692   -5.7819 H         1 <0>         0.0000
     55 H21         0.8526    0.4997   -5.7734 H         1 <0>         0.0000
     56 H22         2.3717   -0.1927   -5.1242 H         1 <0>         0.0000
     57 H23        -1.9680    2.3509   -5.3657 H         1 <0>         0.0000
     58 H24        -0.4650    2.6441   -4.4371 H         1 <0>         0.0000
     59 H25        -2.0229    2.4277   -3.5805 H         1 <0>         0.0000
     60 H26         1.3604   -0.0342    3.0025 H         1 <0>         0.0000
@<TRIPOS>BOND
     1    1   12 1
     2    1   28 3
     3    2    3 ar
     4    2    4 ar
     5    2   35 1
     6    3    5 ar
     7    3   36 1
     8    4   12 ar
     9    4   37 1
    10    5   14 ar
    11    5   38 1
    12    6    8 ar
    13    6   13 ar
    14    6   39 1
    15    7    9 ar
    16    7   13 ar
    17    7   40 1
    18    8   15 ar
    19    8   41 1
    20    9   15 ar
    21    9   42 1
    22   10   16 ar
    23   10   18 ar
    24   10   43 1
    25   11   17 ar
    26   11   19 ar
    27   11   44 1
    28   12   14 ar
    29   13   14 1
    30   15   20 1
    31   16   17 ar
    32   16   20 1
    33   17   22 1
    34   18   19 ar
    35   18   33 1
    36   19   34 1
    37   20   29 2
    38   21   30 am
    39   21   31 am
    40   21   32 2
    41   22   23 1
    42   22   45 1
    43   22   46 1
    44   23   24 1
    45   23   30 1
    46   23   47 1
    47   24   48 1
    48   24   49 1
    49   24   50 1
    50   25   31 1
    51   25   51 1
    52   25   52 1
    53   25   53 1
    54   26   33 1
    55   26   54 1
    56   26   55 1
    57   26   56 1
    58   27   34 1
    59   27   57 1
    60   27   58 1
    61   27   59 1
    62   29   30 1
    63   31   60 1
