@<TRIPOS>MOLECULE
*****
   62    65     0     0     0
SMALL
NO_CHARGES

@<TRIPOS>ATOM
      1 C1         -5.5971   -3.3155   -4.8255 C.ar      1 <0>         0.0000
      2 C2         -5.8386   -1.8918   -2.8720 C.ar      1 <0>         0.0000
      3 C3         -4.2930   -2.8564   -5.0048 C.ar      1 <0>         0.0000
      4 C4         -4.5448   -1.4191   -3.0503 C.ar      1 <0>         0.0000
      5 C5         -9.2373   -5.5338   -1.1467 C.ar      1 <0>         0.0000
      6 C6         -6.3613   -2.8732   -3.7325 C.ar      1 <0>         0.0000
      7 C7         -3.7689   -1.9309   -4.0976 C.ar      1 <0>         0.0000
      8 C8         -8.3151   -5.5913   -0.1120 C.ar      1 <0>         0.0000
      9 C9         -7.1252   -4.8366   -0.2551 C.ar      1 <0>         0.0000
     10 C10        -7.8913   -4.1270   -2.2978 C.ar      1 <0>         0.0000
     11 C11        -4.0346   -4.6923   -0.7216 C.3       1 <0>         0.0000
     12 C12        -4.0348   -4.0368    1.7015 C.3       1 <0>         0.0000
     13 C13        -2.8145   -3.8046   -0.9921 C.3       1 <0>         0.0000
     14 C14        -2.7823   -3.1721    1.4683 C.3       1 <0>         0.0000
     15 C15         1.5571   -2.6941   -0.9861 C.3       1 <0>         0.0000
     16 C16         0.3570   -0.6025   -0.3125 C.3       1 <0>         0.0000
     17 C17         0.2314   -3.4466   -0.9669 C.3       1 <0>         0.0000
     18 C18        -0.9562   -1.3742   -0.2723 C.3       1 <0>         0.0000
     19 C19        -4.8758   -4.1061    0.4234 C.3       1 <0>         0.0000
     20 C20        -1.9686   -3.6886    0.2740 C.3       1 <0>         0.0000
     21 C21         1.3482   -1.2069   -1.3037 C.3       1 <0>         0.0000
     22 N1         -9.0401   -4.8129   -2.2649 N.ar      1 <0>         0.0000
     23 N2         -6.9519   -4.0815   -1.3500 N.ar      1 <0>         0.0000
     24 N3         -1.7860   -1.1460   -5.7509 N.pl3     1 <0>         0.0000
     25 N4         -7.6330   -3.4201   -3.4727 N.pl3     1 <0>         0.0000
     26 N5         -6.1140   -4.8411    0.6569 N.pl3     1 <0>         0.0000
     27 N6         -0.7099   -2.8362    0.0574 N.4       1 <0>         0.0000
     28 O1         -1.8336   -0.3665   -3.2413 O.2       1 <0>         0.0000
     29 O2         -1.2202   -2.7216   -3.8868 O.2       1 <0>         0.0000
     30 O3          2.5540   -0.4651   -1.1694 O.3       1 <0>         0.0000
     31 S1         -2.0406   -1.5199   -4.1361 S.o2      1 <0>         0.0000
     32 Br1        -8.6167   -6.6678    1.4374 Br        1 <0>         0.0000
     33 H1         -6.0048   -4.0595   -5.5046 H         1 <0>         0.0000
     34 H2         -6.4529   -1.5169   -2.0621 H         1 <0>         0.0000
     35 H3         -3.6851   -3.2303   -5.8223 H         1 <0>         0.0000
     36 H4         -4.1362   -0.6558   -2.3962 H         1 <0>         0.0000
     37 H5        -10.1660   -6.0968   -1.0867 H         1 <0>         0.0000
     38 H6         -4.6376   -4.7497   -1.6274 H         1 <0>         0.0000
     39 H7         -3.7219   -5.7118   -0.4616 H         1 <0>         0.0000
     40 H8         -3.7411   -5.0489    2.0091 H         1 <0>         0.0000
     41 H9         -4.6164   -3.6044    2.5215 H         1 <0>         0.0000
     42 H10        -2.2390   -4.2077   -1.8270 H         1 <0>         0.0000
     43 H11        -3.1664   -2.8156   -1.2964 H         1 <0>         0.0000
     44 H12        -3.1125   -2.1456    1.2831 H         1 <0>         0.0000
     45 H13        -2.1664   -3.1579    2.3760 H         1 <0>         0.0000
     46 H14         2.0777   -2.7847   -0.0242 H         1 <0>         0.0000
     47 H15         2.1956   -3.1659   -1.7404 H         1 <0>         0.0000
     48 H16         0.1323    0.4285   -0.5974 H         1 <0>         0.0000
     49 H17         0.8232   -0.5680    0.6806 H         1 <0>         0.0000
     50 H18        -0.2692   -3.3796   -1.9331 H         1 <0>         0.0000
     51 H19         0.3589   -4.4975   -0.6973 H         1 <0>         0.0000
     52 H20        -1.6201   -0.9702    0.4904 H         1 <0>         0.0000
     53 H21        -1.4558   -1.3380   -1.2379 H         1 <0>         0.0000
     54 H22        -5.1586   -3.0868    0.1343 H         1 <0>         0.0000
     55 H23        -1.5688   -4.6774    0.5261 H         1 <0>         0.0000
     56 H24         0.9342   -1.1105   -2.3172 H         1 <0>         0.0000
     57 H25        -2.0329   -0.1774   -5.9572 H         1 <0>         0.0000
     58 H26        -0.8185   -1.3473   -6.0057 H         1 <0>         0.0000
     59 H27        -8.1836   -3.7461   -4.2595 H         1 <0>         0.0000
     60 H28        -6.2013   -5.4567    1.4556 H         1 <0>         0.0000
     61 H29        -0.2105   -2.8464    0.9539 H         1 <0>         0.0000
     62 H30         3.1472   -0.6785   -1.9071 H         1 <0>         0.0000
@<TRIPOS>BOND
     1    1    3 ar
     2    1    6 ar
     3    1   33 1
     4    2    4 ar
     5    2    6 ar
     6    2   34 1
     7    3    7 ar
     8    3   35 1
     9    4    7 ar
    10    4   36 1
    11    5    8 ar
    12    5   22 ar
    13    5   37 1
    14    6   25 1
    15    7   31 1
    16    8    9 ar
    17    8   32 1
    18    9   23 ar
    19    9   26 1
    20   10   22 ar
    21   10   23 ar
    22   10   25 1
    23   11   13 1
    24   11   19 1
    25   11   38 1
    26   11   39 1
    27   12   14 1
    28   12   19 1
    29   12   40 1
    30   12   41 1
    31   13   20 1
    32   13   42 1
    33   13   43 1
    34   14   20 1
    35   14   44 1
    36   14   45 1
    37   15   17 1
    38   15   21 1
    39   15   46 1
    40   15   47 1
    41   16   18 1
    42   16   21 1
    43   16   48 1
    44   16   49 1
    45   17   27 1
    46   17   50 1
    47   17   51 1
    48   18   27 1
    49   18   52 1
    50   18   53 1
    51   19   26 1
    52   19   54 1
    53   20   27 1
    54   20   55 1
    55   21   30 1
    56   21   56 1
    57   24   31 1
    58   24   57 1
    59   24   58 1
    60   25   59 1
    61   26   60 1
    62   27   61 1
    63   28   31 2
    64   29   31 2
    65   30   62 1
