@<TRIPOS>MOLECULE
*****
   60    63     0     0     0
SMALL
NO_CHARGES

@<TRIPOS>ATOM
      1 C1          8.6394   -2.3245   -2.1642 C.1       1 <0>         0.0000
      2 C2          9.9276   -5.1147   -0.0686 C.ar      1 <0>         0.0000
      3 C3          8.9275   -5.2172    0.9048 C.ar      1 <0>         0.0000
      4 C4          9.8051   -4.1649   -1.0798 C.ar      1 <0>         0.0000
      5 C5          7.8135   -4.3783    0.8593 C.ar      1 <0>         0.0000
      6 C6          5.7158   -2.3389   -1.3379 C.ar      1 <0>         0.0000
      7 C7          6.0194   -1.9325    1.0208 C.ar      1 <0>         0.0000
      8 C8          4.5800   -1.5303   -1.3270 C.ar      1 <0>         0.0000
      9 C9          4.8853   -1.1296    1.0331 C.ar      1 <0>         0.0000
     10 C10         3.3780    1.2759   -2.2025 C.ar      1 <0>         0.0000
     11 C11         0.6924    1.1608   -2.9212 C.ar      1 <0>         0.0000
     12 C12         8.6830   -3.3176   -1.1251 C.ar      1 <0>         0.0000
     13 C13         6.4580   -2.5489   -0.1669 C.ar      1 <0>         0.0000
     14 C14         7.6594   -3.4169   -0.1523 C.ar      1 <0>         0.0000
     15 C15         4.1483   -0.9078   -0.1444 C.ar      1 <0>         0.0000
     16 C16         2.4702    0.5760   -1.3953 C.ar      1 <0>         0.0000
     17 C17         1.1108    0.5244   -1.7515 C.ar      1 <0>         0.0000
     18 C18         2.9498    1.9349   -3.3532 C.ar      1 <0>         0.0000
     19 C19         1.5936    1.8591   -3.7294 C.ar      1 <0>         0.0000
     20 C20         2.9325   -0.0545   -0.1330 C.2       1 <0>         0.0000
     21 C21         1.1045    1.7877    2.1518 C.2       1 <0>         0.0000
     22 C22         0.1614   -0.2434   -0.8717 C.3       1 <0>         0.0000
     23 C23        -0.0650    0.4291    0.4900 C.3       1 <0>         0.0000
     24 C24        -0.7544   -0.5286    1.4691 C.3       1 <0>         0.0000
     25 C25         2.2184    2.6490    4.1477 C.3       1 <0>         0.0000
     26 C26         3.7293    4.0476   -4.0777 C.3       1 <0>         0.0000
     27 C27         1.6196    1.9843   -6.1007 C.3       1 <0>         0.0000
     28 N1          8.6469   -1.5346   -3.0211 N.1       1 <0>         0.0000
     29 N2          2.3518    0.1128    1.0153 N.2       1 <0>         0.0000
     30 N3          1.2155    0.9537    1.0269 N.am      1 <0>         0.0000
     31 N4          2.2573    1.9380    2.8787 N.am      1 <0>         0.0000
     32 O1          0.0566    2.3875    2.4054 O.2       1 <0>         0.0000
     33 O2          3.8733    2.6166   -4.1179 O.3       1 <0>         0.0000
     34 O3          1.1157    2.4945   -4.8526 O.3       1 <0>         0.0000
     35 H1         10.7952   -5.7674   -0.0381 H         1 <0>         0.0000
     36 H2          9.0112   -5.9580    1.6954 H         1 <0>         0.0000
     37 H3         10.5762   -4.0595   -1.8366 H         1 <0>         0.0000
     38 H4          7.0305   -4.4832    1.6045 H         1 <0>         0.0000
     39 H5          6.0137   -2.8210   -2.2635 H         1 <0>         0.0000
     40 H6          6.5927   -2.0645    1.9346 H         1 <0>         0.0000
     41 H7          4.0189   -1.3931   -2.2454 H         1 <0>         0.0000
     42 H8          4.5600   -0.6604    1.9551 H         1 <0>         0.0000
     43 H9          4.4298    1.3379   -1.9391 H         1 <0>         0.0000
     44 H10        -0.3483    1.1238   -3.2324 H         1 <0>         0.0000
     45 H11        -0.8110   -0.3590   -1.3586 H         1 <0>         0.0000
     46 H12         0.5530   -1.2547   -0.7079 H         1 <0>         0.0000
     47 H13        -0.6866    1.3155    0.3521 H         1 <0>         0.0000
     48 H14        -0.1086   -1.3861    1.6864 H         1 <0>         0.0000
     49 H15        -1.6890   -0.9039    1.0370 H         1 <0>         0.0000
     50 H16        -0.9924   -0.0147    2.4026 H         1 <0>         0.0000
     51 H17         3.2421    2.8746    4.4575 H         1 <0>         0.0000
     52 H18         1.7220    2.0719    4.9391 H         1 <0>         0.0000
     53 H19         1.6723    3.5845    4.0180 H         1 <0>         0.0000
     54 H20         4.5248    4.4497   -4.7077 H         1 <0>         0.0000
     55 H21         3.8528    4.4127   -3.0512 H         1 <0>         0.0000
     56 H22         2.7532    4.3577   -4.4639 H         1 <0>         0.0000
     57 H23         1.1417    2.5775   -6.8823 H         1 <0>         0.0000
     58 H24         1.3398    0.9304   -6.2177 H         1 <0>         0.0000
     59 H25         2.7065    2.0868   -6.1626 H         1 <0>         0.0000
     60 H26         2.9600    1.2234    2.7344 H         1 <0>         0.0000
@<TRIPOS>BOND
     1    1   12 1
     2    1   28 3
     3    2    3 ar
     4    2    4 ar
     5    2   35 1
     6    3    5 ar
     7    3   36 1
     8    4   12 ar
     9    4   37 1
    10    5   14 ar
    11    5   38 1
    12    6    8 ar
    13    6   13 ar
    14    6   39 1
    15    7    9 ar
    16    7   13 ar
    17    7   40 1
    18    8   15 ar
    19    8   41 1
    20    9   15 ar
    21    9   42 1
    22   10   16 ar
    23   10   18 ar
    24   10   43 1
    25   11   17 ar
    26   11   19 ar
    27   11   44 1
    28   12   14 ar
    29   13   14 1
    30   15   20 1
    31   16   17 ar
    32   16   20 1
    33   17   22 1
    34   18   19 ar
    35   18   33 1
    36   19   34 1
    37   20   29 2
    38   21   30 am
    39   21   31 am
    40   21   32 2
    41   22   23 1
    42   22   45 1
    43   22   46 1
    44   23   24 1
    45   23   30 1
    46   23   47 1
    47   24   48 1
    48   24   49 1
    49   24   50 1
    50   25   31 1
    51   25   51 1
    52   25   52 1
    53   25   53 1
    54   26   33 1
    55   26   54 1
    56   26   55 1
    57   26   56 1
    58   27   34 1
    59   27   57 1
    60   27   58 1
    61   27   59 1
    62   29   30 1
    63   31   60 1
