@<TRIPOS>MOLECULE
*****
   57    61     0     0     0
SMALL
NO_CHARGES

@<TRIPOS>ATOM
      1 C1         -0.8295    1.8076    1.4761 C.ar      1 <0>         0.0000
      2 C2         -0.6280    0.6331    0.7107 C.ar      1 <0>         0.0000
      3 C3         -5.5551   -1.3377   -1.7944 C.ar      1 <0>         0.0000
      4 C4         -1.8762    1.8931    2.3836 C.ar      1 <0>         0.0000
      5 C5         -4.5503    1.2129    5.6867 C.ar      1 <0>         0.0000
      6 C6         -4.8454    2.7972    3.8953 C.ar      1 <0>         0.0000
      7 C7         -4.5348   -1.5803   -0.8671 C.ar      1 <0>         0.0000
      8 C8         -1.4579   -0.4745    0.8425 C.ar      1 <0>         0.0000
      9 C9         -6.8472   -1.8083   -1.5716 C.ar      1 <0>         0.0000
     10 C10        -5.0536    2.1407    6.6038 C.ar      1 <0>         0.0000
     11 C11        -5.3418    3.7309    4.7960 C.ar      1 <0>         0.0000
     12 C12        -6.1112   -2.7903    0.5239 C.ar      1 <0>         0.0000
     13 C13        -2.7424    0.7903    2.5230 C.ar      1 <0>         0.0000
     14 C14        -4.4455    1.5124    4.3199 C.ar      1 <0>         0.0000
     15 C15        -3.8924    0.5486    3.3472 C.2       1 <0>         0.0000
     16 C16        -4.8143   -2.3073    0.2953 C.ar      1 <0>         0.0000
     17 C17        -2.5139   -0.3927    1.7664 C.ar      1 <0>         0.0000
     18 C18        -5.4528    3.4104    6.1606 C.ar      1 <0>         0.0000
     19 C19        -7.1291   -2.5353   -0.4043 C.ar      1 <0>         0.0000
     20 C20        -4.3150   -0.7508    3.0720 C.2       1 <0>         0.0000
     21 C21        -5.4490   -1.5053    3.6488 C.2       1 <0>         0.0000
     22 C22        -7.4744    5.1781   10.2898 C.3       1 <0>         0.0000
     23 C23        -8.1432    5.5880    8.9954 C.3       1 <0>         0.0000
     24 C24        -6.6520    5.3455    9.0289 C.3       1 <0>         0.0000
     25 C25        -8.7629   -3.6362    0.9524 C.3       1 <0>         0.0000
     26 C26        -3.7382   -2.5423    1.3396 C.3       1 <0>         0.0000
     27 C27        -6.0857    4.1220    8.3672 C.3       1 <0>         0.0000
     28 N1         -3.4588   -1.3323    2.1299 N.pl3     1 <0>         0.0000
     29 O1         -5.5365   -2.7215    3.6401 O.2       1 <0>         0.0000
     30 O2         -6.4490   -0.7741    4.2043 O.3       1 <0>         0.0000
     31 O3         -8.4237   -2.9517   -0.2533 O.3       1 <0>         0.0000
     32 O4         -5.9580    4.3904    6.9621 O.3       1 <0>         0.0000
     33 H1         -0.1520    2.6473    1.3484 H         1 <0>         0.0000
     34 H2          0.1990    0.5936    0.0067 H         1 <0>         0.0000
     35 H3         -5.3413   -0.7751   -2.6996 H         1 <0>         0.0000
     36 H4         -2.0296    2.7897    2.9779 H         1 <0>         0.0000
     37 H5         -4.2302    0.2377    6.0434 H         1 <0>         0.0000
     38 H6         -4.7773    3.0519    2.8411 H         1 <0>         0.0000
     39 H7         -3.5349   -1.1955   -1.0457 H         1 <0>         0.0000
     40 H8         -1.2779   -1.3684    0.2536 H         1 <0>         0.0000
     41 H9         -7.6493   -1.6239   -2.2803 H         1 <0>         0.0000
     42 H10        -5.1199    1.8635    7.6493 H         1 <0>         0.0000
     43 H11        -5.6585    4.7161    4.4666 H         1 <0>         0.0000
     44 H12        -6.3092   -3.3398    1.4355 H         1 <0>         0.0000
     45 H13        -7.3603    5.9227   11.0716 H         1 <0>         0.0000
     46 H14        -7.6490    4.1696   10.6552 H         1 <0>         0.0000
     47 H15        -8.7591    4.8528    8.4852 H         1 <0>         0.0000
     48 H16        -8.4898    6.6120    8.8965 H         1 <0>         0.0000
     49 H17        -6.0128    6.2231    8.9750 H         1 <0>         0.0000
     50 H18        -9.8333   -3.8363    0.8884 H         1 <0>         0.0000
     51 H19        -8.5561   -3.0192    1.8345 H         1 <0>         0.0000
     52 H20        -8.2203   -4.5855    1.0383 H         1 <0>         0.0000
     53 H21        -4.0283   -3.3354    2.0248 H         1 <0>         0.0000
     54 H22        -2.7975   -2.8307    0.8676 H         1 <0>         0.0000
     55 H23        -6.7506    3.2609    8.5192 H         1 <0>         0.0000
     56 H24        -5.0995    3.8742    8.7822 H         1 <0>         0.0000
     57 H25        -6.2402    0.1791    4.1657 H         1 <0>         0.0000
@<TRIPOS>BOND
     1    1    2 ar
     2    1    4 ar
     3    1   33 1
     4    2    8 ar
     5    2   34 1
     6    3    7 ar
     7    3    9 ar
     8    3   35 1
     9    4   13 ar
    10    4   36 1
    11    5   10 ar
    12    5   14 ar
    13    5   37 1
    14    6   11 ar
    15    6   14 ar
    16    6   38 1
    17    7   16 ar
    18    7   39 1
    19    8   17 ar
    20    8   40 1
    21    9   19 ar
    22    9   41 1
    23   10   18 ar
    24   10   42 1
    25   11   18 ar
    26   11   43 1
    27   12   16 ar
    28   12   19 ar
    29   12   44 1
    30   13   15 1
    31   13   17 ar
    32   14   15 1
    33   15   20 2
    34   16   26 1
    35   17   28 1
    36   18   32 1
    37   19   31 1
    38   20   21 1
    39   20   28 1
    40   21   29 2
    41   21   30 1
    42   22   23 1
    43   22   24 1
    44   22   45 1
    45   22   46 1
    46   23   24 1
    47   23   47 1
    48   23   48 1
    49   24   27 1
    50   24   49 1
    51   25   31 1
    52   25   50 1
    53   25   51 1
    54   25   52 1
    55   26   28 1
    56   26   53 1
    57   26   54 1
    58   27   32 1
    59   27   55 1
    60   27   56 1
    61   30   57 1
