@<TRIPOS>MOLECULE
*****
   70    71     0     0     0
SMALL
NO_CHARGES

@<TRIPOS>ATOM
      1 C1         -0.9612    3.5013   -0.3532 C.ar      1 <0>         0.0000
      2 C2          0.0161    3.6748    0.6405 C.ar      1 <0>         0.0000
      3 C3         -1.2691    2.2200   -0.7950 C.ar      1 <0>         0.0000
      4 C4          0.6722    2.5768    1.1976 C.ar      1 <0>         0.0000
      5 C5         -0.6076    1.1020   -0.2561 C.ar      1 <0>         0.0000
      6 C6          0.3554    1.2931    0.7488 C.ar      1 <0>         0.0000
      7 C7         -0.8863   -0.2571   -0.7635 C.2       1 <0>         0.0000
      8 C8          0.0859   -1.3648   -0.2704 C.3       1 <0>         0.0000
      9 C9          0.3941   -1.0730    1.2406 C.3       1 <0>         0.0000
     10 C10        -0.8630   -1.0619    2.1201 C.3       1 <0>         0.0000
     11 C11         5.4981    0.1366    0.3450 C.3       1 <0>         0.0000
     12 C12         6.8332   -2.0411    2.7797 C.3       1 <0>         0.0000
     13 C13         3.5984   -4.2220   -2.9727 C.3       1 <0>         0.0000
     14 C14         0.3291   -6.8247   -0.4279 C.3       1 <0>         0.0000
     15 C15         1.3864   -1.1127   -1.1346 C.3       1 <0>         0.0000
     16 C16        -0.6314   -2.7104   -0.5243 C.3       1 <0>         0.0000
     17 C17         1.4341   -2.0546    1.8247 C.3       1 <0>         0.0000
     18 C18         2.3045   -1.5365    2.9870 C.3       1 <0>         0.0000
     19 C19         4.6024   -0.2802    1.5044 C.3       1 <0>         0.0000
     20 C20         5.8583   -2.4922    1.7009 C.3       1 <0>         0.0000
     21 C21         3.7160   -2.1275    2.9606 C.3       1 <0>         0.0000
     22 C22         1.7758   -2.1415   -2.2135 C.3       1 <0>         0.0000
     23 C23         0.0717   -4.0044   -0.0732 C.3       1 <0>         0.0000
     24 N1          4.5167   -1.7813    1.7180 N.4       1 <0>         0.0000
     25 O1         -1.7622   -0.4943   -1.5811 O.2       1 <0>         0.0000
     26 O2          4.4492   -1.8212   -2.1077 O.2       1 <0>         0.0000
     27 O3          3.3782   -3.3739   -0.4459 O.2       1 <0>         0.0000
     28 O4         -1.7558   -5.4703   -1.4034 O.2       1 <0>         0.0000
     29 O5          0.5520   -5.0975   -2.4334 O.2       1 <0>         0.0000
     30 O6          1.0308    0.2383    1.3127 O.3       1 <0>         0.0000
     31 S1          3.4120   -2.8371   -1.8482 S.o2      1 <0>         0.0000
     32 S2         -0.3038   -5.3467   -1.2465 S.o2      1 <0>         0.0000
     33 H1         -1.4713    4.3631   -0.7720 H         1 <0>         0.0000
     34 H2          0.2586    4.6739    0.9919 H         1 <0>         0.0000
     35 H3         -2.0145    2.0501   -1.5661 H         1 <0>         0.0000
     36 H4          1.4112    2.6999    1.9841 H         1 <0>         0.0000
     37 H5         -0.5871   -0.7945    3.1439 H         1 <0>         0.0000
     38 H6         -1.3271   -2.0509    2.1416 H         1 <0>         0.0000
     39 H7         -1.6130   -0.3469    1.7773 H         1 <0>         0.0000
     40 H8          6.5566   -0.0446    0.5445 H         1 <0>         0.0000
     41 H9          5.2204   -0.3605   -0.5867 H         1 <0>         0.0000
     42 H10         5.3739    1.2139    0.2019 H         1 <0>         0.0000
     43 H11         7.0616   -0.9746    2.7164 H         1 <0>         0.0000
     44 H12         6.4807   -2.2662    3.7887 H         1 <0>         0.0000
     45 H13         7.7714   -2.5839    2.6358 H         1 <0>         0.0000
     46 H14         4.5496   -4.6938   -2.7195 H         1 <0>         0.0000
     47 H15         2.7533   -4.8978   -2.8319 H         1 <0>         0.0000
     48 H16         3.6279   -3.8259   -3.9892 H         1 <0>         0.0000
     49 H17         0.2070   -7.6395   -1.1442 H         1 <0>         0.0000
     50 H18         1.3848   -6.6800   -0.1922 H         1 <0>         0.0000
     51 H19        -0.2645   -7.0178    0.4668 H         1 <0>         0.0000
     52 H20         2.2278   -0.9479   -0.4614 H         1 <0>         0.0000
     53 H21         1.2799   -0.1533   -1.6431 H         1 <0>         0.0000
     54 H22        -0.8549   -2.7498   -1.5921 H         1 <0>         0.0000
     55 H23        -1.6173   -2.6734   -0.0604 H         1 <0>         0.0000
     56 H24         0.9051   -2.9471    2.1620 H         1 <0>         0.0000
     57 H25         2.0779   -2.3910    1.0176 H         1 <0>         0.0000
     58 H26         2.3476   -0.4485    2.9956 H         1 <0>         0.0000
     59 H27         1.8742   -1.8263    3.9508 H         1 <0>         0.0000
     60 H28         3.5794    0.0547    1.3303 H         1 <0>         0.0000
     61 H29         4.9389    0.1494    2.4509 H         1 <0>         0.0000
     62 H30         5.6265   -3.5555    1.7922 H         1 <0>         0.0000
     63 H31         6.2663   -2.3347    0.7026 H         1 <0>         0.0000
     64 H32         4.2934   -1.7720    3.8150 H         1 <0>         0.0000
     65 H33         3.6839   -3.2197    2.9980 H         1 <0>         0.0000
     66 H34         1.1073   -2.9942   -2.3248 H         1 <0>         0.0000
     67 H35         1.8896   -1.6734   -3.1942 H         1 <0>         0.0000
     68 H36         1.1596   -3.9505   -0.0593 H         1 <0>         0.0000
     69 H37        -0.2827   -4.3404    0.9041 H         1 <0>         0.0000
     70 H38         4.0242   -2.1937    0.9039 H         1 <0>         0.0000
@<TRIPOS>BOND
     1    1    2 ar
     2    1    3 ar
     3    1   33 1
     4    2    4 ar
     5    2   34 1
     6    3    5 ar
     7    3   35 1
     8    4    6 ar
     9    4   36 1
    10    5    6 ar
    11    5    7 1
    12    6   30 1
    13    7    8 1
    14    7   25 2
    15    8    9 1
    16    8   15 1
    17    8   16 1
    18    9   10 1
    19    9   17 1
    20    9   30 1
    21   10   37 1
    22   10   38 1
    23   10   39 1
    24   11   19 1
    25   11   40 1
    26   11   41 1
    27   11   42 1
    28   12   20 1
    29   12   43 1
    30   12   44 1
    31   12   45 1
    32   13   31 1
    33   13   46 1
    34   13   47 1
    35   13   48 1
    36   14   32 1
    37   14   49 1
    38   14   50 1
    39   14   51 1
    40   15   22 1
    41   15   52 1
    42   15   53 1
    43   16   23 1
    44   16   54 1
    45   16   55 1
    46   17   18 1
    47   17   56 1
    48   17   57 1
    49   18   21 1
    50   18   58 1
    51   18   59 1
    52   19   24 1
    53   19   60 1
    54   19   61 1
    55   20   24 1
    56   20   62 1
    57   20   63 1
    58   21   24 1
    59   21   64 1
    60   21   65 1
    61   22   31 1
    62   22   66 1
    63   22   67 1
    64   23   32 1
    65   23   68 1
    66   23   69 1
    67   24   70 1
    68   26   31 2
    69   27   31 2
    70   28   32 2
    71   29   32 2
