@<TRIPOS>MOLECULE
*****
   52    56     0     0     0
SMALL
NO_CHARGES

@<TRIPOS>ATOM
      1 C1         -2.2275    1.7868    1.7550 C.ar      1 <0>         0.0000
      2 C2         -2.0702    1.0988    0.5342 C.ar      1 <0>         0.0000
      3 C3         -6.2177    1.5567    6.1214 C.ar      1 <0>         0.0000
      4 C4         -3.1665    1.3714    2.7010 C.ar      1 <0>         0.0000
      5 C5         -5.6878    1.2381    4.8665 C.ar      1 <0>         0.0000
      6 C6         -4.7184   -1.8704   -2.3658 C.ar      1 <0>         0.0000
      7 C7         -6.6924   -1.3821   -1.0571 C.ar      1 <0>         0.0000
      8 C8         -2.8417   -0.0301    0.2463 C.ar      1 <0>         0.0000
      9 C9         -6.6130    0.5582    7.0129 C.ar      1 <0>         0.0000
     10 C10        -5.3230   -1.3333   -3.5101 C.ar      1 <0>         0.0000
     11 C11        -7.3081   -0.8389   -2.1862 C.ar      1 <0>         0.0000
     12 C12        -5.9107   -1.1143    5.3946 C.ar      1 <0>         0.0000
     13 C13        -3.9726    0.2493    2.4315 C.ar      1 <0>         0.0000
     14 C14        -5.5282   -0.1085    4.4864 C.ar      1 <0>         0.0000
     15 C15        -4.9848   -0.4759    3.1699 C.2       1 <0>         0.0000
     16 C16        -5.3892   -1.8993   -1.1395 C.ar      1 <0>         0.0000
     17 C17        -3.7787   -0.4424    1.1992 C.ar      1 <0>         0.0000
     18 C18        -6.4692   -0.7850    6.6304 C.ar      1 <0>         0.0000
     19 C19        -6.6095   -0.8246   -3.3907 C.ar      1 <0>         0.0000
     20 C20        -5.3587   -1.5638    2.3818 C.2       1 <0>         0.0000
     21 C21        -6.4191   -2.6589    2.5729 C.2       1 <0>         0.0000
     22 C22        -8.0839   -5.2805    7.7304 C.3       1 <0>         0.0000
     23 C23        -9.0080   -4.1334    8.0883 C.3       1 <0>         0.0000
     24 C24        -7.5099   -3.9462    8.1567 C.3       1 <0>         0.0000
     25 C25        -4.7333   -2.4839    0.0986 C.3       1 <0>         0.0000
     26 C26        -6.8242   -3.1016    7.1188 C.3       1 <0>         0.0000
     27 N1         -4.6320   -1.5310    1.1942 N.pl3     1 <0>         0.0000
     28 O1         -6.2336   -3.4599    3.5257 O.co2     1 <0>         0.0000
     29 O2         -7.3406   -2.6428    1.7118 O.co2     1 <0>         0.0000
     30 O3         -6.9085   -1.7281    7.5312 O.3       1 <0>         0.0000
     31 F1         -7.2115   -0.2924   -4.4991 F         1 <0>         0.0000
     32 H1         -1.6041    2.6540    1.9632 H         1 <0>         0.0000
     33 H2         -1.3401    1.4482   -0.1925 H         1 <0>         0.0000
     34 H3         -6.3435    2.6010    6.4014 H         1 <0>         0.0000
     35 H4         -3.2575    1.9005    3.6450 H         1 <0>         0.0000
     36 H5         -5.4419    2.0310    4.1675 H         1 <0>         0.0000
     37 H6         -3.7074   -2.2677   -2.4371 H         1 <0>         0.0000
     38 H7         -7.2097   -1.4427   -0.1006 H         1 <0>         0.0000
     39 H8         -2.7223   -0.5577   -0.6951 H         1 <0>         0.0000
     40 H9         -7.0430    0.7935    7.9829 H         1 <0>         0.0000
     41 H10        -4.8125   -1.3001   -4.4682 H         1 <0>         0.0000
     42 H11        -8.3165   -0.4368   -2.1437 H         1 <0>         0.0000
     43 H12        -5.7901   -2.1432    5.0797 H         1 <0>         0.0000
     44 H13        -8.0062   -6.1150    8.4222 H         1 <0>         0.0000
     45 H14        -7.9959   -5.5520    6.6820 H         1 <0>         0.0000
     46 H15        -9.5336   -3.6352    7.2786 H         1 <0>         0.0000
     47 H16        -9.5613   -4.1896    9.0220 H         1 <0>         0.0000
     48 H17        -7.0718   -3.8978    9.1515 H         1 <0>         0.0000
     49 H18        -5.3172   -3.3323    0.4568 H         1 <0>         0.0000
     50 H19        -3.7270   -2.8432   -0.1489 H         1 <0>         0.0000
     51 H20        -7.2953   -3.2362    6.1383 H         1 <0>         0.0000
     52 H21        -5.7693   -3.3895    7.0164 H         1 <0>         0.0000
@<TRIPOS>BOND
     1    1    2 ar
     2    1    4 ar
     3    1   32 1
     4    2    8 ar
     5    2   33 1
     6    3    5 ar
     7    3    9 ar
     8    3   34 1
     9    4   13 ar
    10    4   35 1
    11    5   14 ar
    12    5   36 1
    13    6   10 ar
    14    6   16 ar
    15    6   37 1
    16    7   11 ar
    17    7   16 ar
    18    7   38 1
    19    8   17 ar
    20    8   39 1
    21    9   18 ar
    22    9   40 1
    23   10   19 ar
    24   10   41 1
    25   11   19 ar
    26   11   42 1
    27   12   14 ar
    28   12   18 ar
    29   12   43 1
    30   13   15 1
    31   13   17 ar
    32   14   15 1
    33   15   20 2
    34   16   25 1
    35   17   27 1
    36   18   30 1
    37   19   31 1
    38   20   21 1
    39   20   27 1
    40   21   28 1
    41   21   29 2
    42   22   23 1
    43   22   24 1
    44   22   44 1
    45   22   45 1
    46   23   24 1
    47   23   46 1
    48   23   47 1
    49   24   26 1
    50   24   48 1
    51   25   27 1
    52   25   49 1
    53   25   50 1
    54   26   30 1
    55   26   51 1
    56   26   52 1
