@<TRIPOS>MOLECULE
*****
   66    70     0     0     0
SMALL
NO_CHARGES

@<TRIPOS>ATOM
      1 C1         -7.3718    4.1890   -5.0246 C.1       1 <0>         0.0000
      2 C2         -8.2875    4.9565   -5.2562 C.1       1 <0>         0.0000
      3 C3         -0.5744   -2.5599   -2.1342 C.ar      1 <0>         0.0000
      4 C4          0.7350   -2.0860   -2.2401 C.ar      1 <0>         0.0000
      5 C5         -5.8511    2.3854   -5.7644 C.ar      1 <0>         0.0000
      6 C6         -1.6420   -1.6881   -2.3607 C.ar      1 <0>         0.0000
      7 C7          0.9678   -0.7511   -2.5871 C.ar      1 <0>         0.0000
      8 C8         -4.8127    1.5033   -5.5260 C.ar      1 <0>         0.0000
      9 C9         -5.6683    3.2613   -3.5094 C.ar      1 <0>         0.0000
     10 C10        -6.2979    3.2834   -4.7574 C.ar      1 <0>         0.0000
     11 C11        -4.6156    2.3679   -3.2635 C.ar      1 <0>         0.0000
     12 C12        -1.4075   -0.3478   -2.6811 C.ar      1 <0>         0.0000
     13 C13        -0.0914    0.1367   -2.8149 C.ar      1 <0>         0.0000
     14 C14        -4.1738    1.4784   -4.2675 C.ar      1 <0>         0.0000
     15 C15        -3.9741    2.3389   -1.9463 C.2       1 <0>         0.0000
     16 C16        -2.5643    0.5779   -2.8945 C.2       1 <0>         0.0000
     17 C17        -4.6095   -0.6724    2.0064 C.3       1 <0>         0.0000
     18 C18        -9.1470    7.3738   -5.2941 C.3       1 <0>         0.0000
     19 C19        -9.2342    6.8523   -6.7045 C.3       1 <0>         0.0000
     20 C20        -4.1263    0.4958    1.1402 C.3       1 <0>         0.0000
     21 C21        -3.4608   -1.2526    2.8360 C.3       1 <0>         0.0000
     22 C22        -1.8254   -0.5303    1.2195 C.3       1 <0>         0.0000
     23 C23        -9.3579    5.8825   -5.5336 C.3       1 <0>         0.0000
     24 C24        -2.9030    0.0775    0.3137 C.3       1 <0>         0.0000
     25 C25         0.1664    1.5737   -3.2038 C.3       1 <0>         0.0000
     26 C26        -0.4189   -1.7401    3.6061 C.3       1 <0>         0.0000
     27 C27        -0.5362   -3.3062    1.6148 C.3       1 <0>         0.0000
     28 C28        -2.3039    1.2347   -0.5051 C.3       1 <0>         0.0000
     29 C29        -1.3469   -2.4998    2.6379 C.3       1 <0>         0.0000
     30 N1         -3.1297    0.5925   -4.0629 N.2       1 <0>         0.0000
     31 N2         -2.9395    1.3877   -1.8287 N.am      1 <0>         0.0000
     32 N3         -2.3609   -1.6676    1.9640 N.3       1 <0>         0.0000
     33 O1         -4.2879    3.0579   -0.9985 O.2       1 <0>         0.0000
     34 H1         -0.7657   -3.5968   -1.8734 H         1 <0>         0.0000
     35 H2          1.5739   -2.7536   -2.0612 H         1 <0>         0.0000
     36 H3         -6.3425    2.4031   -6.7329 H         1 <0>         0.0000
     37 H4         -2.6639   -2.0485   -2.2858 H         1 <0>         0.0000
     38 H5          1.9896   -0.3917   -2.6863 H         1 <0>         0.0000
     39 H6         -4.4656    0.8161   -6.2918 H         1 <0>         0.0000
     40 H7         -5.9849    3.9293   -2.7154 H         1 <0>         0.0000
     41 H8         -5.4152   -0.3437    2.6730 H         1 <0>         0.0000
     42 H9         -5.0150   -1.4658    1.3669 H         1 <0>         0.0000
     43 H10        -8.1740    7.6767   -4.9217 H         1 <0>         0.0000
     44 H11        -9.9876    7.9336   -4.8951 H         1 <0>         0.0000
     45 H12       -10.1350    7.0531   -7.2770 H         1 <0>         0.0000
     46 H13        -8.3202    6.8030   -7.2870 H         1 <0>         0.0000
     47 H14        -4.9268    0.8598    0.4894 H         1 <0>         0.0000
     48 H15        -3.8466    1.3405    1.7842 H         1 <0>         0.0000
     49 H16        -3.1391   -0.4982    3.5811 H         1 <0>         0.0000
     50 H17        -3.8083   -2.1286    3.3946 H         1 <0>         0.0000
     51 H18        -0.9937   -0.8703    0.5963 H         1 <0>         0.0000
     52 H19        -1.4327    0.2603    1.8900 H         1 <0>         0.0000
     53 H20       -10.3578    5.5051   -5.3320 H         1 <0>         0.0000
     54 H21        -3.2086   -0.7143   -0.3774 H         1 <0>         0.0000
     55 H22        -0.3216    1.8139   -4.1541 H         1 <0>         0.0000
     56 H23        -0.2262    2.2741   -2.4574 H         1 <0>         0.0000
     57 H24         1.2368    1.7664   -3.3103 H         1 <0>         0.0000
     58 H25         0.2494   -1.0587    3.0688 H         1 <0>         0.0000
     59 H26        -0.9884   -1.1532    4.3340 H         1 <0>         0.0000
     60 H27         0.2076   -2.4448    4.1636 H         1 <0>         0.0000
     61 H28         0.1175   -2.6687    1.0110 H         1 <0>         0.0000
     62 H29        -1.2087   -3.8399    0.9370 H         1 <0>         0.0000
     63 H30         0.0998   -4.0368    2.1265 H         1 <0>         0.0000
     64 H31        -1.2377    1.0713   -0.6613 H         1 <0>         0.0000
     65 H32        -2.4316    2.1849    0.0133 H         1 <0>         0.0000
     66 H33        -1.9217   -3.2221    3.2304 H         1 <0>         0.0000
@<TRIPOS>BOND
     1    1    2 3
     2    1   10 1
     3    2   23 1
     4    3    4 ar
     5    3    6 ar
     6    3   34 1
     7    4    7 ar
     8    4   35 1
     9    5    8 ar
    10    5   10 ar
    11    5   36 1
    12    6   12 ar
    13    6   37 1
    14    7   13 ar
    15    7   38 1
    16    8   14 ar
    17    8   39 1
    18    9   10 ar
    19    9   11 ar
    20    9   40 1
    21   11   14 ar
    22   11   15 1
    23   12   13 ar
    24   12   16 1
    25   13   25 1
    26   14   30 1
    27   15   31 am
    28   15   33 2
    29   16   30 2
    30   16   31 1
    31   17   20 1
    32   17   21 1
    33   17   41 1
    34   17   42 1
    35   18   19 1
    36   18   23 1
    37   18   43 1
    38   18   44 1
    39   19   23 1
    40   19   45 1
    41   19   46 1
    42   20   24 1
    43   20   47 1
    44   20   48 1
    45   21   32 1
    46   21   49 1
    47   21   50 1
    48   22   24 1
    49   22   32 1
    50   22   51 1
    51   22   52 1
    52   23   53 1
    53   24   28 1
    54   24   54 1
    55   25   55 1
    56   25   56 1
    57   25   57 1
    58   26   29 1
    59   26   58 1
    60   26   59 1
    61   26   60 1
    62   27   29 1
    63   27   61 1
    64   27   62 1
    65   27   63 1
    66   28   31 1
    67   28   64 1
    68   28   65 1
    69   29   32 1
    70   29   66 1
