@<TRIPOS>MOLECULE
*****
   18    17     0     0     0
SMALL
NO_CHARGES

@<TRIPOS>ATOM
      1 C1         -3.4561    0.7207   -1.8337 C.2       1 <0>         0.0000
      2 C2         -2.2504    1.1449   -1.4443 C.2       1 <0>         0.0000
      3 C3         -1.1595    0.1807   -1.1078 C.2       1 <0>         0.0000
      4 C4          2.0863    1.7397    0.7283 C.3       1 <0>         0.0000
      5 C5          0.7127   -0.5009    1.5874 C.3       1 <0>         0.0000
      6 N1          0.0800    0.7305   -0.7061 N.2       1 <0>         0.0000
      7 O1         -1.3612   -1.0291   -1.1901 O.2       1 <0>         0.0000
      8 O2         -0.3332    1.8795    1.6648 O.2       1 <0>         0.0000
      9 S1          0.4471    1.0520    0.7617 S.o       1 <0>         0.0000
     10 H1         -4.2323    1.4398   -2.0737 H         1 <0>         0.0000
     11 H2         -3.7044   -0.3308   -1.9243 H         1 <0>         0.0000
     12 H3         -2.0367    2.2054   -1.3659 H         1 <0>         0.0000
     13 H4          2.0420    2.7117    0.2345 H         1 <0>         0.0000
     14 H5          2.4351    1.8486    1.7563 H         1 <0>         0.0000
     15 H6          2.7342    1.0586    0.1745 H         1 <0>         0.0000
     16 H7         -0.2450   -1.0181    1.6646 H         1 <0>         0.0000
     17 H8          1.4181   -1.0882    0.9976 H         1 <0>         0.0000
     18 H9          1.1190   -0.2982    2.5794 H         1 <0>         0.0000
@<TRIPOS>BOND
     1    1    2 2
     2    1   10 1
     3    1   11 1
     4    2    3 1
     5    2   12 1
     6    3    6 1
     7    3    7 2
     8    4    9 1
     9    4   13 1
    10    4   14 1
    11    4   15 1
    12    5    9 1
    13    5   16 1
    14    5   17 1
    15    5   18 1
    16    6    9 2
    17    8    9 2
