@<TRIPOS>MOLECULE
*****
   28    29     0     0     0
SMALL
NO_CHARGES

@<TRIPOS>ATOM
      1 C1          0.4862    1.1449    0.1186 C.ar      1 <0>         0.0000
      2 C2         -0.5728    2.0682    0.0323 C.ar      1 <0>         0.0000
      3 C3          1.8307    1.5256    0.0323 C.ar      1 <0>         0.0000
      4 C4          1.0885    3.7965   -0.2410 C.ar      1 <0>         0.0000
      5 C5         -0.2546    3.4091   -0.1479 C.ar      1 <0>         0.0000
      6 C6          2.1506    2.8772   -0.1491 C.ar      1 <0>         0.0000
      7 C7          1.2166    5.2277   -0.4402 C.2       1 <0>         0.0000
      8 C8         -0.3521    6.9576    0.4628 C.2       1 <0>         0.0000
      9 C9         -1.1616    4.6200   -0.2512 C.3       1 <0>         0.0000
     10 C10        -0.2172    5.8139   -0.5274 C.3       1 <0>         0.0000
     11 C11         1.4423    9.2324    1.5983 C.3       1 <0>         0.0000
     12 C12         0.1464    9.2628    0.8019 C.3       1 <0>         0.0000
     13 O1          2.2709    5.8570   -0.5344 O.2       1 <0>         0.0000
     14 O2         -0.7426    6.8308    1.6088 O.2       1 <0>         0.0000
     15 O3          3.4384    3.2784   -0.2361 O.3       1 <0>         0.0000
     16 O4          0.0546    8.1143   -0.0878 O.3       1 <0>         0.0000
     17 H1          0.2567    0.0916    0.2604 H         1 <0>         0.0000
     18 H2         -1.6033    1.7330    0.1104 H         1 <0>         0.0000
     19 H3          2.6283    0.7925    0.1036 H         1 <0>         0.0000
     20 H4         -1.9035    4.5007   -1.0463 H         1 <0>         0.0000
     21 H5         -1.6999    4.7755    0.6878 H         1 <0>         0.0000
     22 H6         -0.3312    6.2163   -1.5377 H         1 <0>         0.0000
     23 H7          1.4588    8.3807    2.2823 H         1 <0>         0.0000
     24 H8          2.3040    9.1640    0.9287 H         1 <0>         0.0000
     25 H9          1.5297   10.1506    2.1893 H         1 <0>         0.0000
     26 H10         0.1082   10.1206    0.1280 H         1 <0>         0.0000
     27 H11        -0.7289    9.2734    1.4549 H         1 <0>         0.0000
     28 H12         3.4408    4.2553   -0.3547 H         1 <0>         0.0000
@<TRIPOS>BOND
     1    1    2 ar
     2    1    3 ar
     3    1   17 1
     4    2    5 ar
     5    2   18 1
     6    3    6 ar
     7    3   19 1
     8    4    5 ar
     9    4    6 ar
    10    4    7 1
    11    5    9 1
    12    6   15 1
    13    7   10 1
    14    7   13 2
    15    8   10 1
    16    8   14 2
    17    8   16 1
    18    9   10 1
    19    9   20 1
    20    9   21 1
    21   10   22 1
    22   11   12 1
    23   11   23 1
    24   11   24 1
    25   11   25 1
    26   12   16 1
    27   12   26 1
    28   12   27 1
    29   15   28 1
