@<TRIPOS>MOLECULE
*****
   36    36     0     0     0
SMALL
NO_CHARGES

@<TRIPOS>ATOM
      1 C1         -0.9802    0.7644    5.3138 C.ar      1 <0>         0.0000
      2 C2          0.5817    2.4375    5.9708 C.ar      1 <0>         0.0000
      3 C3          0.0566    1.1577    6.1631 C.ar      1 <0>         0.0000
      4 C4         -0.8792    2.7862    4.2405 C.ar      1 <0>         0.0000
      5 C5         -6.3681    3.3160    2.7827 C.3       1 <0>         0.0000
      6 C6          1.7750    4.6178    0.1973 C.3       1 <0>         0.0000
      7 C7         -4.9967    3.0429    2.1550 C.3       1 <0>         0.0000
      8 C8          0.4331    4.5121    0.9303 C.3       1 <0>         0.0000
      9 C9         -3.8344    3.4696    3.0576 C.3       1 <0>         0.0000
     10 C10         0.4993    5.0568    2.3611 C.3       1 <0>         0.0000
     11 C11        -2.4685    3.1936    2.4188 C.3       1 <0>         0.0000
     12 C12        -0.8259    4.9735    3.1296 C.3       1 <0>         0.0000
     13 N1         -1.4563    1.5625    4.3619 N.ar      1 <0>         0.0000
     14 N2          0.1300    3.2521    5.0208 N.ar      1 <0>         0.0000
     15 N3         -1.3464    3.6090    3.2625 N.pl3     1 <0>         0.0000
     16 Br1         0.7234   -0.0013    7.5288 Br        1 <0>         0.0000
     17 H1         -1.4399   -0.2182    5.4087 H         1 <0>         0.0000
     18 H2          1.3886    2.8123    6.5988 H         1 <0>         0.0000
     19 H3         -6.5029    4.3842    2.9881 H         1 <0>         0.0000
     20 H4         -7.1811    2.9979    2.1213 H         1 <0>         0.0000
     21 H5         -6.4799    2.7798    3.7320 H         1 <0>         0.0000
     22 H6          2.5546    4.0548    0.7232 H         1 <0>         0.0000
     23 H7          1.7068    4.2218   -0.8217 H         1 <0>         0.0000
     24 H8          2.1084    5.6599    0.1294 H         1 <0>         0.0000
     25 H9         -4.9036    1.9726    1.9297 H         1 <0>         0.0000
     26 H10        -4.9243    3.5666    1.1921 H         1 <0>         0.0000
     27 H11        -0.3365    5.0556    0.3648 H         1 <0>         0.0000
     28 H12         0.1157    3.4627    0.9566 H         1 <0>         0.0000
     29 H13        -3.9179    4.5398    3.2894 H         1 <0>         0.0000
     30 H14        -3.8868    2.9321    4.0110 H         1 <0>         0.0000
     31 H15         1.2640    4.5177    2.9303 H         1 <0>         0.0000
     32 H16         0.8078    6.1109    2.3402 H         1 <0>         0.0000
     33 H17        -2.3811    3.7292    1.4689 H         1 <0>         0.0000
     34 H18        -2.3692    2.1277    2.2051 H         1 <0>         0.0000
     35 H19        -1.5955    5.5590    2.6163 H         1 <0>         0.0000
     36 H20        -0.6950    5.4026    4.1260 H         1 <0>         0.0000
@<TRIPOS>BOND
     1    1    3 ar
     2    1   13 ar
     3    1   17 1
     4    2    3 ar
     5    2   14 ar
     6    2   18 1
     7    3   16 1
     8    4   13 ar
     9    4   14 ar
    10    4   15 1
    11    5    7 1
    12    5   19 1
    13    5   20 1
    14    5   21 1
    15    6    8 1
    16    6   22 1
    17    6   23 1
    18    6   24 1
    19    7    9 1
    20    7   25 1
    21    7   26 1
    22    8   10 1
    23    8   27 1
    24    8   28 1
    25    9   11 1
    26    9   29 1
    27    9   30 1
    28   10   12 1
    29   10   31 1
    30   10   32 1
    31   11   15 1
    32   11   33 1
    33   11   34 1
    34   12   15 1
    35   12   35 1
    36   12   36 1
