@<TRIPOS>MOLECULE
*****
   49    50     0     0     0
SMALL
NO_CHARGES

@<TRIPOS>ATOM
      1 C1          3.3424    6.0054    3.2390 C.ar      1 <0>         0.0000
      2 C2          0.9936    6.5420    3.0154 C.ar      1 <0>         0.0000
      3 C3          3.1615    4.8697    2.4638 C.ar      1 <0>         0.0000
      4 C4          0.7987    5.4019    2.2323 C.ar      1 <0>         0.0000
      5 C5          2.2592    6.8557    3.5257 C.ar      1 <0>         0.0000
      6 C6          1.8872    4.5609    1.9563 C.ar      1 <0>         0.0000
      7 C7          3.5519    2.4493   -3.5159 C.2       1 <0>         0.0000
      8 C8          2.2198    2.8018   -3.4309 C.2       1 <0>         0.0000
      9 C9          4.0829    2.8610   -4.7887 C.2       1 <0>         0.0000
     10 C10         2.5080    8.0569    4.3628 C.2       1 <0>         0.0000
     11 C11         1.1961    2.6321   -2.3761 C.2       1 <0>         0.0000
     12 C12         1.4087   -0.6618   -0.1946 C.3       1 <0>         0.0000
     13 C13        -0.7784    9.6392    6.3505 C.3       1 <0>         0.0000
     14 C14         0.3236   11.9238    6.3494 C.3       1 <0>         0.0000
     15 C15         1.3099    0.6313    0.6202 C.3       1 <0>         0.0000
     16 C16         1.5419    9.9644    5.3980 C.3       1 <0>         0.0000
     17 C17         0.5595    3.0764    0.6209 C.3       1 <0>         0.0000
     18 C18         0.1671   10.5902    5.6048 C.3       1 <0>         0.0000
     19 C19         0.7428    1.7966   -0.1822 C.3       1 <0>         0.0000
     20 N1          3.2585    3.4667   -5.6064 N.2       1 <0>         0.0000
     21 O1          3.5996    8.3709    4.8103 O.2       1 <0>         0.0000
     22 O2          0.0453    3.0117   -2.5301 O.2       1 <0>         0.0000
     23 O3          1.8105    3.4202    1.2106 O.3       1 <0>         0.0000
     24 O4          1.3819    8.7780    4.5837 O.3       1 <0>         0.0000
     25 O5          1.6755    2.0330   -1.2806 O.3       1 <0>         0.0000
     26 S1          1.7514    3.5922   -4.8989 S.3       1 <0>         0.0000
     27 Cl1         4.4916    1.6370   -2.3231 Cl        1 <0>         0.0000
     28 Cl2         5.7268    2.5892   -5.2601 Cl        1 <0>         0.0000
     29 H1          4.3212    6.2559    3.6357 H         1 <0>         0.0000
     30 H2          0.1545    7.1947    3.2306 H         1 <0>         0.0000
     31 H3          3.9880    4.2044    2.2325 H         1 <0>         0.0000
     32 H4         -0.1913    5.1839    1.8487 H         1 <0>         0.0000
     33 H5          2.0858   -0.5386   -1.0444 H         1 <0>         0.0000
     34 H6          1.7912   -1.4790    0.4245 H         1 <0>         0.0000
     35 H7          0.4292   -0.9658   -0.5814 H         1 <0>         0.0000
     36 H8         -0.3955    9.4202    7.3549 H         1 <0>         0.0000
     37 H9         -0.8892    8.6903    5.8183 H         1 <0>         0.0000
     38 H10        -1.7719   10.0865    6.4623 H         1 <0>         0.0000
     39 H11         0.7619   11.7708    7.3430 H         1 <0>         0.0000
     40 H12        -0.6496   12.4056    6.4879 H         1 <0>         0.0000
     41 H13         0.9681   12.6201    5.8015 H         1 <0>         0.0000
     42 H14         0.6552    0.4827    1.4873 H         1 <0>         0.0000
     43 H15         2.2909    0.9173    1.0092 H         1 <0>         0.0000
     44 H16         2.2253   10.6492    4.8865 H         1 <0>         0.0000
     45 H17         2.0009    9.6809    6.3508 H         1 <0>         0.0000
     46 H18         0.2058    3.8823   -0.0306 H         1 <0>         0.0000
     47 H19        -0.1964    2.8954    1.3972 H         1 <0>         0.0000
     48 H20        -0.2544   10.7943    4.6119 H         1 <0>         0.0000
     49 H21        -0.2277    1.5378   -0.6164 H         1 <0>         0.0000
@<TRIPOS>BOND
     1    1    3 ar
     2    1    5 ar
     3    1   29 1
     4    2    4 ar
     5    2    5 ar
     6    2   30 1
     7    3    6 ar
     8    3   31 1
     9    4    6 ar
    10    4   32 1
    11    5   10 1
    12    6   23 1
    13    7    8 2
    14    7    9 1
    15    7   27 1
    16    8   11 1
    17    8   26 1
    18    9   20 2
    19    9   28 1
    20   10   21 2
    21   10   24 1
    22   11   22 2
    23   11   25 1
    24   12   15 1
    25   12   33 1
    26   12   34 1
    27   12   35 1
    28   13   18 1
    29   13   36 1
    30   13   37 1
    31   13   38 1
    32   14   18 1
    33   14   39 1
    34   14   40 1
    35   14   41 1
    36   15   19 1
    37   15   42 1
    38   15   43 1
    39   16   18 1
    40   16   24 1
    41   16   44 1
    42   16   45 1
    43   17   19 1
    44   17   23 1
    45   17   46 1
    46   17   47 1
    47   18   48 1
    48   19   25 1
    49   19   49 1
    50   20   26 1
