@<TRIPOS>MOLECULE
*****
   22    22     0     0     0
SMALL
NO_CHARGES

@<TRIPOS>ATOM
      1 C1          5.0560    0.6130    1.3120 C.2       1 <0>         0.0000
      2 C2          3.7600    0.2720    0.8460 C.2       1 <0>         0.0000
      3 C3          5.9410    1.2460    0.4820 C.2       1 <0>         0.0000
      4 C4          3.3880    0.5660   -0.4460 C.2       1 <0>         0.0000
      5 C5          4.3160    1.2490   -1.3090 C.2       1 <0>         0.0000
      6 C6          2.0660    0.2380   -0.9360 C.2       1 <0>         0.0000
      7 C7          2.9860   -1.2660   -2.7400 C.3       1 <0>         0.0000
      8 C8          0.5240   -0.7780   -2.5850 C.3       1 <0>         0.0000
      9 N1          5.5580    1.5500   -0.8050 N.am      1 <0>         0.0000
     10 N2          1.8730   -0.6400   -2.0020 N.am      1 <0>         0.0000
     11 O1          4.1440    1.6030   -2.4770 O.2       1 <0>         0.0000
     12 O2          1.0580    0.6740   -0.3840 O.2       1 <0>         0.0000
     13 H1          5.3290    0.3750    2.3090 H         1 <0>         0.0000
     14 H2          3.0750   -0.2080    1.5000 H         1 <0>         0.0000
     15 H3          6.9270    1.5350    0.7550 H         1 <0>         0.0000
     16 H4          3.8100   -1.4330   -2.0600 H         1 <0>         0.0000
     17 H5          3.2640   -0.5950   -3.5420 H         1 <0>         0.0000
     18 H6          2.6390   -2.2130   -3.1320 H         1 <0>         0.0000
     19 H7          0.5360   -1.5680   -3.3220 H         1 <0>         0.0000
     20 H8          0.2700    0.1720   -3.0360 H         1 <0>         0.0000
     21 H9         -0.1620   -1.0180   -1.7820 H         1 <0>         0.0000
     22 H10         6.1910    2.0390   -1.4560 H         1 <0>         0.0000
@<TRIPOS>BOND
     1    1    2 1
     2    1    3 2
     3    1   13 1
     4    2    4 2
     5    2   14 1
     6    3    9 1
     7    3   15 1
     8    4    5 1
     9    4    6 1
    10    5    9 am
    11    5   11 2
    12    6   10 am
    13    6   12 2
    14    7   10 1
    15    7   16 1
    16    7   17 1
    17    7   18 1
    18    8   10 1
    19    8   19 1
    20    8   20 1
    21    8   21 1
    22    9   22 1
