@<TRIPOS>MOLECULE
*****
   39    41     0     0     0
SMALL
NO_CHARGES

@<TRIPOS>ATOM
      1 C1          0.7275    4.0372   -4.9190 C.3       1 <0>         0.0000
      2 C2          0.9034    4.8426   -3.6305 C.3       1 <0>         0.0000
      3 C3          1.1019   -0.6989    1.9005 C.3       1 <0>         0.0000
      4 C4          0.5878    2.5801   -4.4907 C.3       1 <0>         0.0000
      5 C5          0.8424    3.8334   -2.4879 C.3       1 <0>         0.0000
      6 C6          1.0911    0.4817    0.9312 C.3       1 <0>         0.0000
      7 C7         -1.4819    0.7037    0.5351 C.3       1 <0>         0.0000
      8 C8          1.1047   -2.0302    1.1495 C.3       1 <0>         0.0000
      9 C9         -1.6788    1.4781   -0.7817 C.3       1 <0>         0.0000
     10 C10        -0.0324   -1.0436   -0.7478 C.3       1 <0>         0.0000
     11 C11         0.0491    2.6656   -3.0661 C.3       1 <0>         0.0000
     12 C12        -0.0808    0.3223   -0.0436 C.3       1 <0>         0.0000
     13 C13         0.2230    1.3769   -2.2818 C.3       1 <0>         0.0000
     14 N1         -0.0392   -2.1301    0.2413 N.3       1 <0>         0.0000
     15 N2         -0.2076    1.5400   -0.9026 N.3       1 <0>         0.0000
     16 H1         -0.1766    4.3694   -5.4420 H         1 <0>         0.0000
     17 H2          1.5708    4.1730   -5.6035 H         1 <0>         0.0000
     18 H3          1.8481    5.3959   -3.6222 H         1 <0>         0.0000
     19 H4          0.0933    5.5752   -3.5374 H         1 <0>         0.0000
     20 H5          1.9850   -0.6371    2.5464 H         1 <0>         0.0000
     21 H6          0.2217   -0.6496    2.5539 H         1 <0>         0.0000
     22 H7         -0.0764    2.0194   -5.1553 H         1 <0>         0.0000
     23 H8          1.5708    2.0933   -4.5085 H         1 <0>         0.0000
     24 H9          1.8583    3.5198   -2.2177 H         1 <0>         0.0000
     25 H10         0.3725    4.2545   -1.5937 H         1 <0>         0.0000
     26 H11         1.0217    1.4194    1.4959 H         1 <0>         0.0000
     27 H12         2.0401    0.5082    0.3799 H         1 <0>         0.0000
     28 H13        -1.4546    1.3480    1.4227 H         1 <0>         0.0000
     29 H14        -2.1885   -0.1113    0.7141 H         1 <0>         0.0000
     30 H15         2.0421   -2.1519    0.5931 H         1 <0>         0.0000
     31 H16         1.0532   -2.8500    1.8742 H         1 <0>         0.0000
     32 H17        -2.2018    0.9022   -1.5554 H         1 <0>         0.0000
     33 H18        -2.1703    2.4500   -0.6786 H         1 <0>         0.0000
     34 H19        -0.9002   -1.1847   -1.4022 H         1 <0>         0.0000
     35 H20         0.8647   -1.1339   -1.3731 H         1 <0>         0.0000
     36 H21        -1.0165    2.9192   -3.0894 H         1 <0>         0.0000
     37 H22         1.2744    1.0743   -2.2697 H         1 <0>         0.0000
     38 H23        -0.3707    0.5710   -2.7232 H         1 <0>         0.0000
     39 H24        -0.0025   -3.0247   -0.2466 H         1 <0>         0.0000
@<TRIPOS>BOND
     1    1    2 1
     2    1    4 1
     3    1   16 1
     4    1   17 1
     5    2    5 1
     6    2   18 1
     7    2   19 1
     8    3    6 1
     9    3    8 1
    10    3   20 1
    11    3   21 1
    12    4   11 1
    13    4   22 1
    14    4   23 1
    15    5   11 1
    16    5   24 1
    17    5   25 1
    18    6   12 1
    19    6   26 1
    20    6   27 1
    21    7    9 1
    22    7   12 1
    23    7   28 1
    24    7   29 1
    25    8   14 1
    26    8   30 1
    27    8   31 1
    28    9   15 1
    29    9   32 1
    30    9   33 1
    31   10   12 1
    32   10   14 1
    33   10   34 1
    34   10   35 1
    35   11   13 1
    36   11   36 1
    37   12   15 1
    38   13   15 1
    39   13   37 1
    40   13   38 1
    41   14   39 1
