@<TRIPOS>MOLECULE
*****
   30    32     0     0     0
SMALL
NO_CHARGES

@<TRIPOS>ATOM
      1 C1          0.5657   -1.4900    1.7914 C.ar      1 <0>         0.0000
      2 C2         -0.8210   -1.2824    1.7533 C.ar      1 <0>         0.0000
      3 C3          1.4044   -0.9202    0.8260 C.ar      1 <0>         0.0000
      4 C4         -1.3886   -0.4935    0.7472 C.ar      1 <0>         0.0000
      5 C5          0.8402   -0.1355   -0.1810 C.ar      1 <0>         0.0000
      6 C6         -0.5451    0.0724   -0.2106 C.ar      1 <0>         0.0000
      7 C7         -2.2952    2.8388   -0.4352 C.cat     1 <0>         0.0000
      8 C8          1.5209    0.5798   -1.3298 C.3       1 <0>         0.0000
      9 C9          0.3396    0.9430   -2.2657 C.3       1 <0>         0.0000
     10 C10        -3.9867    4.2402    0.2906 C.3       1 <0>         0.0000
     11 C11        -4.5175    2.8193    0.0326 C.3       1 <0>         0.0000
     12 C12        -0.9114    0.9831   -1.3616 C.3       1 <0>         0.0000
     13 N1         -2.5359    3.9976    0.1970 N.pl3     1 <0>         0.0000
     14 N2         -1.1378    2.3865   -0.8663 N.pl3     1 <0>         0.0000
     15 O1         -3.3934    2.1242   -0.6181 O.3       1 <0>         0.0000
     16 H1          0.9920   -2.1110    2.5743 H         1 <0>         0.0000
     17 H2         -1.4559   -1.7482    2.5015 H         1 <0>         0.0000
     18 H3          2.4762   -1.0986    0.8583 H         1 <0>         0.0000
     19 H4         -2.4654   -0.3472    0.7034 H         1 <0>         0.0000
     20 H5          2.0535    1.4718   -0.9740 H         1 <0>         0.0000
     21 H6          2.2638   -0.0424   -1.8356 H         1 <0>         0.0000
     22 H7          0.4830    1.8677   -2.8317 H         1 <0>         0.0000
     23 H8          0.1911    0.1393   -2.9911 H         1 <0>         0.0000
     24 H9         -4.3104    4.9564   -0.4701 H         1 <0>         0.0000
     25 H10        -4.2561    4.6093    1.2810 H         1 <0>         0.0000
     26 H11        -4.7368    2.2720    0.9502 H         1 <0>         0.0000
     27 H12        -5.3614    2.7733   -0.6526 H         1 <0>         0.0000
     28 H13        -1.8249    0.7021   -1.8851 H         1 <0>         0.0000
     29 H14        -1.8454    4.7342    0.2830 H         1 <0>         0.0000
     30 H15        -0.3105    2.9310   -0.6429 H         1 <0>         0.0000
@<TRIPOS>BOND
     1    1    2 ar
     2    1    3 ar
     3    1   16 1
     4    2    4 ar
     5    2   17 1
     6    3    5 ar
     7    3   18 1
     8    4    6 ar
     9    4   19 1
    10    5    6 ar
    11    5    8 1
    12    6   12 1
    13    7   13 1
    14    7   14 2
    15    7   15 1
    16    8    9 1
    17    8   20 1
    18    8   21 1
    19    9   12 1
    20    9   22 1
    21    9   23 1
    22   10   11 1
    23   10   13 1
    24   10   24 1
    25   10   25 1
    26   11   15 1
    27   11   26 1
    28   11   27 1
    29   12   14 1
    30   12   28 1
    31   13   29 1
    32   14   30 1
