@<TRIPOS>MOLECULE
*****
   62    64     0     0     0
SMALL
NO_CHARGES

@<TRIPOS>ATOM
      1 C1         -3.7427    0.5659    1.9824 C.ar      1 <0>         0.0000
      2 C2         -2.4842    0.8752    1.4626 C.ar      1 <0>         0.0000
      3 C3         -4.5975    0.3281   -0.2586 C.ar      1 <0>         0.0000
      4 C4         -3.3390    0.6374   -0.7784 C.ar      1 <0>         0.0000
      5 C5         -4.8155    0.2908    1.1244 C.ar      1 <0>         0.0000
      6 C6         -2.2662    0.9125    0.0796 C.ar      1 <0>         0.0000
      7 C7         -6.9860    1.3046    2.0829 C.3       1 <0>         0.0000
      8 C8         -0.0954   -0.1026   -0.8765 C.3       1 <0>         0.0000
      9 C9         -7.4693    0.9519    3.4983 C.3       1 <0>         0.0000
     10 C10         0.3862    0.2469   -2.2932 C.3       1 <0>         0.0000
     11 C11        -6.1981    0.0275    1.6644 C.3       1 <0>         0.0000
     12 C12        -0.8835    1.1751   -0.4603 C.3       1 <0>         0.0000
     13 C13        -6.6796   -3.2567    6.0903 C.3       1 <0>         0.0000
     14 C14        -8.2861   -3.3594    4.1301 C.3       1 <0>         0.0000
     15 C15         1.2083    4.5555   -2.9337 C.3       1 <0>         0.0000
     16 C16        -0.4010    4.4522   -4.8915 C.3       1 <0>         0.0000
     17 C17        -8.5249   -0.7202    5.6678 C.3       1 <0>         0.0000
     18 C18         1.4410    1.9134   -4.4670 C.3       1 <0>         0.0000
     19 C19        -7.0761   -2.6404    4.7414 C.3       1 <0>         0.0000
     20 C20        -0.0036    3.8375   -3.5421 C.3       1 <0>         0.0000
     21 C21        -7.2822   -1.1111    4.8575 C.3       1 <0>         0.0000
     22 C22         0.1999    2.3076   -3.6559 C.3       1 <0>         0.0000
     23 N1         -7.3980   -0.5189    3.5169 N.3       1 <0>         0.0000
     24 N2          0.3162    1.7176   -2.3144 N.3       1 <0>         0.0000
     25 O1         -6.1029   -0.7455    2.8639 O.3       1 <0>         0.0000
     26 O2         -0.9782    1.9465   -1.6610 O.3       1 <0>         0.0000
     27 H1         -3.8987    0.5293    3.0564 H         1 <0>         0.0000
     28 H2         -1.6609    1.0903    2.1413 H         1 <0>         0.0000
     29 H3         -5.4208    0.1129   -0.9372 H         1 <0>         0.0000
     30 H4         -3.1830    0.6740   -1.8524 H         1 <0>         0.0000
     31 H5         -7.8187    1.4823    1.3980 H         1 <0>         0.0000
     32 H6         -6.3485    2.1908    2.0848 H         1 <0>         0.0000
     33 H7         -0.7323   -0.9893   -0.8754 H         1 <0>         0.0000
     34 H8          0.7384   -0.2781   -0.1923 H         1 <0>         0.0000
     35 H9         -6.8059    1.3935    4.2597 H         1 <0>         0.0000
     36 H10        -8.4954    1.2718    3.6906 H         1 <0>         0.0000
     37 H11         1.4117   -0.0744   -2.4864 H         1 <0>         0.0000
     38 H12        -0.2787   -0.1955   -3.0529 H         1 <0>         0.0000
     39 H13        -6.7855   -0.5346    0.9269 H         1 <0>         0.0000
     40 H14        -0.2964    1.7383    0.2767 H         1 <0>         0.0000
     41 H15        -7.4992   -3.2218    6.8171 H         1 <0>         0.0000
     42 H16        -6.4071   -4.3097    5.9616 H         1 <0>         0.0000
     43 H17        -5.8175   -2.7416    6.5298 H         1 <0>         0.0000
     44 H18        -9.1480   -3.3489    4.8073 H         1 <0>         0.0000
     45 H19        -8.5845   -2.8880    3.1895 H         1 <0>         0.0000
     46 H20        -8.0432   -4.4082    3.9270 H         1 <0>         0.0000
     47 H21         2.0693    4.5427   -3.6121 H         1 <0>         0.0000
     48 H22         0.9674    5.6050   -2.7319 H         1 <0>         0.0000
     49 H23         1.5074    4.0852   -1.9928 H         1 <0>         0.0000
     50 H24         0.4176    4.4149   -5.6193 H         1 <0>         0.0000
     51 H25        -1.2645    3.9377   -5.3290 H         1 <0>         0.0000
     52 H26        -0.6717    5.5059   -4.7641 H         1 <0>         0.0000
     53 H27        -9.4412   -0.9529    5.1177 H         1 <0>         0.0000
     54 H28        -8.5466   -1.2646    6.6149 H         1 <0>         0.0000
     55 H29        -8.5306    0.3469    5.9061 H         1 <0>         0.0000
     56 H30         2.3584    2.1456   -3.9184 H         1 <0>         0.0000
     57 H31         1.4446    0.8459   -4.7036 H         1 <0>         0.0000
     58 H32         1.4624    2.4562   -5.4150 H         1 <0>         0.0000
     59 H33        -6.2310   -2.7725    4.0594 H         1 <0>         0.0000
     60 H34        -0.8476    3.9721   -2.8592 H         1 <0>         0.0000
     61 H35        -6.3894   -0.6907    5.3545 H         1 <0>         0.0000
     62 H36        -0.6942    1.8879   -4.1511 H         1 <0>         0.0000
@<TRIPOS>BOND
     1    1    2 ar
     2    1    5 ar
     3    1   27 1
     4    2    6 ar
     5    2   28 1
     6    3    4 ar
     7    3    5 ar
     8    3   29 1
     9    4    6 ar
    10    4   30 1
    11    5   11 1
    12    6   12 1
    13    7    9 1
    14    7   11 1
    15    7   31 1
    16    7   32 1
    17    8   10 1
    18    8   12 1
    19    8   33 1
    20    8   34 1
    21    9   23 1
    22    9   35 1
    23    9   36 1
    24   10   24 1
    25   10   37 1
    26   10   38 1
    27   11   25 1
    28   11   39 1
    29   12   26 1
    30   12   40 1
    31   13   19 1
    32   13   41 1
    33   13   42 1
    34   13   43 1
    35   14   19 1
    36   14   44 1
    37   14   45 1
    38   14   46 1
    39   15   20 1
    40   15   47 1
    41   15   48 1
    42   15   49 1
    43   16   20 1
    44   16   50 1
    45   16   51 1
    46   16   52 1
    47   17   21 1
    48   17   53 1
    49   17   54 1
    50   17   55 1
    51   18   22 1
    52   18   56 1
    53   18   57 1
    54   18   58 1
    55   19   21 1
    56   19   59 1
    57   20   22 1
    58   20   60 1
    59   21   23 1
    60   21   61 1
    61   22   24 1
    62   22   62 1
    63   23   25 1
    64   24   26 1
