@<TRIPOS>MOLECULE
*****
   62    64     0     0     0
SMALL
NO_CHARGES

@<TRIPOS>ATOM
      1 C1         -3.7435   -0.6876    1.6858 C.ar      1 <0>         0.0000
      2 C2         -2.4327   -0.4273    1.2805 C.ar      1 <0>         0.0000
      3 C3         -4.4064   -0.8837   -0.6232 C.ar      1 <0>         0.0000
      4 C4         -3.0959   -0.6234   -1.0283 C.ar      1 <0>         0.0000
      5 C5         -4.7466   -0.9165    0.7351 C.ar      1 <0>         0.0000
      6 C6         -2.0925   -0.3941   -0.0776 C.ar      1 <0>         0.0000
      7 C7         -6.9542    0.1850    1.4894 C.3       1 <0>         0.0000
      8 C8          0.1098   -1.4875   -0.8608 C.3       1 <0>         0.0000
      9 C9         -7.5698   -0.1359    2.8601 C.3       1 <0>         0.0000
     10 C10         0.7308   -1.1384   -2.2225 C.3       1 <0>         0.0000
     11 C11        -6.1813   -1.1242    1.1489 C.3       1 <0>         0.0000
     12 C12        -0.6589   -0.1835   -0.4930 C.3       1 <0>         0.0000
     13 C13        -7.1837   -4.3538    5.5280 C.3       1 <0>         0.0000
     14 C14        -8.6155   -4.4050    3.4350 C.3       1 <0>         0.0000
     15 C15         1.7674    3.1431   -2.7181 C.3       1 <0>         0.0000
     16 C16         0.3369    3.1265   -4.8126 C.3       1 <0>         0.0000
     17 C17        -8.8778   -1.7468    4.9366 C.3       1 <0>         0.0000
     18 C18         2.0371    0.5135   -4.2671 C.3       1 <0>         0.0000
     19 C19        -7.4349   -3.7316    4.1472 C.3       1 <0>         0.0000
     20 C20         0.5888    2.4801   -3.4432 C.3       1 <0>         0.0000
     21 C21        -7.5868   -2.1943    4.2390 C.3       1 <0>         0.0000
     22 C22         0.7444    0.9451   -3.5628 C.3       1 <0>         0.0000
     23 N1         -7.5611   -1.6080    2.8910 N.3       1 <0>         0.0000
     24 N2          0.7188    0.3342   -2.2259 N.3       1 <0>         0.0000
     25 O1         -6.2244   -1.8920    2.3547 O.3       1 <0>         0.0000
     26 O2         -0.6187    0.6056   -1.6853 O.3       1 <0>         0.0000
     27 H1         -3.9948   -0.7213    2.7416 H         1 <0>         0.0000
     28 H2         -1.6645   -0.2475    2.0303 H         1 <0>         0.0000
     29 H3         -5.1746   -1.0634   -1.3730 H         1 <0>         0.0000
     30 H4         -2.8447   -0.5895   -2.0842 H         1 <0>         0.0000
     31 H5         -7.7184    0.3856    0.7346 H         1 <0>         0.0000
     32 H6         -6.2870    1.0477    1.5398 H         1 <0>         0.0000
     33 H7         -0.5611   -2.3457   -0.9331 H         1 <0>         0.0000
     34 H8          0.8703   -1.7091   -0.1080 H         1 <0>         0.0000
     35 H9         -6.9555    0.2842    3.6732 H         1 <0>         0.0000
     36 H10        -8.5943    0.2273    2.9629 H         1 <0>         0.0000
     37 H11         1.7567   -1.4970   -2.3279 H         1 <0>         0.0000
     38 H12         0.1211   -1.5446   -3.0461 H         1 <0>         0.0000
     39 H13        -6.7205   -1.6688    0.3630 H         1 <0>         0.0000
     40 H14        -0.1149    0.3458    0.2999 H         1 <0>         0.0000
     41 H15        -8.0616   -4.2804    6.1799 H         1 <0>         0.0000
     42 H16        -6.9446   -5.4180    5.4275 H         1 <0>         0.0000
     43 H17        -6.3429   -3.8711    6.0396 H         1 <0>         0.0000
     44 H18        -9.5322   -4.3542    4.0340 H         1 <0>         0.0000
     45 H19        -8.8107   -3.9289    2.4700 H         1 <0>         0.0000
     46 H20        -8.3995   -5.4644    3.2580 H         1 <0>         0.0000
     47 H21         2.6847    3.1050   -3.3170 H         1 <0>         0.0000
     48 H22         1.5491    4.1987   -2.5224 H         1 <0>         0.0000
     49 H23         1.9629    2.6503   -1.7616 H         1 <0>         0.0000
     50 H24         1.2152    3.0667   -5.4653 H         1 <0>         0.0000
     51 H25        -0.5027    2.6512   -5.3331 H         1 <0>         0.0000
     52 H26         0.0954    4.1882   -4.6930 H         1 <0>         0.0000
     53 H27        -9.7519   -1.9462    4.3100 H         1 <0>         0.0000
     54 H28        -9.0039   -2.2824    5.8805 H         1 <0>         0.0000
     55 H29        -8.8600   -0.6785    5.1690 H         1 <0>         0.0000
     56 H30         2.9101    0.7034   -3.6360 H         1 <0>         0.0000
     57 H31         2.0221   -0.5503   -4.5192 H         1 <0>         0.0000
     58 H32         2.1630    1.0668   -5.2009 H         1 <0>         0.0000
     59 H33        -6.5395   -3.9033    3.5425 H         1 <0>         0.0000
     60 H34        -0.3073    2.6386   -2.8359 H         1 <0>         0.0000
     61 H35        -6.7237   -1.8071    4.8101 H         1 <0>         0.0000
     62 H36        -0.1172    0.5664   -4.1417 H         1 <0>         0.0000
@<TRIPOS>BOND
     1    1    2 ar
     2    1    5 ar
     3    1   27 1
     4    2    6 ar
     5    2   28 1
     6    3    4 ar
     7    3    5 ar
     8    3   29 1
     9    4    6 ar
    10    4   30 1
    11    5   11 1
    12    6   12 1
    13    7    9 1
    14    7   11 1
    15    7   31 1
    16    7   32 1
    17    8   10 1
    18    8   12 1
    19    8   33 1
    20    8   34 1
    21    9   23 1
    22    9   35 1
    23    9   36 1
    24   10   24 1
    25   10   37 1
    26   10   38 1
    27   11   25 1
    28   11   39 1
    29   12   26 1
    30   12   40 1
    31   13   19 1
    32   13   41 1
    33   13   42 1
    34   13   43 1
    35   14   19 1
    36   14   44 1
    37   14   45 1
    38   14   46 1
    39   15   20 1
    40   15   47 1
    41   15   48 1
    42   15   49 1
    43   16   20 1
    44   16   50 1
    45   16   51 1
    46   16   52 1
    47   17   21 1
    48   17   53 1
    49   17   54 1
    50   17   55 1
    51   18   22 1
    52   18   56 1
    53   18   57 1
    54   18   58 1
    55   19   21 1
    56   19   59 1
    57   20   22 1
    58   20   60 1
    59   21   23 1
    60   21   61 1
    61   22   24 1
    62   22   62 1
    63   23   25 1
    64   24   26 1
