@<TRIPOS>MOLECULE
*****
   62    64     0     0     0
SMALL
NO_CHARGES

@<TRIPOS>ATOM
      1 C1         -3.9494    1.6444    2.2271 C.ar      1 <0>         0.0000
      2 C2         -2.6575    1.9774    1.8152 C.ar      1 <0>         0.0000
      3 C3         -4.6319    1.4854   -0.0790 C.ar      1 <0>         0.0000
      4 C4         -3.3399    1.8184   -0.4910 C.ar      1 <0>         0.0000
      5 C5         -4.9529    1.3966    1.2813 C.ar      1 <0>         0.0000
      6 C6         -2.3365    2.0661    0.4548 C.ar      1 <0>         0.0000
      7 C7         -7.1939    2.3646    2.1177 C.3       1 <0>         0.0000
      8 C8         -0.0916    1.0946   -0.3658 C.3       1 <0>         0.0000
      9 C9         -7.7772    1.9526    3.4783 C.3       1 <0>         0.0000
     10 C10         0.4938    1.4935   -1.7293 C.3       1 <0>         0.0000
     11 C11        -6.3702    1.1080    1.7062 C.3       1 <0>         0.0000
     12 C12        -0.9188    2.3537    0.0307 C.3       1 <0>         0.0000
     13 C13        -7.1583   -2.3585    5.9452 C.3       1 <0>         0.0000
     14 C14        -8.6172   -2.3823    3.8704 C.3       1 <0>         0.0000
     15 C15         1.3261    5.8259   -2.1610 C.3       1 <0>         0.0000
     16 C16        -0.1241    5.7789   -4.2414 C.3       1 <0>         0.0000
     17 C17        -8.9798    0.1903    5.4942 C.3       1 <0>         0.0000
     18 C18         1.6992    3.2379   -3.7596 C.3       1 <0>         0.0000
     19 C19        -7.4584   -1.6874    4.5975 C.3       1 <0>         0.0000
     20 C20         0.1716    5.1215   -2.8860 C.3       1 <0>         0.0000
     21 C21        -7.6796   -0.1645    4.7613 C.3       1 <0>         0.0000
     22 C22         0.3963    3.5975   -3.0339 C.3       1 <0>         0.0000
     23 N1         -7.7000    0.4825    3.4414 N.3       1 <0>         0.0000
     24 N2          0.4145    2.9637   -1.7075 N.3       1 <0>         0.0000
     25 O1         -6.3594    0.2859    2.8766 O.3       1 <0>         0.0000
     26 O2         -0.9277    3.1641   -1.1477 O.3       1 <0>         0.0000
     27 H1         -4.1854    1.5678    3.2843 H         1 <0>         0.0000
     28 H2         -1.8891    2.1708    2.5613 H         1 <0>         0.0000
     29 H3         -5.4004    1.2920   -0.8251 H         1 <0>         0.0000
     30 H4         -3.1038    1.8949   -1.5482 H         1 <0>         0.0000
     31 H5         -7.9755    2.5679    1.3816 H         1 <0>         0.0000
     32 H6         -6.5635    3.2519    2.2023 H         1 <0>         0.0000
     33 H7         -0.7201    0.2051   -0.4424 H         1 <0>         0.0000
     34 H8          0.6889    0.9006    0.3741 H         1 <0>         0.0000
     35 H9         -7.1732    2.3636    4.3036 H         1 <0>         0.0000
     36 H10        -8.8162    2.2622    3.6082 H         1 <0>         0.0000
     37 H11         1.5334    1.1840   -1.8540 H         1 <0>         0.0000
     38 H12        -0.1080    1.0733   -2.5516 H         1 <0>         0.0000
     39 H13        -6.8984    0.5756    0.9046 H         1 <0>         0.0000
     40 H14        -0.3938    2.8950    0.8285 H         1 <0>         0.0000
     41 H15        -8.0289   -2.3554    6.6109 H         1 <0>         0.0000
     42 H16        -6.8720   -3.4047    5.7933 H         1 <0>         0.0000
     43 H17        -6.3331   -1.8604    6.4674 H         1 <0>         0.0000
     44 H18        -9.5264   -2.4010    4.4825 H         1 <0>         0.0000
     45 H19        -8.8482   -1.8731    2.9306 H         1 <0>         0.0000
     46 H20        -8.3555   -3.4215    3.6428 H         1 <0>         0.0000
     47 H21         2.2378    5.8399   -2.7693 H         1 <0>         0.0000
     48 H22         1.0616    6.8669   -1.9453 H         1 <0>         0.0000
     49 H23         1.5538    5.3267   -1.2150 H         1 <0>         0.0000
     50 H24         0.7496    5.7721   -4.9030 H         1 <0>         0.0000
     51 H25        -0.9454    5.2735   -4.7627 H         1 <0>         0.0000
     52 H26        -0.4142    6.8257   -4.1008 H         1 <0>         0.0000
     53 H27        -9.8525   -0.0206    4.8694 H         1 <0>         0.0000
     54 H28        -9.0681   -0.3933    6.4137 H         1 <0>         0.0000
     55 H29        -9.0077    1.2465    5.7756 H         1 <0>         0.0000
     56 H30         2.5698    3.4578   -3.1351 H         1 <0>         0.0000
     57 H31         1.7303    2.1787   -4.0293 H         1 <0>         0.0000
     58 H32         1.7882    3.8115   -4.6853 H         1 <0>         0.0000
     59 H33        -6.5652   -1.7897    3.9742 H         1 <0>         0.0000
     60 H34        -0.7244    5.2282   -2.2674 H         1 <0>         0.0000
     61 H35        -6.8273    0.2363    5.3390 H         1 <0>         0.0000
     62 H36        -0.4537    3.1892   -3.6098 H         1 <0>         0.0000
@<TRIPOS>BOND
     1    1    2 ar
     2    1    5 ar
     3    1   27 1
     4    2    6 ar
     5    2   28 1
     6    3    4 ar
     7    3    5 ar
     8    3   29 1
     9    4    6 ar
    10    4   30 1
    11    5   11 1
    12    6   12 1
    13    7    9 1
    14    7   11 1
    15    7   31 1
    16    7   32 1
    17    8   10 1
    18    8   12 1
    19    8   33 1
    20    8   34 1
    21    9   23 1
    22    9   35 1
    23    9   36 1
    24   10   24 1
    25   10   37 1
    26   10   38 1
    27   11   25 1
    28   11   39 1
    29   12   26 1
    30   12   40 1
    31   13   19 1
    32   13   41 1
    33   13   42 1
    34   13   43 1
    35   14   19 1
    36   14   44 1
    37   14   45 1
    38   14   46 1
    39   15   20 1
    40   15   47 1
    41   15   48 1
    42   15   49 1
    43   16   20 1
    44   16   50 1
    45   16   51 1
    46   16   52 1
    47   17   21 1
    48   17   53 1
    49   17   54 1
    50   17   55 1
    51   18   22 1
    52   18   56 1
    53   18   57 1
    54   18   58 1
    55   19   21 1
    56   19   59 1
    57   20   22 1
    58   20   60 1
    59   21   23 1
    60   21   61 1
    61   22   24 1
    62   22   62 1
    63   23   25 1
    64   24   26 1
