@<TRIPOS>MOLECULE
*****
   27    29     0     0     0
SMALL
NO_CHARGES

@<TRIPOS>ATOM
      1 C1         -1.8601    0.7488   -1.4873 C.ar      1 <0>         0.0000
      2 C2         -1.2215   -0.1886   -0.6622 C.ar      1 <0>         0.0000
      3 C3         -2.8573    0.3411   -2.3859 C.ar      1 <0>         0.0000
      4 C4         -1.5491   -1.5512   -0.7130 C.ar      1 <0>         0.0000
      5 C5         -3.1882   -1.0108   -2.4423 C.ar      1 <0>         0.0000
      6 C6         -2.5355   -1.9326   -1.6188 C.ar      1 <0>         0.0000
      7 C7         -6.2495   -0.3536   -3.0326 C.2       1 <0>         0.0000
      8 C8         -6.9935    1.4653   -4.0265 C.3       1 <0>         0.0000
      9 C9         -7.8546    1.1934   -2.7663 C.3       1 <0>         0.0000
     10 C10        -3.8193   -3.2121   -2.9821 C.3       1 <0>         0.0000
     11 C11        -4.2637   -1.7526   -3.2112 C.3       1 <0>         0.0000
     12 N1         -5.9244    0.4576   -3.9718 N.2       1 <0>         0.0000
     13 N2         -5.6185   -1.5213   -2.6870 N.pl3     1 <0>         0.0000
     14 O1         -2.9830   -3.2210   -1.7921 O.3       1 <0>         0.0000
     15 O2         -7.3760   -0.0959   -2.2929 O.3       1 <0>         0.0000
     16 H1         -1.5775    1.7963   -1.4304 H         1 <0>         0.0000
     17 H2         -0.4505    0.1433    0.0284 H         1 <0>         0.0000
     18 H3         -3.3709    1.0529   -3.0251 H         1 <0>         0.0000
     19 H4         -1.0543   -2.2829   -0.0816 H         1 <0>         0.0000
     20 H5         -7.5721    1.3507   -4.9517 H         1 <0>         0.0000
     21 H6         -6.5715    2.4753   -4.0244 H         1 <0>         0.0000
     22 H7         -7.6908    1.9246   -1.9687 H         1 <0>         0.0000
     23 H8         -8.9247    1.1018   -2.9627 H         1 <0>         0.0000
     24 H9         -4.6538   -3.8952   -2.8164 H         1 <0>         0.0000
     25 H10        -3.2116   -3.5668   -3.8210 H         1 <0>         0.0000
     26 H11        -4.2917   -1.4962   -4.2702 H         1 <0>         0.0000
     27 H12        -5.7482   -1.7668   -1.7100 H         1 <0>         0.0000
@<TRIPOS>BOND
     1    1    2 ar
     2    1    3 ar
     3    1   16 1
     4    2    4 ar
     5    2   17 1
     6    3    5 ar
     7    3   18 1
     8    4    6 ar
     9    4   19 1
    10    5    6 ar
    11    5   11 1
    12    6   14 1
    13    7   12 2
    14    7   13 1
    15    7   15 1
    16    8    9 1
    17    8   12 1
    18    8   20 1
    19    8   21 1
    20    9   15 1
    21    9   22 1
    22    9   23 1
    23   10   11 1
    24   10   14 1
    25   10   24 1
    26   10   25 1
    27   11   13 1
    28   11   26 1
    29   13   27 1
