@<TRIPOS>MOLECULE
*****
   27    29     0     0     0
SMALL
NO_CHARGES

@<TRIPOS>ATOM
      1 C1         -1.5865    0.9232   -1.5444 C.ar      1 <0>         0.0000
      2 C2         -1.0576    0.0428   -0.5894 C.ar      1 <0>         0.0000
      3 C3         -2.5383    0.4732   -2.4708 C.ar      1 <0>         0.0000
      4 C4         -1.4528   -1.3013   -0.5350 C.ar      1 <0>         0.0000
      5 C5         -2.9337   -0.8610   -2.4272 C.ar      1 <0>         0.0000
      6 C6         -2.3920   -1.7249   -1.4716 C.ar      1 <0>         0.0000
      7 C7         -5.8945   -0.0559   -3.1575 C.2       1 <0>         0.0000
      8 C8         -7.1138    1.7682   -3.3535 C.3       1 <0>         0.0000
      9 C9         -6.1105    1.7070   -4.5350 C.3       1 <0>         0.0000
     10 C10        -3.6539   -3.0709   -2.7917 C.3       1 <0>         0.0000
     11 C11        -3.9964   -1.6216   -3.1962 C.3       1 <0>         0.0000
     12 N1         -6.7621    0.6223   -2.5040 N.2       1 <0>         0.0000
     13 N2         -5.3722   -1.2761   -2.7931 N.pl3     1 <0>         0.0000
     14 O1         -2.8966   -3.0003   -1.5523 O.3       1 <0>         0.0000
     15 O2         -5.4579    0.4175   -4.3715 O.3       1 <0>         0.0000
     16 H1         -1.2563    1.9580   -1.5646 H         1 <0>         0.0000
     17 H2         -0.3217    0.4059    0.1234 H         1 <0>         0.0000
     18 H3         -2.9616    1.1490   -3.2092 H         1 <0>         0.0000
     19 H4         -1.0449   -1.9884    0.2000 H         1 <0>         0.0000
     20 H5         -7.0280    2.7032   -2.7905 H         1 <0>         0.0000
     21 H6         -8.1530    1.6817   -3.6937 H         1 <0>         0.0000
     22 H7         -6.5761    1.7226   -5.5226 H         1 <0>         0.0000
     23 H8         -5.3382    2.4807   -4.4849 H         1 <0>         0.0000
     24 H9         -4.5370   -3.6871   -2.6164 H         1 <0>         0.0000
     25 H10        -3.0170   -3.5434   -3.5465 H         1 <0>         0.0000
     26 H11        -3.9314   -1.4848   -4.2751 H         1 <0>         0.0000
     27 H12        -5.5736   -1.4611   -1.8144 H         1 <0>         0.0000
@<TRIPOS>BOND
     1    1    2 ar
     2    1    3 ar
     3    1   16 1
     4    2    4 ar
     5    2   17 1
     6    3    5 ar
     7    3   18 1
     8    4    6 ar
     9    4   19 1
    10    5    6 ar
    11    5   11 1
    12    6   14 1
    13    7   12 2
    14    7   13 1
    15    7   15 1
    16    8    9 1
    17    8   12 1
    18    8   20 1
    19    8   21 1
    20    9   15 1
    21    9   22 1
    22    9   23 1
    23   10   11 1
    24   10   14 1
    25   10   24 1
    26   10   25 1
    27   11   13 1
    28   11   26 1
    29   13   27 1
