@<TRIPOS>MOLECULE
*****
   49    49     0     0     0
SMALL
NO_CHARGES

@<TRIPOS>ATOM
      1 C1          0.7112   -0.7117    1.8396 C.2       1 <0>         0.0000
      2 C2         -1.7011   -2.8017    1.0643 C.2       1 <0>         0.0000
      3 C3         -1.4710    0.2803    4.1279 C.3       1 <0>         0.0000
      4 C4         -1.3453    0.8780    1.9229 C.3       1 <0>         0.0000
      5 C5         -1.2476   -1.0436    3.3977 C.3       1 <0>         0.0000
      6 C6         -0.8254   -0.6055    1.9497 C.3       1 <0>         0.0000
      7 C7          3.4463    0.5774    1.5457 C.3       1 <0>         0.0000
      8 C8          2.9504    1.2314    3.9303 C.3       1 <0>         0.0000
      9 C9          3.2573   -1.2061    3.3604 C.3       1 <0>         0.0000
     10 C10        -3.3806   -5.3565    0.8405 C.3       1 <0>         0.0000
     11 C11        -3.1450   -4.7712   -1.6056 C.3       1 <0>         0.0000
     12 C12        -1.0887   -5.3634   -0.2721 C.3       1 <0>         0.0000
     13 C13         2.7829    0.1571    2.8572 C.3       1 <0>         0.0000
     14 C14        -2.4824   -4.7352   -0.2292 C.3       1 <0>         0.0000
     15 N1         -1.4627   -1.4082    0.8812 N.am      1 <0>         0.0000
     16 O1          1.2807   -1.4921    1.0867 O.2       1 <0>         0.0000
     17 O2         -1.3583   -3.4077    2.0588 O.2       1 <0>         0.0000
     18 O3         -0.4356    0.3841   -0.5982 O.2       1 <0>         0.0000
     19 O4         -2.2778   -1.0154   -1.6094 O.2       1 <0>         0.0000
     20 O5         -2.0607    1.1055    3.1397 O.3       1 <0>         0.0000
     21 O6         -0.0606   -2.0138   -1.2262 O.3       1 <0>         0.0000
     22 O7          1.3009    0.1254    2.6749 O.3       1 <0>         0.0000
     23 O8         -2.3604   -3.2745    0.0132 O.3       1 <0>         0.0000
     24 F1         -0.2822   -1.8022    4.0464 F         1 <0>         0.0000
     25 S1         -1.1219   -0.8916   -0.7561 S.o2      1 <0>         0.0000
     26 H1         -2.1682    0.1853    4.9626 H         1 <0>         0.0000
     27 H2         -0.5128    0.6774    4.4871 H         1 <0>         0.0000
     28 H3         -0.5049    1.5698    1.8332 H         1 <0>         0.0000
     29 H4         -2.0393    1.0494    1.1048 H         1 <0>         0.0000
     30 H5         -2.1644   -1.6276    3.3559 H         1 <0>         0.0000
     31 H6          3.3443   -0.1908    0.7791 H         1 <0>         0.0000
     32 H7          3.0081    1.5086    1.1746 H         1 <0>         0.0000
     33 H8          4.5120    0.7500    1.7263 H         1 <0>         0.0000
     34 H9          2.4299    0.9444    4.8484 H         1 <0>         0.0000
     35 H10         2.5496    2.1891    3.5859 H         1 <0>         0.0000
     36 H11         4.0116    1.3621    4.1600 H         1 <0>         0.0000
     37 H12         2.6853   -1.5073    4.2423 H         1 <0>         0.0000
     38 H13         3.1548   -1.9756    2.5950 H         1 <0>         0.0000
     39 H14         4.3127   -1.1319    3.6413 H         1 <0>         0.0000
     40 H15        -2.9101   -5.3237    1.8240 H         1 <0>         0.0000
     41 H16        -4.3388   -4.8298    0.8850 H         1 <0>         0.0000
     42 H17        -3.5786   -6.4014    0.5804 H         1 <0>         0.0000
     43 H18        -2.5176   -4.2669   -2.3448 H         1 <0>         0.0000
     44 H19        -4.1146   -4.2667   -1.5784 H         1 <0>         0.0000
     45 H20        -3.2972   -5.8090   -1.9163 H         1 <0>         0.0000
     46 H21        -0.4589   -4.8334   -0.9923 H         1 <0>         0.0000
     47 H22        -0.6078   -5.3464    0.7072 H         1 <0>         0.0000
     48 H23        -1.1777   -6.4053   -0.5950 H         1 <0>         0.0000
     49 H24         0.6711   -1.9899   -0.5523 H         1 <0>         0.0000
@<TRIPOS>BOND
     1    1    6 1
     2    1   16 2
     3    1   22 1
     4    2   15 am
     5    2   17 2
     6    2   23 1
     7    3    5 1
     8    3   20 1
     9    3   26 1
    10    3   27 1
    11    4    6 1
    12    4   20 1
    13    4   28 1
    14    4   29 1
    15    5    6 1
    16    5   24 1
    17    5   30 1
    18    6   15 1
    19    7   13 1
    20    7   31 1
    21    7   32 1
    22    7   33 1
    23    8   13 1
    24    8   34 1
    25    8   35 1
    26    8   36 1
    27    9   13 1
    28    9   37 1
    29    9   38 1
    30    9   39 1
    31   10   14 1
    32   10   40 1
    33   10   41 1
    34   10   42 1
    35   11   14 1
    36   11   43 1
    37   11   44 1
    38   11   45 1
    39   12   14 1
    40   12   46 1
    41   12   47 1
    42   12   48 1
    43   13   22 1
    44   14   23 1
    45   15   25 1
    46   18   25 2
    47   19   25 2
    48   21   25 1
    49   21   49 1
