@<TRIPOS>MOLECULE
*****
   62    64     0     0     0
SMALL
NO_CHARGES

@<TRIPOS>ATOM
      1 C1         -4.8538   -1.1316    0.5078 C.ar      1 <0>         0.0000
      2 C2         -3.4654   -1.0442    0.5831 C.ar      1 <0>         0.0000
      3 C3         -4.9858    1.2334    0.0814 C.ar      1 <0>         0.0000
      4 C4         -3.5907    1.3192    0.1442 C.ar      1 <0>         0.0000
      5 C5         -5.6375    0.0103    0.2797 C.ar      1 <0>         0.0000
      6 C6         -2.8158    0.1872    0.4117 C.ar      1 <0>         0.0000
      7 C7         -7.9547    1.1093    0.6966 C.3       1 <0>         0.0000
      8 C8         -0.8116    0.2224    2.0362 C.3       1 <0>         0.0000
      9 C9         -8.9736    0.4512    1.6448 C.3       1 <0>         0.0000
     10 C10         0.2884   -0.8473    1.9530 C.3       1 <0>         0.0000
     11 C11        -7.1509   -0.1119    0.2007 C.3       1 <0>         0.0000
     12 C12        -1.3214    0.3023    0.5664 C.3       1 <0>         0.0000
     13 C13        -5.2471   -1.5541    4.3171 C.3       1 <0>         0.0000
     14 C14        -7.5164   -2.6938    4.4487 C.3       1 <0>         0.0000
     15 C15         2.4545   -0.9498   -1.9125 C.3       1 <0>         0.0000
     16 C16         1.8300   -3.4034   -2.0657 C.3       1 <0>         0.0000
     17 C17        -7.9008    0.2721    4.4021 C.3       1 <0>         0.0000
     18 C18         2.5567   -2.3266    0.8220 C.3       1 <0>         0.0000
     19 C19        -6.5922   -1.7933    3.6185 C.3       1 <0>         0.0000
     20 C20         1.4524   -2.0319   -1.4886 C.3       1 <0>         0.0000
     21 C21        -7.2567   -0.4559    3.2155 C.3       1 <0>         0.0000
     22 C22         1.2540   -2.0987    0.0448 C.3       1 <0>         0.0000
     23 N1         -8.2914   -0.7316    2.1811 N.3       1 <0>         0.0000
     24 N2          0.6392   -0.8517    0.5231 N.3       1 <0>         0.0000
     25 O1         -7.6440   -1.2392    0.9904 O.3       1 <0>         0.0000
     26 O2         -0.6927   -0.8010   -0.0926 O.3       1 <0>         0.0000
     27 H1         -5.3465   -2.0887    0.6434 H         1 <0>         0.0000
     28 H2         -2.8726   -1.9358    0.7666 H         1 <0>         0.0000
     29 H3         -5.5603    2.1321   -0.1275 H         1 <0>         0.0000
     30 H4         -3.1044    2.2797   -0.0140 H         1 <0>         0.0000
     31 H5         -8.4370    1.6498   -0.1214 H         1 <0>         0.0000
     32 H6         -7.3177    1.8117    1.2389 H         1 <0>         0.0000
     33 H7         -1.6058   -0.0714    2.7255 H         1 <0>         0.0000
     34 H8         -0.4186    1.1899    2.3583 H         1 <0>         0.0000
     35 H9         -9.3154    1.1073    2.4447 H         1 <0>         0.0000
     36 H10        -9.8484    0.0996    1.0903 H         1 <0>         0.0000
     37 H11         1.1705   -0.5987    2.5465 H         1 <0>         0.0000
     38 H12        -0.0961   -1.8293    2.2735 H         1 <0>         0.0000
     39 H13        -7.4300   -0.3621   -0.8290 H         1 <0>         0.0000
     40 H14        -0.9686    1.2361    0.1099 H         1 <0>         0.0000
     41 H15        -5.3651   -1.0218    5.2685 H         1 <0>         0.0000
     42 H16        -4.7557   -2.5079    4.5389 H         1 <0>         0.0000
     43 H17        -4.5718   -0.9694    3.6820 H         1 <0>         0.0000
     44 H18        -7.6881   -2.2879    5.4523 H         1 <0>         0.0000
     45 H19        -8.4853   -2.8141    3.9554 H         1 <0>         0.0000
     46 H20        -7.0706   -3.6871    4.5707 H         1 <0>         0.0000
     47 H21         3.4776   -1.2056   -1.6135 H         1 <0>         0.0000
     48 H22         2.4521   -0.8345   -3.0020 H         1 <0>         0.0000
     49 H23         2.1984    0.0147   -1.4652 H         1 <0>         0.0000
     50 H24         2.8297   -3.7232   -1.7504 H         1 <0>         0.0000
     51 H25         1.1166   -4.1779   -1.7610 H         1 <0>         0.0000
     52 H26         1.8332   -3.3671   -3.1604 H         1 <0>         0.0000
     53 H27        -8.8502   -0.1942    4.6813 H         1 <0>         0.0000
     54 H28        -7.2376    0.2364    5.2705 H         1 <0>         0.0000
     55 H29        -8.0859    1.3279    4.1848 H         1 <0>         0.0000
     56 H30         3.1929   -1.4374    0.7922 H         1 <0>         0.0000
     57 H31         2.3624   -2.5735    1.8694 H         1 <0>         0.0000
     58 H32         3.1143   -3.1609    0.3898 H         1 <0>         0.0000
     59 H33        -6.3836   -2.3134    2.6805 H         1 <0>         0.0000
     60 H34         0.4757   -1.7609   -1.9000 H         1 <0>         0.0000
     61 H35        -6.4659    0.1883    2.8040 H         1 <0>         0.0000
     62 H36         0.5651   -2.9361    0.2561 H         1 <0>         0.0000
@<TRIPOS>BOND
     1    1    2 ar
     2    1    5 ar
     3    1   27 1
     4    2    6 ar
     5    2   28 1
     6    3    4 ar
     7    3    5 ar
     8    3   29 1
     9    4    6 ar
    10    4   30 1
    11    5   11 1
    12    6   12 1
    13    7    9 1
    14    7   11 1
    15    7   31 1
    16    7   32 1
    17    8   10 1
    18    8   12 1
    19    8   33 1
    20    8   34 1
    21    9   23 1
    22    9   35 1
    23    9   36 1
    24   10   24 1
    25   10   37 1
    26   10   38 1
    27   11   25 1
    28   11   39 1
    29   12   26 1
    30   12   40 1
    31   13   19 1
    32   13   41 1
    33   13   42 1
    34   13   43 1
    35   14   19 1
    36   14   44 1
    37   14   45 1
    38   14   46 1
    39   15   20 1
    40   15   47 1
    41   15   48 1
    42   15   49 1
    43   16   20 1
    44   16   50 1
    45   16   51 1
    46   16   52 1
    47   17   21 1
    48   17   53 1
    49   17   54 1
    50   17   55 1
    51   18   22 1
    52   18   56 1
    53   18   57 1
    54   18   58 1
    55   19   21 1
    56   19   59 1
    57   20   22 1
    58   20   60 1
    59   21   23 1
    60   21   61 1
    61   22   24 1
    62   22   62 1
    63   23   25 1
    64   24   26 1
