@<TRIPOS>MOLECULE
*****
   19    20     0     0     0
SMALL
NO_CHARGES

@<TRIPOS>ATOM
      1 C1          1.6226   -1.2733    5.8013 C.1       1 <0>         0.0000
      2 C2          0.7160    0.3961    1.9660 C.ar      1 <0>         0.0000
      3 C3          1.0138   -0.1342    3.2208 C.ar      1 <0>         0.0000
      4 C4          0.3581   -1.8584    1.2006 C.ar      1 <0>         0.0000
      5 C5          0.3823   -0.4852    0.9389 C.ar      1 <0>         0.0000
      6 C6          0.9664   -1.5234    3.3993 C.ar      1 <0>         0.0000
      7 C7          0.5166   -3.4449    5.1075 C.3       1 <0>         0.0000
      8 C8          1.9549   -3.5428    4.7246 C.3       1 <0>         0.0000
      9 C9          1.2742   -2.1652    4.7201 C.3       1 <0>         0.0000
     10 N1          1.9038   -0.5548    6.6737 N.1       1 <0>         0.0000
     11 N2          0.6437   -2.3625    2.4028 N.ar      1 <0>         0.0000
     12 Cl1        -0.0034    0.1061   -0.6617 Cl        1 <0>         0.0000
     13 H1          0.7425    1.4672    1.7902 H         1 <0>         0.0000
     14 H2          1.2779    0.5213    4.0442 H         1 <0>         0.0000
     15 H3          0.1003   -2.5641    0.4136 H         1 <0>         0.0000
     16 H4         -0.2220   -3.7634    4.3801 H         1 <0>         0.0000
     17 H5          0.2429   -3.5479    6.1520 H         1 <0>         0.0000
     18 H6          2.6941   -3.7149    5.4997 H         1 <0>         0.0000
     19 H7          2.1895   -3.9279    3.7383 H         1 <0>         0.0000
@<TRIPOS>BOND
     1    1    9 1
     2    1   10 3
     3    2    3 ar
     4    2    5 ar
     5    2   13 1
     6    3    6 ar
     7    3   14 1
     8    4    5 ar
     9    4   11 ar
    10    4   15 1
    11    5   12 1
    12    6    9 1
    13    6   11 ar
    14    7    8 1
    15    7    9 1
    16    7   16 1
    17    7   17 1
    18    8    9 1
    19    8   18 1
    20    8   19 1
