@<TRIPOS>MOLECULE
*****
   24    25     0     0     0
SMALL
NO_CHARGES

@<TRIPOS>ATOM
      1 C1          4.8240   -0.3770    1.3230 C.2       1 <0>         0.0000
      2 C2          3.7570   -0.8940    0.5310 C.2       1 <0>         0.0000
      3 C3          5.6050    0.6340    0.8440 C.2       1 <0>         0.0000
      4 C4          3.5130   -0.3770   -0.7120 C.2       1 <0>         0.0000
      5 C5          4.3380    0.6870   -1.2140 C.2       1 <0>         0.0000
      6 C6          0.2640   -1.6910   -0.4610 C.2       1 <0>         0.0000
      7 C7          1.8120   -3.3580   -1.4660 C.2       1 <0>         0.0000
      8 C8          1.0940   -0.7000   -0.8240 C.2       1 <0>         0.0000
      9 C9          2.6440   -2.3680   -1.8290 C.2       1 <0>         0.0000
     10 C10         0.4810   -3.1630   -0.7620 C.3       1 <0>         0.0000
     11 C11         2.3900   -0.8900   -1.5940 C.3       1 <0>         0.0000
     12 N1          5.3490    1.1480   -0.4140 N.am      1 <0>         0.0000
     13 O1          4.2380    1.2470   -2.3090 O.2       1 <0>         0.0000
     14 H1          5.0000   -0.7880    2.2840 H         1 <0>         0.0000
     15 H2          3.1560   -1.6810    0.9130 H         1 <0>         0.0000
     16 H3          6.4170    1.0750    1.3700 H         1 <0>         0.0000
     17 H4         -0.6270   -1.4790    0.0740 H         1 <0>         0.0000
     18 H5          2.0580   -4.3700   -1.6680 H         1 <0>         0.0000
     19 H6          0.8750    0.3090   -0.5820 H         1 <0>         0.0000
     20 H7          3.5580   -2.5800   -2.3230 H         1 <0>         0.0000
     21 H8          0.5050   -3.7040    0.1750 H         1 <0>         0.0000
     22 H9         -0.3100   -3.5020   -1.4170 H         1 <0>         0.0000
     23 H10         2.3370   -0.3680   -2.5410 H         1 <0>         0.0000
     24 H11         5.9130    1.9110   -0.8140 H         1 <0>         0.0000
@<TRIPOS>BOND
     1    1    2 1
     2    1    3 2
     3    1   14 1
     4    2    4 2
     5    2   15 1
     6    3   12 1
     7    3   16 1
     8    4    5 1
     9    4   11 1
    10    5   12 am
    11    5   13 2
    12    6    8 2
    13    6   10 1
    14    6   17 1
    15    7    9 2
    16    7   10 1
    17    7   18 1
    18    8   11 1
    19    8   19 1
    20    9   11 1
    21    9   20 1
    22   10   21 1
    23   10   22 1
    24   11   23 1
    25   12   24 1
