@<TRIPOS>MOLECULE
*****
   48    51     0     0     0
SMALL
NO_CHARGES

@<TRIPOS>ATOM
      1 C1         -3.3220   -5.5558   -1.2825 C.2       1 <0>         0.0000
      2 C2         -2.2980   -6.4010   -0.9467 C.2       1 <0>         0.0000
      3 C3         -3.2615   -5.0840    0.8820 C.2       1 <0>         0.0000
      4 C4         -0.4362   -0.9145    1.9701 C.2       1 <0>         0.0000
      5 C5          1.2370   -2.5848    3.6831 C.3       1 <0>         0.0000
      6 C6         -0.0939   -2.0650    4.2147 C.3       1 <0>         0.0000
      7 C7         -2.4095   -1.2123    3.5570 C.3       1 <0>         0.0000
      8 C8          1.1107   -0.5260   -0.6909 C.3       1 <0>         0.0000
      9 C9          1.4164    1.3532    0.9536 C.3       1 <0>         0.0000
     10 C10         1.8654   -1.5470    2.7630 C.3       1 <0>         0.0000
     11 C11        -3.3780   -2.3956    3.5383 C.3       1 <0>         0.0000
     12 C12        -1.5010   -3.1541    2.3838 C.3       1 <0>         0.0000
     13 C13         1.8763    0.3364   -1.6987 C.3       1 <0>         0.0000
     14 C14         2.1613    2.1021   -0.1558 C.3       1 <0>         0.0000
     15 C15         1.5586   -0.1604    0.7308 C.3       1 <0>         0.0000
     16 C16        -1.0677   -1.8082    3.0564 C.3       1 <0>         0.0000
     17 C17        -3.5908   -4.4252    2.1954 C.3       1 <0>         0.0000
     18 N1         -3.8583   -4.8224   -0.2478 N.2       1 <0>         0.0000
     19 N2          0.9247   -0.9853    1.7824 N.am      1 <0>         0.0000
     20 N3         -2.9614   -3.1202    2.3392 N.3       1 <0>         0.0000
     21 O1         -1.1505   -0.2220    1.2421 O.2       1 <0>         0.0000
     22 O2          1.7040    1.7311   -1.4539 O.3       1 <0>         0.0000
     23 S1         -1.9806   -6.2832    0.7515 S.3       1 <0>         0.0000
     24 H1         -3.7256   -5.4379   -2.2825 H         1 <0>         0.0000
     25 H2         -1.7386   -7.0720   -1.5853 H         1 <0>         0.0000
     26 H3          1.9360   -2.7992    4.4986 H         1 <0>         0.0000
     27 H4          1.0841   -3.5215    3.1359 H         1 <0>         0.0000
     28 H5         -0.5423   -2.7740    4.9202 H         1 <0>         0.0000
     29 H6          0.0726   -1.1298    4.7656 H         1 <0>         0.0000
     30 H7         -2.7464   -0.4508    2.8533 H         1 <0>         0.0000
     31 H8         -2.3105   -0.7645    4.5501 H         1 <0>         0.0000
     32 H9          0.0388   -0.3533   -0.7950 H         1 <0>         0.0000
     33 H10         1.3096   -1.5869   -0.8869 H         1 <0>         0.0000
     34 H11         1.8316    1.6362    1.9293 H         1 <0>         0.0000
     35 H12         0.3595    1.6246    0.9377 H         1 <0>         0.0000
     36 H13         2.2872   -0.7278    3.3660 H         1 <0>         0.0000
     37 H14         2.6983   -1.9971    2.2125 H         1 <0>         0.0000
     38 H15        -3.2710   -3.0126    4.4539 H         1 <0>         0.0000
     39 H16        -4.4270   -2.0924    3.4591 H         1 <0>         0.0000
     40 H17        -1.0889   -3.2846    1.3797 H         1 <0>         0.0000
     41 H18        -1.1377   -3.9993    3.0011 H         1 <0>         0.0000
     42 H19         2.9523    0.0898   -1.6728 H         1 <0>         0.0000
     43 H20         1.5144    0.1615   -2.7152 H         1 <0>         0.0000
     44 H21         2.0008    3.1804   -0.0753 H         1 <0>         0.0000
     45 H22         3.2465    1.9127   -0.0797 H         1 <0>         0.0000
     46 H23         2.6280   -0.3967    0.7979 H         1 <0>         0.0000
     47 H24        -4.6756   -4.2875    2.2287 H         1 <0>         0.0000
     48 H25        -3.3129   -5.1067    3.0241 H         1 <0>         0.0000
@<TRIPOS>BOND
     1    1    2 2
     2    1   18 1
     3    1   24 1
     4    2   23 1
     5    2   25 1
     6    3   17 1
     7    3   18 2
     8    3   23 1
     9    4   16 1
    10    4   19 am
    11    4   21 2
    12    5    6 1
    13    5   10 1
    14    5   26 1
    15    5   27 1
    16    6   16 1
    17    6   28 1
    18    6   29 1
    19    7   11 1
    20    7   16 1
    21    7   30 1
    22    7   31 1
    23    8   13 1
    24    8   15 1
    25    8   32 1
    26    8   33 1
    27    9   14 1
    28    9   15 1
    29    9   34 1
    30    9   35 1
    31   10   19 1
    32   10   36 1
    33   10   37 1
    34   11   20 1
    35   11   38 1
    36   11   39 1
    37   12   16 1
    38   12   20 1
    39   12   40 1
    40   12   41 1
    41   13   22 1
    42   13   42 1
    43   13   43 1
    44   14   22 1
    45   14   44 1
    46   14   45 1
    47   15   19 1
    48   15   46 1
    49   17   20 1
    50   17   47 1
    51   17   48 1
