@<TRIPOS>MOLECULE
*****
   28    29     0     0     0
SMALL
NO_CHARGES

@<TRIPOS>ATOM
      1 C1          2.7524   -4.5920   -4.1734 C.1       1 <0>         0.0000
      2 C2          2.4318   -0.3202    0.3747 C.ar      1 <0>         0.0000
      3 C3          1.2590   -0.0756    1.0894 C.ar      1 <0>         0.0000
      4 C4          2.5059   -2.5751    1.2475 C.ar      1 <0>         0.0000
      5 C5          3.1471   -3.4980   -3.3671 C.2       1 <0>         0.0000
      6 C6          3.0651   -1.5672    0.4537 C.ar      1 <0>         0.0000
      7 C7          0.7191   -1.0867    1.8795 C.ar      1 <0>         0.0000
      8 C8          1.3315   -2.3380    1.9632 C.ar      1 <0>         0.0000
      9 C9          3.1274   -2.0967   -3.6683 C.2       1 <0>         0.0000
     10 C10         3.7003   -3.5876   -2.0846 C.2       1 <0>         0.0000
     11 C11         2.6446   -1.4475   -4.9256 C.3       1 <0>         0.0000
     12 C12         4.3105   -1.8440   -0.3630 C.3       1 <0>         0.0000
     13 N1          2.4366   -5.5137   -4.8187 N.1       1 <0>         0.0000
     14 N2          3.6296   -1.3948   -2.6635 N.2       1 <0>         0.0000
     15 N3          3.9876   -2.3196   -1.7046 N.pl3     1 <0>         0.0000
     16 N4          3.8793   -4.6916   -1.2573 N.pl3     1 <0>         0.0000
     17 F1         -0.4132   -0.8420    2.5693 F         1 <0>         0.0000
     18 Br1         0.5644   -3.7080    3.0427 Br        1 <0>         0.0000
     19 H1          2.8497    0.4566   -0.2588 H         1 <0>         0.0000
     20 H2          0.7519    0.8835    1.0457 H         1 <0>         0.0000
     21 H3          2.9707   -3.5545    1.2978 H         1 <0>         0.0000
     22 H4          1.5890   -1.6793   -5.1012 H         1 <0>         0.0000
     23 H5          2.7623   -0.3645   -4.8531 H         1 <0>         0.0000
     24 H6          3.2065   -1.8075   -5.7937 H         1 <0>         0.0000
     25 H7          4.9047   -0.9376   -0.4911 H         1 <0>         0.0000
     26 H8          4.9391   -2.5898    0.1291 H         1 <0>         0.0000
     27 H9          4.8050   -4.7539   -0.8431 H         1 <0>         0.0000
     28 H10         3.6538   -5.5593   -1.7364 H         1 <0>         0.0000
@<TRIPOS>BOND
     1    1    5 1
     2    1   13 3
     3    2    3 ar
     4    2    6 ar
     5    2   19 1
     6    3    7 ar
     7    3   20 1
     8    4    6 ar
     9    4    8 ar
    10    4   21 1
    11    5    9 1
    12    5   10 2
    13    6   12 1
    14    7    8 ar
    15    7   17 1
    16    8   18 1
    17    9   11 1
    18    9   14 2
    19   10   15 1
    20   10   16 1
    21   11   22 1
    22   11   23 1
    23   11   24 1
    24   12   15 1
    25   12   25 1
    26   12   26 1
    27   14   15 1
    28   16   27 1
    29   16   28 1
