@<TRIPOS>MOLECULE
*****
   29    30     0     0     0
SMALL
NO_CHARGES

@<TRIPOS>ATOM
      1 C1         -0.8938   -3.2032    4.6527 C.1       1 <0>         0.0000
      2 C2         -3.8256    2.2217    1.9377 C.2       1 <0>         0.0000
      3 C3          0.0333   -3.7941    3.7577 C.2       1 <0>         0.0000
      4 C4         -2.2637    0.3699    1.6189 C.2       1 <0>         0.0000
      5 C5         -2.3046    0.9134    2.8976 C.2       1 <0>         0.0000
      6 C6          0.2724   -3.4974    2.4335 C.2       1 <0>         0.0000
      7 C7          1.5442   -5.1629    3.0626 C.2       1 <0>         0.0000
      8 C8         -1.4641   -0.7410    1.1107 C.2       1 <0>         0.0000
      9 C9         -1.4849    0.4975    4.0798 C.3       1 <0>         0.0000
     10 C10         2.5732   -6.2124    2.8455 C.3       1 <0>         0.0000
     11 C11        -1.1742   -0.8654   -0.3700 C.3       1 <0>         0.0000
     12 N1         -1.6587   -2.7349    5.3990 N.1       1 <0>         0.0000
     13 N2         -3.1947    1.9583    3.0469 N.2       1 <0>         0.0000
     14 N3          0.8726   -4.8650    4.1203 N.2       1 <0>         0.0000
     15 N4         -1.0153   -1.5903    1.9835 N.2       1 <0>         0.0000
     16 N5         -0.2224   -2.6053    1.5281 N.pl3     1 <0>         0.0000
     17 O1          1.2250   -4.3512    1.9678 O.3       1 <0>         0.0000
     18 S1         -3.3933    1.2245    0.5835 S.3       1 <0>         0.0000
     19 H1         -4.5719    3.0025    1.8344 H         1 <0>         0.0000
     20 H2         -1.4254    1.3305    4.7838 H         1 <0>         0.0000
     21 H3         -1.9329   -0.3606    4.5903 H         1 <0>         0.0000
     22 H4         -0.4815    0.1871    3.7794 H         1 <0>         0.0000
     23 H5          2.2600   -6.9142    2.0655 H         1 <0>         0.0000
     24 H6          3.5271   -5.7712    2.5387 H         1 <0>         0.0000
     25 H7          2.7155   -6.7571    3.7794 H         1 <0>         0.0000
     26 H8         -0.0994   -0.7551   -0.5676 H         1 <0>         0.0000
     27 H9         -1.4892   -1.8453   -0.7480 H         1 <0>         0.0000
     28 H10        -1.6799   -0.0995   -0.9570 H         1 <0>         0.0000
     29 H11         0.2100   -2.5887    0.6079 H         1 <0>         0.0000
@<TRIPOS>BOND
     1    1    3 1
     2    1   12 3
     3    2   13 2
     4    2   18 1
     5    2   19 1
     6    3    6 2
     7    3   14 1
     8    4    5 2
     9    4    8 1
    10    4   18 1
    11    5    9 1
    12    5   13 1
    13    6   16 1
    14    6   17 1
    15    7   10 1
    16    7   14 2
    17    7   17 1
    18    8   11 1
    19    8   15 2
    20    9   20 1
    21    9   21 1
    22    9   22 1
    23   10   23 1
    24   10   24 1
    25   10   25 1
    26   11   26 1
    27   11   27 1
    28   11   28 1
    29   15   16 1
    30   16   29 1
