@<TRIPOS>MOLECULE
*****
   48    51     0     0     0
SMALL
NO_CHARGES

@<TRIPOS>ATOM
      1 C1         -1.1059   -5.1283    6.3199 C.2       1 <0>         0.0000
      2 C2         -0.3293   -5.8659    5.4664 C.2       1 <0>         0.0000
      3 C3         -2.2093   -4.6538    4.4494 C.2       1 <0>         0.0000
      4 C4          0.0647   -0.5708    1.9276 C.2       1 <0>         0.0000
      5 C5          1.4640   -2.6516    3.3684 C.3       1 <0>         0.0000
      6 C6          0.2529   -2.0184    4.0399 C.3       1 <0>         0.0000
      7 C7         -1.7766   -0.5386    3.6725 C.3       1 <0>         0.0000
      8 C8          1.8212   -0.1680   -0.6314 C.3       1 <0>         0.0000
      9 C9          2.0490    1.6341    1.1093 C.3       1 <0>         0.0000
     10 C10         2.2597   -1.5807    2.6378 C.3       1 <0>         0.0000
     11 C11        -2.7723   -1.5850    4.1783 C.3       1 <0>         0.0000
     12 C12        -1.5556   -2.4691    2.2930 C.3       1 <0>         0.0000
     13 C13         2.6847    0.7094   -1.5426 C.3       1 <0>         0.0000
     14 C14         2.9027    2.3991    0.0933 C.3       1 <0>         0.0000
     15 C15         2.1644    0.1274    0.8358 C.3       1 <0>         0.0000
     16 C16        -0.6816   -1.3916    2.9924 C.3       1 <0>         0.0000
     17 C17        -3.1708   -3.9532    3.5122 C.3       1 <0>         0.0000
     18 N1         -2.1582   -4.4517    5.7422 N.2       1 <0>         0.0000
     19 N2          1.4212   -0.7167    1.7956 N.am      1 <0>         0.0000
     20 N3         -2.7690   -2.6087    3.1201 N.3       1 <0>         0.0000
     21 O1         -0.5759    0.1858    1.1889 O.2       1 <0>         0.0000
     22 O2          2.5358    2.0973   -1.2511 O.3       1 <0>         0.0000
     23 S1         -0.9406   -5.7196    3.8527 S.3       1 <0>         0.0000
     24 H1         -0.9508   -5.0543    7.3910 H         1 <0>         0.0000
     25 H2          0.5305   -6.4810    5.6976 H         1 <0>         0.0000
     26 H3          2.1139   -3.1384    4.1031 H         1 <0>         0.0000
     27 H4          1.1450   -3.4256    2.6621 H         1 <0>         0.0000
     28 H5         -0.2883   -2.7529    4.6402 H         1 <0>         0.0000
     29 H6          0.5931   -1.2380    4.7337 H         1 <0>         0.0000
     30 H7         -2.2371    0.1076    2.9231 H         1 <0>         0.0000
     31 H8         -1.3780    0.0863    4.4773 H         1 <0>         0.0000
     32 H9          0.7646    0.0417   -0.8053 H         1 <0>         0.0000
     33 H10         2.0050   -1.2260   -0.8567 H         1 <0>         0.0000
     34 H11         2.3938    1.8622    2.1257 H         1 <0>         0.0000
     35 H12         1.0063    1.9434    1.0225 H         1 <0>         0.0000
     36 H13         2.8030   -0.9586    3.3653 H         1 <0>         0.0000
     37 H14         3.0128   -2.0492    1.9941 H         1 <0>         0.0000
     38 H15        -2.4599   -1.9933    5.1490 H         1 <0>         0.0000
     39 H16        -3.7797   -1.1701    4.3029 H         1 <0>         0.0000
     40 H17        -1.8259   -2.1301    1.2869 H         1 <0>         0.0000
     41 H18        -1.0168   -3.4173    2.1934 H         1 <0>         0.0000
     42 H19         3.7478    0.4262   -1.4473 H         1 <0>         0.0000
     43 H20         2.3960    0.5878   -2.5898 H         1 <0>         0.0000
     44 H21         2.7714    3.4782    0.2075 H         1 <0>         0.0000
     45 H22         3.9721    2.1684    0.2431 H         1 <0>         0.0000
     46 H23         3.2173   -0.1428    0.9830 H         1 <0>         0.0000
     47 H24        -3.3183   -4.5575    2.6112 H         1 <0>         0.0000
     48 H25        -4.1369   -3.8880    4.0220 H         1 <0>         0.0000
@<TRIPOS>BOND
     1    1    2 2
     2    1   18 1
     3    1   24 1
     4    2   23 1
     5    2   25 1
     6    3   17 1
     7    3   18 2
     8    3   23 1
     9    4   16 1
    10    4   19 am
    11    4   21 2
    12    5    6 1
    13    5   10 1
    14    5   26 1
    15    5   27 1
    16    6   16 1
    17    6   28 1
    18    6   29 1
    19    7   11 1
    20    7   16 1
    21    7   30 1
    22    7   31 1
    23    8   13 1
    24    8   15 1
    25    8   32 1
    26    8   33 1
    27    9   14 1
    28    9   15 1
    29    9   34 1
    30    9   35 1
    31   10   19 1
    32   10   36 1
    33   10   37 1
    34   11   20 1
    35   11   38 1
    36   11   39 1
    37   12   16 1
    38   12   20 1
    39   12   40 1
    40   12   41 1
    41   13   22 1
    42   13   42 1
    43   13   43 1
    44   14   22 1
    45   14   44 1
    46   14   45 1
    47   15   19 1
    48   15   46 1
    49   17   20 1
    50   17   47 1
    51   17   48 1
