@<TRIPOS>MOLECULE
*****
   37    39     0     0     0
SMALL
NO_CHARGES

@<TRIPOS>ATOM
      1 C1         -4.0096   -0.6706    1.5213 C.ar      1 <0>         0.0000
      2 C2         -2.6771   -1.0811    1.5659 C.ar      1 <0>         0.0000
      3 C3         -4.3959    0.2439    0.5407 C.ar      1 <0>         0.0000
      4 C4          2.0903    1.8056    1.6548 C.2       1 <0>         0.0000
      5 C5         -1.7763   -0.5460    0.6425 C.ar      1 <0>         0.0000
      6 C6          0.7988    1.4257    1.8295 C.2       1 <0>         0.0000
      7 C7         -2.2900    0.3172   -0.3497 C.ar      1 <0>         0.0000
      8 C8         -0.2811    2.4028    1.7419 C.2       1 <0>         0.0000
      9 C9          1.4723    4.1119    1.2652 C.2       1 <0>         0.0000
     10 C10         0.4890   -0.9424   -0.4519 C.3       1 <0>         0.0000
     11 C11        -0.2672   -0.6687   -1.7413 C.3       1 <0>         0.0000
     12 C12         3.8366    3.4983    1.2086 C.3       1 <0>         0.0000
     13 C13        -0.9037    4.7288    1.3240 C.3       1 <0>         0.0000
     14 N1         -3.5600    0.7048   -0.4006 N.ar      1 <0>         0.0000
     15 N2          2.4360    3.0945    1.3874 N.am      1 <0>         0.0000
     16 N3          0.1546    3.7154    1.4551 N.am      1 <0>         0.0000
     17 N4         -0.3788   -0.8272    0.7475 N.pl3     1 <0>         0.0000
     18 O1         -1.4715    2.1647    1.8851 O.2       1 <0>         0.0000
     19 O2          1.8135    5.2583    1.0091 O.2       1 <0>         0.0000
     20 O3          1.7501   -0.9734    2.0901 O.2       1 <0>         0.0000
     21 O4         -0.4395   -0.4296    3.2767 O.2       1 <0>         0.0000
     22 S1         -1.2057    0.9013   -1.6390 S.3       1 <0>         0.0000
     23 S2          0.4492   -0.2982    2.1328 S.o2      1 <0>         0.0000
     24 H1         -4.7322   -1.0464    2.2394 H         1 <0>         0.0000
     25 H2         -2.3222   -1.7662    2.3269 H         1 <0>         0.0000
     26 H3         -5.4185    0.6133    0.4930 H         1 <0>         0.0000
     27 H4          2.8952    1.0815    1.7269 H         1 <0>         0.0000
     28 H5          0.9266   -1.9461   -0.4696 H         1 <0>         0.0000
     29 H6          1.3092   -0.2234   -0.3756 H         1 <0>         0.0000
     30 H7          0.4451   -0.5789   -2.5651 H         1 <0>         0.0000
     31 H8         -0.9687   -1.4718   -1.9817 H         1 <0>         0.0000
     32 H9          3.9791    3.9225    0.2131 H         1 <0>         0.0000
     33 H10         4.4679    2.6182    1.3320 H         1 <0>         0.0000
     34 H11         4.1047    4.2533    1.9497 H         1 <0>         0.0000
     35 H12        -1.4691    4.7841    2.2560 H         1 <0>         0.0000
     36 H13        -1.5842    4.4371    0.5217 H         1 <0>         0.0000
     37 H14        -0.4342    5.6837    1.1022 H         1 <0>         0.0000
@<TRIPOS>BOND
     1    1    2 ar
     2    1    3 ar
     3    1   24 1
     4    2    5 ar
     5    2   25 1
     6    3   14 ar
     7    3   26 1
     8    4    6 2
     9    4   15 1
    10    4   27 1
    11    5    7 ar
    12    5   17 1
    13    6    8 1
    14    6   23 1
    15    7   14 ar
    16    7   22 1
    17    8   16 am
    18    8   18 2
    19    9   15 am
    20    9   16 am
    21    9   19 2
    22   10   11 1
    23   10   17 1
    24   10   28 1
    25   10   29 1
    26   11   22 1
    27   11   30 1
    28   11   31 1
    29   12   15 1
    30   12   32 1
    31   12   33 1
    32   12   34 1
    33   13   16 1
    34   13   35 1
    35   13   36 1
    36   13   37 1
    37   17   23 1
    38   20   23 2
    39   21   23 2
