@<TRIPOS>MOLECULE
*****
   28    30     0     0     0
SMALL
NO_CHARGES

@<TRIPOS>ATOM
      1 C1         -0.7788    1.8566   -0.8476 C.ar      1 <0>         0.0000
      2 C2         -0.9366    0.6834   -0.0784 C.ar      1 <0>         0.0000
      3 C3         -1.8797    2.5018   -1.3943 C.ar      1 <0>         0.0000
      4 C4         -2.1981    0.1429    0.1526 C.ar      1 <0>         0.0000
      5 C5        -11.5830    2.9522   -2.9769 C.ar      1 <0>         0.0000
      6 C6        -10.8853    4.0986   -2.5877 C.ar      1 <0>         0.0000
      7 C7         -9.5318    1.6636   -2.7810 C.ar      1 <0>         0.0000
      8 C8         -3.1667    1.9714   -1.1731 C.ar      1 <0>         0.0000
      9 C9         -8.8212    2.8134   -2.3853 C.ar      1 <0>         0.0000
     10 C10        -3.3101    0.7932   -0.3978 C.ar      1 <0>         0.0000
     11 C11       -10.8915    1.7439   -3.0716 C.ar      1 <0>         0.0000
     12 C12        -9.5221    4.0355   -2.3055 C.ar      1 <0>         0.0000
     13 C13        -4.4407    2.4575   -1.6318 C.2       1 <0>         0.0000
     14 C14        -5.5114    1.6906   -1.2268 C.2       1 <0>         0.0000
     15 C15        -6.9367    1.8307   -1.4614 C.2       1 <0>         0.0000
     16 N1         -7.4458    2.7926   -2.1432 N.2       1 <0>         0.0000
     17 S1         -4.9841    0.3166   -0.2485 S.3       1 <0>         0.0000
     18 Cl1       -11.7458    0.2960   -3.5802 Cl        1 <0>         0.0000
     19 Cl2        -8.6820    5.4848   -1.8069 Cl        1 <0>         0.0000
     20 Cl3        -4.5590    3.8857   -2.6005 Cl        1 <0>         0.0000
     21 H1          0.2176    2.2570   -1.0118 H         1 <0>         0.0000
     22 H2         -0.0615    0.1942    0.3404 H         1 <0>         0.0000
     23 H3         -1.7641    3.4044   -1.9865 H         1 <0>         0.0000
     24 H4         -2.3164   -0.7597    0.7455 H         1 <0>         0.0000
     25 H5        -12.6410    3.0026   -3.2111 H         1 <0>         0.0000
     26 H6        -11.4041    5.0483   -2.5053 H         1 <0>         0.0000
     27 H7         -9.0040    0.7231   -2.9016 H         1 <0>         0.0000
     28 H8         -7.5670    1.0580   -0.9959 H         1 <0>         0.0000
@<TRIPOS>BOND
     1    1    2 ar
     2    1    3 ar
     3    1   21 1
     4    2    4 ar
     5    2   22 1
     6    3    8 ar
     7    3   23 1
     8    4   10 ar
     9    4   24 1
    10    5    6 ar
    11    5   11 ar
    12    5   25 1
    13    6   12 ar
    14    6   26 1
    15    7    9 ar
    16    7   11 ar
    17    7   27 1
    18    8   10 ar
    19    8   13 1
    20    9   12 ar
    21    9   16 1
    22   10   17 1
    23   11   18 1
    24   12   19 1
    25   13   14 2
    26   13   20 1
    27   14   15 1
    28   14   17 1
    29   15   16 2
    30   15   28 1
