@<TRIPOS>MOLECULE
*****
   51    54     0     0     0
SMALL
NO_CHARGES

@<TRIPOS>ATOM
      1 C1          2.2797    2.3725   -3.1031 C.1       1 <0>         0.0000
      2 C2         -0.3000    5.0027   -3.4166 C.ar      1 <0>         0.0000
      3 C3          1.0342    3.0545   -2.9504 C.ar      1 <0>         0.0000
      4 C4          0.9456    4.3772   -3.4338 C.ar      1 <0>         0.0000
      5 C5         -1.4186    4.2919   -2.9592 C.ar      1 <0>         0.0000
      6 C6         -0.1424    2.4285   -2.4236 C.ar      1 <0>         0.0000
      7 C7          0.3824    0.2065    1.1266 C.2       1 <0>         0.0000
      8 C8          0.8647   -2.6587    0.9339 C.3       1 <0>         0.0000
      9 C9          1.8346    1.6868    5.0117 C.3       1 <0>         0.0000
     10 C10         2.4983    1.6040    3.6533 C.3       1 <0>         0.0000
     11 C11         1.3192   -1.7568   -0.2095 C.3       1 <0>         0.0000
     12 C12        -0.9704   -0.7140   -0.7548 C.3       1 <0>         0.0000
     13 C13         1.0514   -1.9325    2.2594 C.3       1 <0>         0.0000
     14 C14        -1.4007    0.6324   -1.3334 C.3       1 <0>         0.0000
     15 C15         1.0288    0.5277   -1.2855 C.3       1 <0>         0.0000
     16 C16         1.7151    0.4234    4.1858 C.3       1 <0>         0.0000
     17 C17         0.4796   -0.4754   -0.2491 C.3       1 <0>         0.0000
     18 C18         2.1634    5.0763   -3.9803 C.3       1 <0>         0.0000
     19 C19        -2.7966    4.9038   -2.9761 C.3       1 <0>         0.0000
     20 C20         0.3793    0.0753    3.5592 C.3       1 <0>         0.0000
     21 N1          3.3100    1.8525   -3.2840 N.1       1 <0>         0.0000
     22 N2         -1.3382    3.0488   -2.4767 N.ar      1 <0>         0.0000
     23 N3         -0.1483    1.1820   -1.8716 N.pl3     1 <0>         0.0000
     24 N4          0.4935   -0.5765    2.2471 N.am      1 <0>         0.0000
     25 O1          0.1277    1.4144    1.1975 O.2       1 <0>         0.0000
     26 H1         -0.4091    6.0196   -3.7803 H         1 <0>         0.0000
     27 H2         -0.1872   -2.9348    0.8014 H         1 <0>         0.0000
     28 H3          1.4434   -3.5880    0.9558 H         1 <0>         0.0000
     29 H4          2.4626    1.6618    5.8975 H         1 <0>         0.0000
     30 H5          0.9522    2.3144    5.1037 H         1 <0>         0.0000
     31 H6          2.0513    2.1627    2.8375 H         1 <0>         0.0000
     32 H7          3.5811    1.5240    3.6187 H         1 <0>         0.0000
     33 H8          2.3779   -1.4991   -0.0726 H         1 <0>         0.0000
     34 H9          1.2412   -2.2706   -1.1741 H         1 <0>         0.0000
     35 H10        -1.6493   -1.0568    0.0297 H         1 <0>         0.0000
     36 H11        -0.9452   -1.4783   -1.5401 H         1 <0>         0.0000
     37 H12         0.5662   -2.4849    3.0723 H         1 <0>         0.0000
     38 H13         2.1230   -1.8828    2.5011 H         1 <0>         0.0000
     39 H14        -2.1487    0.5382   -2.1239 H         1 <0>         0.0000
     40 H15        -1.8021    1.2957   -0.5620 H         1 <0>         0.0000
     41 H16         1.6867    1.2617   -0.8161 H         1 <0>         0.0000
     42 H17         1.6010   -0.0072   -2.0495 H         1 <0>         0.0000
     43 H18         2.3013   -0.4240    4.5357 H         1 <0>         0.0000
     44 H19         2.9685    5.1014   -3.2392 H         1 <0>         0.0000
     45 H20         2.5566    4.5477   -4.8551 H         1 <0>         0.0000
     46 H21         1.9260    6.1016   -4.2728 H         1 <0>         0.0000
     47 H22        -3.4795    4.2718   -3.5528 H         1 <0>         0.0000
     48 H23        -3.1928    4.9606   -1.9570 H         1 <0>         0.0000
     49 H24        -2.7916    5.9073   -3.4087 H         1 <0>         0.0000
     50 H25        -0.2118    0.9797    3.4162 H         1 <0>         0.0000
     51 H26        -0.1818   -0.5989    4.2183 H         1 <0>         0.0000
@<TRIPOS>BOND
     1    1    3 1
     2    1   21 3
     3    2    4 ar
     4    2    5 ar
     5    2   26 1
     6    3    4 ar
     7    3    6 ar
     8    4   18 1
     9    5   19 1
    10    5   22 ar
    11    6   22 ar
    12    6   23 1
    13    7   17 1
    14    7   24 am
    15    7   25 2
    16    8   11 1
    17    8   13 1
    18    8   27 1
    19    8   28 1
    20    9   10 1
    21    9   16 1
    22    9   29 1
    23    9   30 1
    24   10   16 1
    25   10   31 1
    26   10   32 1
    27   11   17 1
    28   11   33 1
    29   11   34 1
    30   12   14 1
    31   12   17 1
    32   12   35 1
    33   12   36 1
    34   13   24 1
    35   13   37 1
    36   13   38 1
    37   14   23 1
    38   14   39 1
    39   14   40 1
    40   15   17 1
    41   15   23 1
    42   15   41 1
    43   15   42 1
    44   16   20 1
    45   16   43 1
    46   18   44 1
    47   18   45 1
    48   18   46 1
    49   19   47 1
    50   19   48 1
    51   19   49 1
    52   20   24 1
    53   20   50 1
    54   20   51 1
