@<TRIPOS>MOLECULE
*****
   21    22     0     0     0
SMALL
NO_CHARGES

@<TRIPOS>ATOM
      1 C1          2.2433   -1.2099   -0.0381 C.ar      1 <0>         0.0000
      2 C2          2.8925   -1.9431    0.9613 C.ar      1 <0>         0.0000
      3 C3          1.2273   -0.3092    0.3002 C.ar      1 <0>         0.0000
      4 C4          2.5258   -1.7808    2.3010 C.ar      1 <0>         0.0000
      5 C5          0.8549   -0.1414    1.6376 C.ar      1 <0>         0.0000
      6 C6          1.5012   -0.8843    2.6355 C.ar      1 <0>         0.0000
      7 C7         -1.7269   -3.1651    5.1403 C.2       1 <0>         0.0000
      8 C8         -0.2154   -1.8967    4.4624 C.2       1 <0>         0.0000
      9 N1         -0.9133   -2.1649    5.5578 N.2       1 <0>         0.0000
     10 N2         -1.6042   -3.5510    3.8805 N.2       1 <0>         0.0000
     11 N3         -0.6216   -2.7211    3.4530 N.pl3     1 <0>         0.0000
     12 N4         -2.7033   -3.8029    6.0257 N.pl3     1 <0>         0.0000
     13 O1         -2.7552   -3.3877    7.1832 O.3       1 <0>         0.0000
     14 O2         -3.3931   -4.7023    5.5418 O.2       1 <0>         0.0000
     15 S1          1.0341   -0.6630    4.3587 S.3       1 <0>         0.0000
     16 H1          2.5311   -1.3375   -1.0780 H         1 <0>         0.0000
     17 H2          3.6849   -2.6393    0.7011 H         1 <0>         0.0000
     18 H3          0.7255    0.2646   -0.4739 H         1 <0>         0.0000
     19 H4          3.0259   -2.3447    3.0830 H         1 <0>         0.0000
     20 H5          0.0686    0.5568    1.9088 H         1 <0>         0.0000
     21 H6         -0.2890   -2.7692    2.4965 H         1 <0>         0.0000
@<TRIPOS>BOND
     1    1    3 ar
     2    1    2 ar
     3    1   16 1
     4    2    4 ar
     5    2   17 1
     6    3    5 ar
     7    3   18 1
     8    4    6 ar
     9    4   19 1
    10    5    6 ar
    11    5   20 1
    12    6   15 1
    13    7    9 1
    14    7   10 2
    15    7   12 1
    16    8    9 2
    17    8   11 1
    18    8   15 1
    19   10   11 1
    20   11   21 1
    21   12   13 1
    22   12   14 2
