@<TRIPOS>MOLECULE
*****
   25    26     0     0     0
SMALL
NO_CHARGES

@<TRIPOS>ATOM
      1 C1          1.8814   -1.0219   -0.1501 C.ar      1 <0>         0.0000
      2 C2          0.8017   -0.3712    0.4562 C.ar      1 <0>         0.0000
      3 C3          5.3779   -2.4666    4.6942 C.ar      1 <0>         0.0000
      4 C4          2.8594   -1.6328    0.6321 C.ar      1 <0>         0.0000
      5 C5          0.7054   -0.3470    1.8485 C.ar      1 <0>         0.0000
      6 C6          4.3223   -1.8033    4.0654 C.ar      1 <0>         0.0000
      7 C7          5.9780   -3.5590    4.0710 C.ar      1 <0>         0.0000
      8 C8          2.7977   -1.6094    2.0374 C.ar      1 <0>         0.0000
      9 C9          1.6902   -0.9671    2.6128 C.ar      1 <0>         0.0000
     10 C10         3.8884   -2.2599    2.8126 C.ar      1 <0>         0.0000
     11 C11         5.4757   -3.9158    2.8146 C.ar      1 <0>         0.0000
     12 C12         0.7873   -1.8330    4.6197 C.3       1 <0>         0.0000
     13 N1          4.4828   -3.3066    2.2008 N.ar      1 <0>         0.0000
     14 O1          1.5688   -0.8983    4.0203 O.3       1 <0>         0.0000
     15 F1          1.1386   -3.0957    4.2982 F         1 <0>         0.0000
     16 F2         -0.5225   -1.6968    4.3048 F         1 <0>         0.0000
     17 F3          0.9161   -1.6775    5.9445 F         1 <0>         0.0000
     18 Cl1         6.2118   -5.2767    1.9700 Cl        1 <0>         0.0000
     19 H1          1.9622   -1.0508   -1.2331 H         1 <0>         0.0000
     20 H2          0.0380    0.1120   -0.1465 H         1 <0>         0.0000
     21 H3          5.7332   -2.1315    5.6649 H         1 <0>         0.0000
     22 H4          3.6957   -2.1464    0.1701 H         1 <0>         0.0000
     23 H5         -0.1248    0.1394    2.3499 H         1 <0>         0.0000
     24 H6          3.8549   -0.9463    4.5322 H         1 <0>         0.0000
     25 H7          6.7969   -4.1073    4.5230 H         1 <0>         0.0000
@<TRIPOS>BOND
     1    1    2 ar
     2    1    4 ar
     3    1   19 1
     4    2    5 ar
     5    2   20 1
     6    3    6 ar
     7    3    7 ar
     8    3   21 1
     9    4    8 ar
    10    4   22 1
    11    5    9 ar
    12    5   23 1
    13    6   10 ar
    14    6   24 1
    15    7   11 ar
    16    7   25 1
    17    8    9 ar
    18    8   10 1
    19    9   14 1
    20   10   13 ar
    21   11   13 ar
    22   11   18 1
    23   12   14 1
    24   12   15 1
    25   12   16 1
    26   12   17 1
