@<TRIPOS>MOLECULE
*****
   23    23     0     0     0
SMALL
NO_CHARGES

@<TRIPOS>ATOM
      1 C1          5.9797   -2.2563   -1.3796 C.1       1 <0>         0.0000
      2 C2          1.5907   -1.2374   -0.2476 C.ar      1 <0>         0.0000
      3 C3          0.5304   -0.6209    0.4187 C.ar      1 <0>         0.0000
      4 C4          1.4906   -1.3281    2.5354 C.ar      1 <0>         0.0000
      5 C5          2.6325   -1.8834    0.4327 C.ar      1 <0>         0.0000
      6 C6          2.5493   -1.8993    1.8324 C.ar      1 <0>         0.0000
      7 C7          0.4996   -0.6813    1.8074 C.ar      1 <0>         0.0000
      8 C8          4.9929   -1.6728   -0.4634 C.3       1 <0>         0.0000
      9 C9          3.7289   -2.5663   -0.3717 C.3       1 <0>         0.0000
     10 N1          6.7315   -2.7628   -2.1088 N.1       1 <0>         0.0000
     11 N2          4.0725   -3.8521    0.2366 N.3       1 <0>         0.0000
     12 N3          3.6002   -2.5086    2.6795 N.pl3     1 <0>         0.0000
     13 O1          3.2520   -3.4089    3.4410 O.3       1 <0>         0.0000
     14 O2          4.7296   -2.0176    2.6168 O.2       1 <0>         0.0000
     15 F1         -0.5263   -0.1064    2.4729 F         1 <0>         0.0000
     16 H1          1.6054   -1.2279   -1.3344 H         1 <0>         0.0000
     17 H2         -0.2672   -0.1195   -0.1201 H         1 <0>         0.0000
     18 H3          1.4417   -1.3797    3.6178 H         1 <0>         0.0000
     19 H4          5.4396   -1.5609    0.5264 H         1 <0>         0.0000
     20 H5          4.7173   -0.6794   -0.8290 H         1 <0>         0.0000
     21 H6          3.3445   -2.6683   -1.3979 H         1 <0>         0.0000
     22 H7          4.8797   -4.2636   -0.2303 H         1 <0>         0.0000
     23 H8          3.2990   -4.5059    0.1342 H         1 <0>         0.0000
@<TRIPOS>BOND
     1    1    8 1
     2    1   10 3
     3    2    3 ar
     4    2    5 ar
     5    2   16 1
     6    3    7 ar
     7    3   17 1
     8    4    6 ar
     9    4    7 ar
    10    4   18 1
    11    5    6 ar
    12    5    9 1
    13    6   12 1
    14    7   15 1
    15    8    9 1
    16    8   19 1
    17    8   20 1
    18    9   11 1
    19    9   21 1
    20   11   22 1
    21   11   23 1
    22   12   13 1
    23   12   14 2
