@<TRIPOS>MOLECULE
*****
   41    44     0     0     0
SMALL
NO_CHARGES

@<TRIPOS>ATOM
      1 C1         -3.2736   -5.3686    2.4234 C.ar      1 <0>         0.0000
      2 C2         -3.4331   -5.7612    1.0773 C.ar      1 <0>         0.0000
      3 C3          0.8610   -3.1264    0.8594 C.ar      1 <0>         0.0000
      4 C4         -2.0145   -5.3148    3.0236 C.ar      1 <0>         0.0000
      5 C5         -2.3373   -6.1125    0.2865 C.ar      1 <0>         0.0000
      6 C6         -0.4438   -2.6358    0.8086 C.ar      1 <0>         0.0000
      7 C7         -0.5092   -3.1338   -1.5692 C.ar      1 <0>         0.0000
      8 C8          1.4898   -3.6644   -0.2737 C.ar      1 <0>         0.0000
      9 C9         -0.9014   -5.6599    2.2460 C.ar      1 <0>         0.0000
     10 C10        -1.0813   -6.0532    0.8938 C.ar      1 <0>         0.0000
     11 C11         0.8017   -3.6142   -1.4999 C.ar      1 <0>         0.0000
     12 C12        -1.1230   -2.6668   -0.4085 C.ar      1 <0>         0.0000
     13 C13         1.0610   -5.9769    1.4380 C.2       1 <0>         0.0000
     14 C14         2.8631   -4.2414   -0.1783 C.2       1 <0>         0.0000
     15 C15         3.9366   -3.5746   -1.0137 C.3       1 <0>         0.0000
     16 C16         3.8165   -3.9226   -2.5075 C.3       1 <0>         0.0000
     17 C17         2.5224   -3.4537   -3.1636 C.3       1 <0>         0.0000
     18 C18         0.5340   -6.8668   -0.8814 C.3       1 <0>         0.0000
     19 N1          0.4561   -5.6207    2.5529 N.2       1 <0>         0.0000
     20 N2          3.2717   -5.2329    0.5404 N.2       1 <0>         0.0000
     21 N3          0.1962   -6.2860    0.4063 N.pl3     1 <0>         0.0000
     22 N4          2.4461   -6.0867    1.2611 N.pl3     1 <0>         0.0000
     23 O1          1.3435   -4.1216   -2.6635 O.3       1 <0>         0.0000
     24 Br1        -2.9378   -2.0598   -0.4906 Br        1 <0>         0.0000
     25 H1         -4.1526   -5.0932    2.9999 H         1 <0>         0.0000
     26 H2         -4.4286   -5.7771    0.6427 H         1 <0>         0.0000
     27 H3          1.3849   -3.1338    1.8089 H         1 <0>         0.0000
     28 H4         -1.8895   -5.0029    4.0567 H         1 <0>         0.0000
     29 H5         -2.4605   -6.3950   -0.7552 H         1 <0>         0.0000
     30 H6         -0.9283   -2.2675    1.7056 H         1 <0>         0.0000
     31 H7         -1.0247   -3.1448   -2.5234 H         1 <0>         0.0000
     32 H8          3.8732   -2.4861   -0.8873 H         1 <0>         0.0000
     33 H9          4.9092   -3.9067   -0.6421 H         1 <0>         0.0000
     34 H10         4.6491   -3.4581   -3.0515 H         1 <0>         0.0000
     35 H11         3.9104   -5.0066   -2.6376 H         1 <0>         0.0000
     36 H12         2.3928   -2.3700   -3.0478 H         1 <0>         0.0000
     37 H13         2.5371   -3.6850   -4.2319 H         1 <0>         0.0000
     38 H14         0.2257   -6.2133   -1.6999 H         1 <0>         0.0000
     39 H15         1.6140   -7.0043   -0.9307 H         1 <0>         0.0000
     40 H16         0.0436   -7.8398   -0.9882 H         1 <0>         0.0000
     41 H17         2.9326   -6.4041    2.0905 H         1 <0>         0.0000
@<TRIPOS>BOND
     1    1    2 ar
     2    1    4 ar
     3    1   25 1
     4    2    5 ar
     5    2   26 1
     6    3    6 ar
     7    3    8 ar
     8    3   27 1
     9    4    9 ar
    10    4   28 1
    11    5   10 ar
    12    5   29 1
    13    6   12 ar
    14    6   30 1
    15    7   11 ar
    16    7   12 ar
    17    7   31 1
    18    8   11 ar
    19    8   14 1
    20    9   10 ar
    21    9   19 1
    22   10   21 1
    23   11   23 1
    24   12   24 1
    25   13   19 2
    26   13   21 1
    27   13   22 1
    28   14   15 1
    29   14   20 2
    30   15   16 1
    31   15   32 1
    32   15   33 1
    33   16   17 1
    34   16   34 1
    35   16   35 1
    36   17   23 1
    37   17   36 1
    38   17   37 1
    39   18   21 1
    40   18   38 1
    41   18   39 1
    42   18   40 1
    43   20   22 1
    44   22   41 1
