@<TRIPOS>MOLECULE
*****
   29    31     0     0     0
SMALL
NO_CHARGES

@<TRIPOS>ATOM
      1 C1          4.7601   -6.2917   -8.8810 C.ar      1 <0>         0.0000
      2 C2          0.0437    1.3678   -5.3281 C.ar      1 <0>         0.0000
      3 C3          0.8616    1.7503   -6.4064 C.ar      1 <0>         0.0000
      4 C4          4.4646   -7.1645   -9.9332 C.ar      1 <0>         0.0000
      5 C5          3.7743   -5.9701   -7.9485 C.ar      1 <0>         0.0000
      6 C6         -0.1516    0.0220   -4.9914 C.ar      1 <0>         0.0000
      7 C7          1.5217    0.7952   -7.1966 C.ar      1 <0>         0.0000
      8 C8          3.1869   -7.7183  -10.0450 C.ar      1 <0>         0.0000
      9 C9          2.4740   -6.5064   -8.0413 C.ar      1 <0>         0.0000
     10 C10         0.4999   -0.9381   -5.7696 C.ar      1 <0>         0.0000
     11 C11         1.3105   -0.5256   -6.8402 C.ar      1 <0>         0.0000
     12 C12         2.2110   -7.3888   -9.1033 C.ar      1 <0>         0.0000
     13 C13         1.2845   -2.6910   -6.6698 C.2       1 <0>         0.0000
     14 C14         1.4544   -6.1976   -7.0090 C.2       1 <0>         0.0000
     15 N1          0.5110   -2.3395   -5.6923 N.2       1 <0>         0.0000
     16 N2          1.1211   -5.0445   -6.5428 N.2       1 <0>         0.0000
     17 N3          1.7062   -3.9328   -7.0695 N.pl3     1 <0>         0.0000
     18 O1          1.8258   -1.6735   -7.4319 O.3       1 <0>         0.0000
     19 Br1         0.4658   -8.1622   -9.3004 Br        1 <0>         0.0000
     20 H1          5.7563   -5.8701   -8.7819 H         1 <0>         0.0000
     21 H2         -0.4493    2.1383   -4.7415 H         1 <0>         0.0000
     22 H3          0.9868    2.8048   -6.6350 H         1 <0>         0.0000
     23 H4          5.2251   -7.4204  -10.6656 H         1 <0>         0.0000
     24 H5          4.0127   -5.3170   -7.1135 H         1 <0>         0.0000
     25 H6         -0.7835   -0.2720   -4.1588 H         1 <0>         0.0000
     26 H7          2.1553    1.0762   -8.0321 H         1 <0>         0.0000
     27 H8          2.9483   -8.3981  -10.8565 H         1 <0>         0.0000
     28 H9          0.9077   -7.0300   -6.5725 H         1 <0>         0.0000
     29 H10         2.2184   -3.9755   -7.9491 H         1 <0>         0.0000
@<TRIPOS>BOND
     1    1    4 ar
     2    1    5 ar
     3    1   20 1
     4    2    3 ar
     5    2    6 ar
     6    2   21 1
     7    3    7 ar
     8    3   22 1
     9    4    8 ar
    10    4   23 1
    11    5    9 ar
    12    5   24 1
    13    6   10 ar
    14    6   25 1
    15    7   11 ar
    16    7   26 1
    17    8   12 ar
    18    8   27 1
    19    9   12 ar
    20    9   14 1
    21   10   11 ar
    22   10   15 1
    23   11   18 1
    24   12   19 1
    25   13   15 2
    26   13   17 1
    27   13   18 1
    28   14   16 2
    29   14   28 1
    30   16   17 1
    31   17   29 1
