@<TRIPOS>MOLECULE
*****
   40    43     0     0     0
SMALL
NO_CHARGES

@<TRIPOS>ATOM
      1 C1         -1.5519   -1.5257   -0.0147 C.ar      1 <0>         0.0000
      2 C2         -0.2875   -1.0117    0.2987 C.ar      1 <0>         0.0000
      3 C3         -1.7057   -2.8951   -0.2294 C.ar      1 <0>         0.0000
      4 C4          0.8032   -1.8755    0.3882 C.ar      1 <0>         0.0000
      5 C5          6.2894   -8.6117   -1.5114 C.ar      1 <0>         0.0000
      6 C6          5.0897   -7.9891   -1.1616 C.ar      1 <0>         0.0000
      7 C7          6.2666   -5.9233   -0.5507 C.ar      1 <0>         0.0000
      8 C8         -0.6126   -3.7707   -0.1462 C.ar      1 <0>         0.0000
      9 C9          0.6527   -3.2511    0.1622 C.ar      1 <0>         0.0000
     10 C10         7.4804   -7.8941   -1.3831 C.ar      1 <0>         0.0000
     11 C11         5.0704   -6.6561   -0.6853 C.ar      1 <0>         0.0000
     12 C12         7.4341   -6.5767   -0.9083 C.ar      1 <0>         0.0000
     13 C13         9.4922   -7.1655   -1.3360 C.2       1 <0>         0.0000
     14 C14         2.5927   -6.4857   -0.2493 C.2       1 <0>         0.0000
     15 C15        -0.7788   -5.2580   -0.3563 C.3       1 <0>         0.0000
     16 C16         1.8921   -4.1274    0.2369 C.3       1 <0>         0.0000
     17 C17         0.2876   -6.0279    0.4166 C.3       1 <0>         0.0000
     18 C18        10.9601   -6.9398   -1.4109 C.3       1 <0>         0.0000
     19 N1          8.8185   -8.2280   -1.6437 N.2       1 <0>         0.0000
     20 N2          1.6168   -5.5458    0.0416 N.am      1 <0>         0.0000
     21 N3          3.8819   -5.9740   -0.3419 N.am      1 <0>         0.0000
     22 O1          2.3279   -7.6767   -0.4201 O.2       1 <0>         0.0000
     23 O2          8.7259   -6.0995   -0.8746 O.3       1 <0>         0.0000
     24 H1         -2.4107   -0.8630   -0.0826 H         1 <0>         0.0000
     25 H2         -0.1556    0.0525    0.4751 H         1 <0>         0.0000
     26 H3         -2.6891   -3.2996   -0.4603 H         1 <0>         0.0000
     27 H4          1.7863   -1.4774    0.6349 H         1 <0>         0.0000
     28 H5          6.2926   -9.6350   -1.8747 H         1 <0>         0.0000
     29 H6          4.1536   -8.5226   -1.2403 H         1 <0>         0.0000
     30 H7          6.2748   -4.8990   -0.1866 H         1 <0>         0.0000
     31 H8         -1.7752   -5.5756   -0.0305 H         1 <0>         0.0000
     32 H9         -0.6924   -5.5044   -1.4219 H         1 <0>         0.0000
     33 H10         2.5713   -3.7861   -0.5534 H         1 <0>         0.0000
     34 H11         2.3920   -3.9468    1.2036 H         1 <0>         0.0000
     35 H12         0.1355   -5.8946    1.4975 H         1 <0>         0.0000
     36 H13         0.2549   -7.0928    0.1944 H         1 <0>         0.0000
     37 H14        11.1898   -6.1037   -2.0796 H         1 <0>         0.0000
     38 H15        11.3655   -6.6967   -0.4232 H         1 <0>         0.0000
     39 H16        11.4402   -7.8440   -1.7855 H         1 <0>         0.0000
     40 H17         4.0288   -5.0249   -0.0330 H         1 <0>         0.0000
@<TRIPOS>BOND
     1    1    2 ar
     2    1    3 ar
     3    1   24 1
     4    2    4 ar
     5    2   25 1
     6    3    8 ar
     7    3   26 1
     8    4    9 ar
     9    4   27 1
    10    5    6 ar
    11    5   10 ar
    12    5   28 1
    13    6   11 ar
    14    6   29 1
    15    7   11 ar
    16    7   12 ar
    17    7   30 1
    18    8    9 ar
    19    8   15 1
    20    9   16 1
    21   10   12 ar
    22   10   19 1
    23   11   21 1
    24   12   23 1
    25   13   18 1
    26   13   19 2
    27   13   23 1
    28   14   20 am
    29   14   21 am
    30   14   22 2
    31   15   17 1
    32   15   31 1
    33   15   32 1
    34   16   20 1
    35   16   33 1
    36   16   34 1
    37   17   20 1
    38   17   35 1
    39   17   36 1
    40   18   37 1
    41   18   38 1
    42   18   39 1
    43   21   40 1
