@<TRIPOS>MOLECULE
*****
   51    54     0     0     0
SMALL
NO_CHARGES

@<TRIPOS>ATOM
      1 C1          2.0541    3.0416   -2.2238 C.1       1 <0>         0.0000
      2 C2         -0.9434    4.9400   -3.2637 C.ar      1 <0>         0.0000
      3 C3          0.6795    3.3730   -2.4249 C.ar      1 <0>         0.0000
      4 C4          0.3807    4.6547   -2.9339 C.ar      1 <0>         0.0000
      5 C5         -1.9177    3.9430   -3.1155 C.ar      1 <0>         0.0000
      6 C6         -0.3892    2.4387   -2.2276 C.ar      1 <0>         0.0000
      7 C7         -0.2492    0.1919    1.3598 C.2       1 <0>         0.0000
      8 C8          0.9889   -2.4406    1.2978 C.3       1 <0>         0.0000
      9 C9         -3.3725   -0.1854    3.1633 C.3       1 <0>         0.0000
     10 C10        -3.2516    0.0873    4.6487 C.3       1 <0>         0.0000
     11 C11         1.4826   -1.3710    0.3282 C.3       1 <0>         0.0000
     12 C12        -0.7775   -0.9067   -0.8113 C.3       1 <0>         0.0000
     13 C13         0.6302   -1.7994    2.6325 C.3       1 <0>         0.0000
     14 C14        -1.3768    0.3205   -1.4945 C.3       1 <0>         0.0000
     15 C15         0.8929    0.8371   -0.7888 C.3       1 <0>         0.0000
     16 C16        -2.1842   -0.7147    3.9352 C.3       1 <0>         0.0000
     17 C17         0.3778   -0.3432    0.0628 C.3       1 <0>         0.0000
     18 C18         1.4738    5.6709   -3.1405 C.3       1 <0>         0.0000
     19 C19        -3.3523    4.1842   -3.5124 C.3       1 <0>         0.0000
     20 C20        -0.8213   -0.0935    3.7103 C.3       1 <0>         0.0000
     21 N1          3.1942    2.8135   -2.1103 N.1       1 <0>         0.0000
     22 N2         -1.6470    2.7360   -2.6111 N.ar      1 <0>         0.0000
     23 N3         -0.2158    1.2021   -1.6804 N.pl3     1 <0>         0.0000
     24 N4         -0.1705   -0.5803    2.4866 N.am      1 <0>         0.0000
     25 O1         -0.8584    1.2688    1.3517 O.2       1 <0>         0.0000
     26 H1         -1.2132    5.9146   -3.6584 H         1 <0>         0.0000
     27 H2          0.1138   -2.9496    0.8792 H         1 <0>         0.0000
     28 H3          1.7553   -3.2036    1.4682 H         1 <0>         0.0000
     29 H4         -4.1263   -0.8962    2.8367 H         1 <0>         0.0000
     30 H5         -3.1874    0.6363    2.4790 H         1 <0>         0.0000
     31 H6         -3.0013    1.0989    4.9571 H         1 <0>         0.0000
     32 H7         -3.9187   -0.4364    5.3272 H         1 <0>         0.0000
     33 H8          2.3619   -0.8680    0.7521 H         1 <0>         0.0000
     34 H9          1.7999   -1.8158   -0.6214 H         1 <0>         0.0000
     35 H10        -1.5249   -1.4558   -0.2335 H         1 <0>         0.0000
     36 H11        -0.3522   -1.5905   -1.5550 H         1 <0>         0.0000
     37 H12         0.0663   -2.5057    3.2515 H         1 <0>         0.0000
     38 H13         1.5500   -1.5544    3.1852 H         1 <0>         0.0000
     39 H14        -1.8405    0.0900   -2.4563 H         1 <0>         0.0000
     40 H15        -2.1242    0.8100   -0.8638 H         1 <0>         0.0000
     41 H16         1.1798    1.6834   -0.1613 H         1 <0>         0.0000
     42 H17         1.7698    0.5225   -1.3624 H         1 <0>         0.0000
     43 H18        -2.1780   -1.7846    4.1367 H         1 <0>         0.0000
     44 H19         2.0162    5.8602   -2.2088 H         1 <0>         0.0000
     45 H20         2.2100    5.3097   -3.8662 H         1 <0>         0.0000
     46 H21         1.0639    6.6160   -3.5039 H         1 <0>         0.0000
     47 H22        -3.6724    3.4279   -4.2362 H         1 <0>         0.0000
     48 H23        -4.0032    4.0889   -2.6372 H         1 <0>         0.0000
     49 H24        -3.4930    5.1757   -3.9496 H         1 <0>         0.0000
     50 H25        -0.1569   -0.3125    4.5551 H         1 <0>         0.0000
     51 H26        -0.9150    0.9899    3.6263 H         1 <0>         0.0000
@<TRIPOS>BOND
     1    1    3 1
     2    1   21 3
     3    2    4 ar
     4    2    5 ar
     5    2   26 1
     6    3    4 ar
     7    3    6 ar
     8    4   18 1
     9    5   19 1
    10    5   22 ar
    11    6   22 ar
    12    6   23 1
    13    7   17 1
    14    7   24 am
    15    7   25 2
    16    8   11 1
    17    8   13 1
    18    8   27 1
    19    8   28 1
    20    9   10 1
    21    9   16 1
    22    9   29 1
    23    9   30 1
    24   10   16 1
    25   10   31 1
    26   10   32 1
    27   11   17 1
    28   11   33 1
    29   11   34 1
    30   12   14 1
    31   12   17 1
    32   12   35 1
    33   12   36 1
    34   13   24 1
    35   13   37 1
    36   13   38 1
    37   14   23 1
    38   14   39 1
    39   14   40 1
    40   15   17 1
    41   15   23 1
    42   15   41 1
    43   15   42 1
    44   16   20 1
    45   16   43 1
    46   18   44 1
    47   18   45 1
    48   18   46 1
    49   19   47 1
    50   19   48 1
    51   19   49 1
    52   20   24 1
    53   20   50 1
    54   20   51 1
