@<TRIPOS>MOLECULE
*****
   45    47     0     0     0
SMALL
NO_CHARGES

@<TRIPOS>ATOM
      1 C1         -0.8151    1.6947    3.1750 C.2       1 <0>         0.0000
      2 C2          1.3182    2.0927    2.6646 C.2       1 <0>         0.0000
      3 C3          0.1041    1.7225    2.0913 C.2       1 <0>         0.0000
      4 C4         -1.3809    1.3222    0.1785 C.2       1 <0>         0.0000
      5 C5         -0.9721   -1.2084   -2.4043 C.2       1 <0>         0.0000
      6 C6         -1.3596    0.9137   -1.2916 C.3       1 <0>         0.0000
      7 C7          2.0704   -0.5199   -1.6960 C.3       1 <0>         0.0000
      8 C8          3.0899   -1.1097   -0.7168 C.3       1 <0>         0.0000
      9 C9          0.9938    1.0908   -0.1455 C.3       1 <0>         0.0000
     10 C10         0.8562   -1.3817    0.2651 C.3       1 <0>         0.0000
     11 C11         0.8076   -0.2778   -0.8298 C.3       1 <0>         0.0000
     12 C12        -0.2256   -2.5179   -2.6180 C.3       1 <0>         0.0000
     13 C13         2.0024    2.7325    5.0111 C.3       1 <0>         0.0000
     14 C14         3.1518   -1.2228    2.7329 C.3       1 <0>         0.0000
     15 N1         -0.2080    2.0162    4.3209 N.2       1 <0>         0.0000
     16 N2          1.0818    2.2431    3.9999 N.pl3     1 <0>         0.0000
     17 N3         -0.1223    1.3978    0.7378 N.am      1 <0>         0.0000
     18 N4         -0.4703   -0.2333   -1.5523 N.am      1 <0>         0.0000
     19 N5          2.2368   -1.8922    0.1992 N.pl3     1 <0>         0.0000
     20 O1         -2.4180    1.5700    0.7798 O.2       1 <0>         0.0000
     21 O2         -2.0303   -1.0289   -3.0042 O.2       1 <0>         0.0000
     22 O3          4.2349   -3.0626    1.1697 O.2       1 <0>         0.0000
     23 O4          1.8894   -3.4650    2.1292 O.2       1 <0>         0.0000
     24 S1          2.9081   -2.5838    1.5609 S.o2      1 <0>         0.0000
     25 H1         -1.8687    1.4646    3.1502 H         1 <0>         0.0000
     26 H2          2.2954    2.2796    2.2426 H         1 <0>         0.0000
     27 H3         -2.3698    0.6353   -1.5773 H         1 <0>         0.0000
     28 H4         -1.0724    1.7795   -1.9047 H         1 <0>         0.0000
     29 H5          2.4261    0.4078   -2.1531 H         1 <0>         0.0000
     30 H6          1.8724   -1.2253   -2.4990 H         1 <0>         0.0000
     31 H7          3.8175   -1.7656   -1.1950 H         1 <0>         0.0000
     32 H8          3.6453   -0.3184   -0.1923 H         1 <0>         0.0000
     33 H9          1.9090    1.0564    0.4417 H         1 <0>         0.0000
     34 H10         1.1190    1.8729   -0.9033 H         1 <0>         0.0000
     35 H11         0.6072   -0.9621    1.2449 H         1 <0>         0.0000
     36 H12         0.1459   -2.1852    0.0760 H         1 <0>         0.0000
     37 H13        -0.9834   -3.3031   -2.6524 H         1 <0>         0.0000
     38 H14         0.5257   -2.7813   -1.8763 H         1 <0>         0.0000
     39 H15         0.2490   -2.4892   -3.6040 H         1 <0>         0.0000
     40 H16         1.9319    3.8205    5.1105 H         1 <0>         0.0000
     41 H17         1.7460    2.2680    5.9639 H         1 <0>         0.0000
     42 H18         3.0238    2.4594    4.7364 H         1 <0>         0.0000
     43 H19         3.5636   -1.6657    3.6416 H         1 <0>         0.0000
     44 H20         3.8638   -0.5140    2.3067 H         1 <0>         0.0000
     45 H21         2.1941   -0.7469    2.9486 H         1 <0>         0.0000
@<TRIPOS>BOND
     1    1    3 1
     2    1   15 2
     3    1   25 1
     4    2    3 2
     5    2   16 1
     6    2   26 1
     7    3   17 1
     8    4    6 1
     9    4   17 am
    10    4   20 2
    11    5   12 1
    12    5   18 am
    13    5   21 2
    14    6   18 1
    15    6   27 1
    16    6   28 1
    17    7    8 1
    18    7   11 1
    19    7   29 1
    20    7   30 1
    21    8   19 1
    22    8   31 1
    23    8   32 1
    24    9   11 1
    25    9   17 1
    26    9   33 1
    27    9   34 1
    28   10   11 1
    29   10   19 1
    30   10   35 1
    31   10   36 1
    32   11   18 1
    33   12   37 1
    34   12   38 1
    35   12   39 1
    36   13   16 1
    37   13   40 1
    38   13   41 1
    39   13   42 1
    40   14   24 1
    41   14   43 1
    42   14   44 1
    43   14   45 1
    44   15   16 1
    45   19   24 1
    46   22   24 2
    47   23   24 2
