@<TRIPOS>MOLECULE
*****
   34    36     0     0     0
SMALL
NO_CHARGES

@<TRIPOS>ATOM
      1 C1          2.2261    6.8387   -6.6098 C.ar      1 <0>         0.0000
      2 C2          3.4722    5.1004   -5.5242 C.ar      1 <0>         0.0000
      3 C3          1.0983    6.5048   -5.8593 C.ar      1 <0>         0.0000
      4 C4          2.3569    4.7505   -4.7630 C.ar      1 <0>         0.0000
      5 C5          0.0808    1.7546   -1.6863 C.2       1 <0>         0.0000
      6 C6         -0.1835    0.6607   -0.9095 C.2       1 <0>         0.0000
      7 C7         -1.0887    2.5495   -1.9436 C.2       1 <0>         0.0000
      8 C8          3.4365    6.1473   -6.4582 C.ar      1 <0>         0.0000
      9 C9          1.1564    5.4563   -4.9293 C.ar      1 <0>         0.0000
     10 C10        -2.2001    1.9947   -1.3301 C.2       1 <0>         0.0000
     11 C11        -1.1175    3.7761   -2.7421 C.2       1 <0>         0.0000
     12 C12        -2.3908    4.6015   -2.8128 C.3       1 <0>         0.0000
     13 C13        -3.3344    4.4197   -1.6202 C.3       1 <0>         0.0000
     14 C14         4.6656    6.5339   -7.2483 C.3       1 <0>         0.0000
     15 N1         -0.0302    4.0727   -3.3874 N.2       1 <0>         0.0000
     16 N2          0.0077    5.1555   -4.1786 N.pl3     1 <0>         0.0000
     17 O1         -4.4573    2.2816   -2.7218 O.2       1 <0>         0.0000
     18 O2         -4.5336    2.4730   -0.1830 O.2       1 <0>         0.0000
     19 S1         -1.8519    0.5450   -0.4453 S.3       1 <0>         0.0000
     20 S2         -3.8268    2.6834   -1.4541 S.o2      1 <0>         0.0000
     21 H1          2.1581    7.6521   -7.3289 H         1 <0>         0.0000
     22 H2          4.3950    4.5401   -5.3877 H         1 <0>         0.0000
     23 H3          0.1708    7.0573   -6.0006 H         1 <0>         0.0000
     24 H4          2.4014    3.9361   -4.0496 H         1 <0>         0.0000
     25 H5          1.0612    2.0079   -2.0706 H         1 <0>         0.0000
     26 H6          0.5146   -0.0937   -0.5680 H         1 <0>         0.0000
     27 H7         -2.1319    5.6668   -2.8505 H         1 <0>         0.0000
     28 H8         -2.9378    4.3666   -3.7351 H         1 <0>         0.0000
     29 H9         -2.8771    4.7062   -0.6707 H         1 <0>         0.0000
     30 H10        -4.2666    4.9732   -1.7603 H         1 <0>         0.0000
     31 H11         5.2830    7.2524   -6.6949 H         1 <0>         0.0000
     32 H12         5.2925    5.6630   -7.4633 H         1 <0>         0.0000
     33 H13         4.3979    6.9989   -8.2019 H         1 <0>         0.0000
     34 H14        -0.8508    5.6280   -4.4467 H         1 <0>         0.0000
@<TRIPOS>BOND
     1    1    3 ar
     2    1    8 ar
     3    1   21 1
     4    2    4 ar
     5    2    8 ar
     6    2   22 1
     7    3    9 ar
     8    3   23 1
     9    4    9 ar
    10    4   24 1
    11    5    6 2
    12    5    7 1
    13    5   25 1
    14    6   19 1
    15    6   26 1
    16    7   10 2
    17    7   11 1
    18    8   14 1
    19    9   16 1
    20   10   19 1
    21   10   20 1
    22   11   12 1
    23   11   15 2
    24   12   13 1
    25   12   27 1
    26   12   28 1
    27   13   20 1
    28   13   29 1
    29   13   30 1
    30   14   31 1
    31   14   32 1
    32   14   33 1
    33   15   16 1
    34   16   34 1
    35   17   20 2
    36   18   20 2
