@<TRIPOS>MOLECULE
*****
   45    47     0     0     0
SMALL
NO_CHARGES

@<TRIPOS>ATOM
      1 C1          2.6981    3.2341    0.4022 C.2       1 <0>         0.0000
      2 C2          2.7927    1.9931   -1.4500 C.2       1 <0>         0.0000
      3 C3          1.9768    2.2726   -0.3570 C.2       1 <0>         0.0000
      4 C4          0.0168    1.9464    1.0688 C.2       1 <0>         0.0000
      5 C5         -1.7356   -1.2495    1.5121 C.2       1 <0>         0.0000
      6 C6         -1.3038    1.1810    1.1531 C.3       1 <0>         0.0000
      7 C7         -1.1224   -1.3498   -1.5009 C.3       1 <0>         0.0000
      8 C8         -0.0349   -2.1558   -2.2398 C.3       1 <0>         0.0000
      9 C9          0.0664    0.8119   -1.0500 C.3       1 <0>         0.0000
     10 C10         0.8815   -1.3835   -0.1145 C.3       1 <0>         0.0000
     11 C11        -0.3686   -0.5267   -0.4295 C.3       1 <0>         0.0000
     12 C12        -2.5607   -0.8733    2.7330 C.3       1 <0>         0.0000
     13 C13         5.0455    2.8364   -2.1900 C.3       1 <0>         0.0000
     14 C14         3.0611   -3.2624   -2.9159 C.3       1 <0>         0.0000
     15 N1          3.8671    3.5180   -0.1808 N.2       1 <0>         0.0000
     16 N2          3.9071    2.7559   -1.2934 N.pl3     1 <0>         0.0000
     17 N3          0.7233    1.6794   -0.0723 N.am      1 <0>         0.0000
     18 N4         -1.1654   -0.2317    0.7783 N.am      1 <0>         0.0000
     19 N5          1.1856   -2.0769   -1.3876 N.pl3     1 <0>         0.0000
     20 O1          0.3597    2.7239    1.9556 O.2       1 <0>         0.0000
     21 O2         -1.5942   -2.4348    1.1974 O.2       1 <0>         0.0000
     22 O3          3.6079   -1.3456   -1.1415 O.2       1 <0>         0.0000
     23 O4          2.3866   -0.7346   -3.2771 O.2       1 <0>         0.0000
     24 S1          2.6226   -1.6871   -2.1701 S.o2      1 <0>         0.0000
     25 H1          2.4127    3.7024    1.3303 H         1 <0>         0.0000
     26 H2          2.6942    1.3133   -2.2835 H         1 <0>         0.0000
     27 H3         -1.6318    1.2736    2.1823 H         1 <0>         0.0000
     28 H4         -2.0513    1.6811    0.5200 H         1 <0>         0.0000
     29 H5         -1.6751   -0.7002   -2.1857 H         1 <0>         0.0000
     30 H6         -1.8249   -2.0223   -1.0151 H         1 <0>         0.0000
     31 H7         -0.3264   -3.2029   -2.3585 H         1 <0>         0.0000
     32 H8          0.1739   -1.7357   -3.2267 H         1 <0>         0.0000
     33 H9          0.7462    0.6070   -1.8737 H         1 <0>         0.0000
     34 H10        -0.8032    1.3236   -1.4809 H         1 <0>         0.0000
     35 H11         1.7293   -0.7845    0.2187 H         1 <0>         0.0000
     36 H12         0.6487   -2.1302    0.6426 H         1 <0>         0.0000
     37 H13        -3.3607   -0.1665    2.4934 H         1 <0>         0.0000
     38 H14        -1.9380   -0.4268    3.5152 H         1 <0>         0.0000
     39 H15        -2.9991   -1.7933    3.1188 H         1 <0>         0.0000
     40 H16         5.0215    3.7686   -2.7633 H         1 <0>         0.0000
     41 H17         5.9654    2.7994   -1.6034 H         1 <0>         0.0000
     42 H18         5.0168    1.9865   -2.8737 H         1 <0>         0.0000
     43 H19         3.9743   -3.0950   -3.4896 H         1 <0>         0.0000
     44 H20         3.2243   -3.9816   -2.1137 H         1 <0>         0.0000
     45 H21         2.2524   -3.5798   -3.5754 H         1 <0>         0.0000
@<TRIPOS>BOND
     1    1    3 1
     2    1   15 2
     3    1   25 1
     4    2    3 2
     5    2   16 1
     6    2   26 1
     7    3   17 1
     8    4    6 1
     9    4   17 am
    10    4   20 2
    11    5   12 1
    12    5   18 am
    13    5   21 2
    14    6   18 1
    15    6   27 1
    16    6   28 1
    17    7    8 1
    18    7   11 1
    19    7   29 1
    20    7   30 1
    21    8   19 1
    22    8   31 1
    23    8   32 1
    24    9   11 1
    25    9   17 1
    26    9   33 1
    27    9   34 1
    28   10   11 1
    29   10   19 1
    30   10   35 1
    31   10   36 1
    32   11   18 1
    33   12   37 1
    34   12   38 1
    35   12   39 1
    36   13   16 1
    37   13   40 1
    38   13   41 1
    39   13   42 1
    40   14   24 1
    41   14   43 1
    42   14   44 1
    43   14   45 1
    44   15   16 1
    45   19   24 1
    46   22   24 2
    47   23   24 2
