@<TRIPOS>MOLECULE
*****
   35    37     0     0     0
SMALL
NO_CHARGES

@<TRIPOS>ATOM
      1 C1         -0.0126   -0.1417   -0.6734 C.ar      1 <0>         0.0000
      2 C2          0.0097   -1.4361   -0.1252 C.ar      1 <0>         0.0000
      3 C3          4.0847   -5.5682   -4.8507 C.ar      1 <0>         0.0000
      4 C4          2.9307   -6.0636   -2.7873 C.ar      1 <0>         0.0000
      5 C5         -0.0604    0.0536   -2.0550 C.ar      1 <0>         0.0000
      6 C6          2.8645   -5.4403   -5.5135 C.ar      1 <0>         0.0000
      7 C7          1.6994   -5.9358   -3.4290 C.ar      1 <0>         0.0000
      8 C8          4.1365   -5.8800   -3.4821 C.ar      1 <0>         0.0000
      9 C9         -0.0166   -2.5800   -0.9276 C.ar      1 <0>         0.0000
     10 C10        -0.0696   -2.3893   -2.3210 C.ar      1 <0>         0.0000
     11 C11        -0.0866   -1.0836   -2.8644 C.ar      1 <0>         0.0000
     12 C12         1.6838   -5.6220   -4.7892 C.ar      1 <0>         0.0000
     13 C13        -0.1400   -2.9536   -4.4577 C.2       1 <0>         0.0000
     14 C14         5.4630   -6.0486   -2.7811 C.3       1 <0>         0.0000
     15 C15         0.0203   -3.9752   -0.3581 C.3       1 <0>         0.0000
     16 N1         -0.1020   -3.4218   -3.2538 N.2       1 <0>         0.0000
     17 N2         -0.1780   -3.7308   -5.6016 N.pl3     1 <0>         0.0000
     18 O1         -0.9178   -6.0872   -4.8468 O.2       1 <0>         0.0000
     19 O2          0.3007   -5.6721   -7.0574 O.2       1 <0>         0.0000
     20 S1         -0.1446   -1.1797   -4.6229 S.3       1 <0>         0.0000
     21 S2          0.1205   -5.4309   -5.6250 S.o2      1 <0>         0.0000
     22 H1          0.0077    0.7209   -0.0130 H         1 <0>         0.0000
     23 H2          0.0472   -1.5522    0.9553 H         1 <0>         0.0000
     24 H3          5.0094   -5.4299   -5.4057 H         1 <0>         0.0000
     25 H4          2.9545   -6.3065   -1.7276 H         1 <0>         0.0000
     26 H5         -0.0764    1.0535   -2.4782 H         1 <0>         0.0000
     27 H6          2.8251   -5.2190   -6.5757 H         1 <0>         0.0000
     28 H7          0.7651   -6.0646   -2.8959 H         1 <0>         0.0000
     29 H8          5.7966   -7.0918   -2.8349 H         1 <0>         0.0000
     30 H9          6.2398   -5.4309   -3.2404 H         1 <0>         0.0000
     31 H10         5.3927   -5.7804   -1.7232 H         1 <0>         0.0000
     32 H11        -0.8111   -4.5763   -0.7389 H         1 <0>         0.0000
     33 H12         0.9438   -4.4870   -0.6513 H         1 <0>         0.0000
     34 H13        -0.0309   -3.9566    0.7337 H         1 <0>         0.0000
     35 H14         0.0355   -3.2979   -6.4950 H         1 <0>         0.0000
@<TRIPOS>BOND
     1    1    2 ar
     2    1    5 ar
     3    1   22 1
     4    2    9 ar
     5    2   23 1
     6    3    6 ar
     7    3    8 ar
     8    3   24 1
     9    4    7 ar
    10    4    8 ar
    11    4   25 1
    12    5   11 ar
    13    5   26 1
    14    6   12 ar
    15    6   27 1
    16    7   12 ar
    17    7   28 1
    18    8   14 1
    19    9   10 ar
    20    9   15 1
    21   10   11 ar
    22   10   16 1
    23   11   20 1
    24   12   21 1
    25   13   16 2
    26   13   17 1
    27   13   20 1
    28   14   29 1
    29   14   30 1
    30   14   31 1
    31   15   32 1
    32   15   33 1
    33   15   34 1
    34   17   21 1
    35   17   35 1
    36   18   21 2
    37   19   21 2
