@<TRIPOS>MOLECULE
*****
   37    39     0     0     0
SMALL
NO_CHARGES

@<TRIPOS>ATOM
      1 C1          1.8645    3.4352    3.6776 C.1       1 <0>         0.0000
      2 C2         -3.9408    3.3541    4.7958 C.ar      1 <0>         0.0000
      3 C3         -2.3431    5.0329    5.5426 C.ar      1 <0>         0.0000
      4 C4         -4.9732    4.0315    5.4506 C.ar      1 <0>         0.0000
      5 C5         -3.3695    5.7133    6.2032 C.ar      1 <0>         0.0000
      6 C6         -2.6295    3.8591    4.8248 C.ar      1 <0>         0.0000
      7 C7         -4.6644    5.1889    6.1678 C.ar      1 <0>         0.0000
      8 C8          0.3291    1.6556    2.7533 C.2       1 <0>         0.0000
      9 C9          0.4883   -0.1397    1.5154 C.2       1 <0>         0.0000
     10 C10         0.5506    2.8794    3.5236 C.2       1 <0>         0.0000
     11 C11         1.0562   -1.2427    0.6858 C.3       1 <0>         0.0000
     12 C12         2.1895   -2.0208    1.3859 C.3       1 <0>         0.0000
     13 C13         3.5328   -1.2794    1.4518 C.3       1 <0>         0.0000
     14 C14         3.5443    0.0311    2.2528 C.3       1 <0>         0.0000
     15 C15         2.6443    1.1370    1.6906 C.3       1 <0>         0.0000
     16 N1          2.9426    3.8641    3.8003 N.1       1 <0>         0.0000
     17 N2         -0.8644    1.0633    2.7017 N.2       1 <0>         0.0000
     18 N3         -0.7618   -0.0640    1.9304 N.2       1 <0>         0.0000
     19 N4         -0.3851    3.5521    4.1643 N.2       1 <0>         0.0000
     20 N5          1.2221    0.9205    1.9959 N.pl3     1 <0>         0.0000
     21 N6         -1.6335    3.1379    4.1515 N.pl3     1 <0>         0.0000
     22 I1         -6.4008    6.6583    6.5799 I         1 <0>         0.0000
     23 H1         -4.1583    2.4368    4.2536 H         1 <0>         0.0000
     24 H2         -1.3261    5.4076    5.5739 H         1 <0>         0.0000
     25 H3         -5.9865    3.6467    5.4077 H         1 <0>         0.0000
     26 H4         -3.1493    6.6266    6.7459 H         1 <0>         0.0000
     27 H5          0.2221   -1.9111    0.4600 H         1 <0>         0.0000
     28 H6          1.4183   -0.8464   -0.2724 H         1 <0>         0.0000
     29 H7          1.8612   -2.2980    2.3949 H         1 <0>         0.0000
     30 H8          2.3413   -2.9580    0.8391 H         1 <0>         0.0000
     31 H9          4.2807   -1.9537    1.8843 H         1 <0>         0.0000
     32 H10         3.8707   -1.0672    0.4279 H         1 <0>         0.0000
     33 H11         3.2687   -0.1500    3.2985 H         1 <0>         0.0000
     34 H12         4.5673    0.4233    2.2642 H         1 <0>         0.0000
     35 H13         2.9358    2.1007    2.0956 H         1 <0>         0.0000
     36 H14         2.7450    1.2002    0.6014 H         1 <0>         0.0000
     37 H15        -1.8583    2.2607    3.6509 H         1 <0>         0.0000
@<TRIPOS>BOND
     1    1   10 1
     2    1   16 3
     3    2    4 ar
     4    2    6 ar
     5    2   23 1
     6    3    5 ar
     7    3    6 ar
     8    3   24 1
     9    4    7 ar
    10    4   25 1
    11    5    7 ar
    12    5   26 1
    13    6   21 1
    14    7   22 1
    15    8   10 1
    16    8   17 2
    17    8   20 1
    18    9   11 1
    19    9   18 2
    20    9   20 1
    21   10   19 2
    22   11   12 1
    23   11   27 1
    24   11   28 1
    25   12   13 1
    26   12   29 1
    27   12   30 1
    28   13   14 1
    29   13   31 1
    30   13   32 1
    31   14   15 1
    32   14   33 1
    33   14   34 1
    34   15   20 1
    35   15   35 1
    36   15   36 1
    37   17   18 1
    38   19   21 1
    39   21   37 1
