@<TRIPOS>MOLECULE
*****
   40    43     0     0     0
SMALL
NO_CHARGES

@<TRIPOS>ATOM
      1 C1          2.2967   -1.4768   -0.0561 C.ar      1 <0>         0.0000
      2 C2          1.0012   -1.1267    0.3440 C.ar      1 <0>         0.0000
      3 C3          3.0715   -2.2977    0.7630 C.ar      1 <0>         0.0000
      4 C4          0.5023   -1.6010    1.5568 C.ar      1 <0>         0.0000
      5 C5          1.0229   -4.8066   10.1766 C.ar      1 <0>         0.0000
      6 C6          1.0416   -4.4754    8.8207 C.ar      1 <0>         0.0000
      7 C7          3.4719   -4.8036    8.7079 C.ar      1 <0>         0.0000
      8 C8          2.5762   -2.7780    1.9846 C.ar      1 <0>         0.0000
      9 C9          1.2789   -2.4225    2.3867 C.ar      1 <0>         0.0000
     10 C10         2.2266   -5.1361   10.8033 C.ar      1 <0>         0.0000
     11 C11         2.2517   -4.4733    8.0857 C.ar      1 <0>         0.0000
     12 C12         3.4105   -5.1238   10.0541 C.ar      1 <0>         0.0000
     13 C13         3.8182   -5.6889   12.1229 C.2       1 <0>         0.0000
     14 C14         1.3108   -3.6657    5.8913 C.2       1 <0>         0.0000
     15 C15         3.4302   -3.6670    2.8644 C.3       1 <0>         0.0000
     16 C16         0.6736   -2.9179    3.6858 C.3       1 <0>         0.0000
     17 C17         2.5662   -4.4540    3.8471 C.3       1 <0>         0.0000
     18 C18         4.6997   -6.0917   13.2506 C.3       1 <0>         0.0000
     19 N1          2.5364   -5.5031   12.1219 N.2       1 <0>         0.0000
     20 N2          1.6748   -3.5327    4.5560 N.am      1 <0>         0.0000
     21 N3          2.3134   -4.1774    6.7065 N.am      1 <0>         0.0000
     22 O1          0.2085   -3.3117    6.3067 O.2       1 <0>         0.0000
     23 O2          4.4410   -5.4791   10.8962 O.3       1 <0>         0.0000
     24 H1          2.6960   -1.1145   -0.9998 H         1 <0>         0.0000
     25 H2          0.3869   -0.4876   -0.2848 H         1 <0>         0.0000
     26 H3          4.0765   -2.5769    0.4521 H         1 <0>         0.0000
     27 H4         -0.5035   -1.3275    1.8703 H         1 <0>         0.0000
     28 H5          0.0894   -4.8031   10.7313 H         1 <0>         0.0000
     29 H6          0.1278   -4.1992    8.3146 H         1 <0>         0.0000
     30 H7          4.4119   -4.8093    8.1620 H         1 <0>         0.0000
     31 H8          4.0146   -4.3591    2.2476 H         1 <0>         0.0000
     32 H9          4.1455   -3.0537    3.4277 H         1 <0>         0.0000
     33 H10         0.2148   -2.0912    4.2294 H         1 <0>         0.0000
     34 H11        -0.1348   -3.6338    3.4689 H         1 <0>         0.0000
     35 H12         1.9613   -5.1954    3.3025 H         1 <0>         0.0000
     36 H13         3.1843   -5.0140    4.5488 H         1 <0>         0.0000
     37 H14         5.2176   -7.0289   13.0219 H         1 <0>         0.0000
     38 H15         5.4616   -5.3280   13.4385 H         1 <0>         0.0000
     39 H16         4.0928   -6.2240   14.1466 H         1 <0>         0.0000
     40 H17         3.2480   -4.1669    6.3240 H         1 <0>         0.0000
@<TRIPOS>BOND
     1    1    2 ar
     2    1    3 ar
     3    1   24 1
     4    2    4 ar
     5    2   25 1
     6    3    8 ar
     7    3   26 1
     8    4    9 ar
     9    4   27 1
    10    5    6 ar
    11    5   10 ar
    12    5   28 1
    13    6   11 ar
    14    6   29 1
    15    7   11 ar
    16    7   12 ar
    17    7   30 1
    18    8    9 ar
    19    8   15 1
    20    9   16 1
    21   10   12 ar
    22   10   19 1
    23   11   21 1
    24   12   23 1
    25   13   18 1
    26   13   19 2
    27   13   23 1
    28   14   20 am
    29   14   21 am
    30   14   22 2
    31   15   17 1
    32   15   31 1
    33   15   32 1
    34   16   20 1
    35   16   33 1
    36   16   34 1
    37   17   20 1
    38   17   35 1
    39   17   36 1
    40   18   37 1
    41   18   38 1
    42   18   39 1
    43   21   40 1
