@<TRIPOS>MOLECULE
*****
   40    43     0     0     0
SMALL
NO_CHARGES

@<TRIPOS>ATOM
      1 C1          1.5419   -0.7952   -0.1689 C.ar      1 <0>         0.0000
      2 C2          0.4358   -0.7335   -1.0253 C.ar      1 <0>         0.0000
      3 C3          2.5527   -1.7236   -0.4172 C.ar      1 <0>         0.0000
      4 C4          0.3592   -1.5990   -2.1161 C.ar      1 <0>         0.0000
      5 C5          5.9682   -7.2013   -7.7363 C.ar      1 <0>         0.0000
      6 C6          5.4699   -6.4987   -6.6412 C.ar      1 <0>         0.0000
      7 C7          3.2362   -6.2949   -7.6388 C.ar      1 <0>         0.0000
      8 C8          2.4828   -2.5969   -1.5129 C.ar      1 <0>         0.0000
      9 C9          1.3754   -2.5307   -2.3730 C.ar      1 <0>         0.0000
     10 C10         5.0914   -7.4583   -8.7937 C.ar      1 <0>         0.0000
     11 C11         4.1272   -6.0462   -6.5802 C.ar      1 <0>         0.0000
     12 C12         3.7693   -7.0015   -8.7070 C.ar      1 <0>         0.0000
     13 C13         4.1035   -8.0456  -10.5957 C.2       1 <0>         0.0000
     14 C14         2.5449   -4.7400   -5.1259 C.2       1 <0>         0.0000
     15 C15         3.5896   -3.5977   -1.7713 C.3       1 <0>         0.0000
     16 C16         1.2253   -3.4541   -3.5663 C.3       1 <0>         0.0000
     17 C17         3.0982   -4.7368   -2.6617 C.3       1 <0>         0.0000
     18 C18         3.6926   -8.5760  -11.9227 C.3       1 <0>         0.0000
     19 N1          5.2618   -8.1206  -10.0177 N.2       1 <0>         0.0000
     20 N2          2.4614   -4.1791   -3.8570 N.am      1 <0>         0.0000
     21 N3          3.7543   -5.3620   -5.4034 N.am      1 <0>         0.0000
     22 O1          1.6295   -4.6447   -5.9436 O.2       1 <0>         0.0000
     23 O2          3.1289   -7.3783   -9.8680 O.3       1 <0>         0.0000
     24 H1          1.6123   -0.1271    0.6855 H         1 <0>         0.0000
     25 H2         -0.3590   -0.0148   -0.8438 H         1 <0>         0.0000
     26 H3          3.4110   -1.7785    0.2500 H         1 <0>         0.0000
     27 H4         -0.4988   -1.5505   -2.7841 H         1 <0>         0.0000
     28 H5          7.0000   -7.5374   -7.7659 H         1 <0>         0.0000
     29 H6          6.1314   -6.2905   -5.8025 H         1 <0>         0.0000
     30 H7          2.2155   -5.9413   -7.6126 H         1 <0>         0.0000
     31 H8          4.4340   -3.0980   -2.2632 H         1 <0>         0.0000
     32 H9          3.9619   -4.0023   -0.8234 H         1 <0>         0.0000
     33 H10         0.4013   -4.1622   -3.3856 H         1 <0>         0.0000
     34 H11         0.9513   -2.8837   -4.4545 H         1 <0>         0.0000
     35 H12         3.9192   -5.4012   -2.9312 H         1 <0>         0.0000
     36 H13         2.3663   -5.3507   -2.1145 H         1 <0>         0.0000
     37 H14         2.8682   -9.2886  -11.8160 H         1 <0>         0.0000
     38 H15         3.3483   -7.7651  -12.5730 H         1 <0>         0.0000
     39 H16         4.5439   -9.0747  -12.3867 H         1 <0>         0.0000
     40 H17         4.5196   -5.1699   -4.7734 H         1 <0>         0.0000
@<TRIPOS>BOND
     1    1    2 ar
     2    1    3 ar
     3    1   24 1
     4    2    4 ar
     5    2   25 1
     6    3    8 ar
     7    3   26 1
     8    4    9 ar
     9    4   27 1
    10    5    6 ar
    11    5   10 ar
    12    5   28 1
    13    6   11 ar
    14    6   29 1
    15    7   11 ar
    16    7   12 ar
    17    7   30 1
    18    8    9 ar
    19    8   15 1
    20    9   16 1
    21   10   12 ar
    22   10   19 1
    23   11   21 1
    24   12   23 1
    25   13   18 1
    26   13   19 2
    27   13   23 1
    28   14   20 am
    29   14   21 am
    30   14   22 2
    31   15   17 1
    32   15   31 1
    33   15   32 1
    34   16   20 1
    35   16   33 1
    36   16   34 1
    37   17   20 1
    38   17   35 1
    39   17   36 1
    40   18   37 1
    41   18   38 1
    42   18   39 1
    43   21   40 1
