@<TRIPOS>MOLECULE
*****
   28    29     0     0     0
SMALL
NO_CHARGES

@<TRIPOS>ATOM
      1 C1         -0.0740   -0.0859   -9.3075 C.ar      1 <0>         0.0000
      2 C2         -1.3120   -0.4960   -8.8031 C.ar      1 <0>         0.0000
      3 C3          0.9448    0.3200   -8.4428 C.ar      1 <0>         0.0000
      4 C4         -0.5070   -0.1229   -6.5031 C.ar      1 <0>         0.0000
      5 C5         -1.4984   -0.4980   -7.4285 C.ar      1 <0>         0.0000
      6 C6          0.7019    0.2992   -7.0756 C.ar      1 <0>         0.0000
      7 C7          3.1643   -2.1520   -0.8918 C.2       1 <0>         0.0000
      8 C8          1.7786   -1.6994   -0.6653 C.2       1 <0>         0.0000
      9 C9          1.7987   -1.3935   -3.0476 C.2       1 <0>         0.0000
     10 C10        -0.8360   -0.1294   -5.0628 C.2       1 <0>         0.0000
     11 C11         3.9557   -2.5864    0.3050 C.3       1 <0>         0.0000
     12 N1          3.7197   -2.1859   -2.0745 N.2       1 <0>         0.0000
     13 N2          3.0343   -1.7986   -3.1981 N.2       1 <0>         0.0000
     14 N3         -0.1401   -0.5136   -4.0469 N.2       1 <0>         0.0000
     15 N4          1.1485   -1.3258   -1.8536 N.am      1 <0>         0.0000
     16 N5          1.1005   -1.0250   -4.1795 N.pl3     1 <0>         0.0000
     17 O1          1.2049   -1.6393    0.4167 O.2       1 <0>         0.0000
     18 F1         -2.6969   -0.8915   -6.9387 F         1 <0>         0.0000
     19 F2          1.6877    0.7341   -6.2468 F         1 <0>         0.0000
     20 H1          0.0946   -0.0764  -10.3799 H         1 <0>         0.0000
     21 H2         -2.1216   -0.8126   -9.4523 H         1 <0>         0.0000
     22 H3          1.9081    0.6618   -8.8069 H         1 <0>         0.0000
     23 H4         -1.8445    0.1829   -4.8068 H         1 <0>         0.0000
     24 H5          3.4565   -3.4170    0.8152 H         1 <0>         0.0000
     25 H6          4.0291   -1.7718    1.0334 H         1 <0>         0.0000
     26 H7          4.9548   -2.8925   -0.0085 H         1 <0>         0.0000
     27 H8          0.1891   -0.9847   -1.8266 H         1 <0>         0.0000
     28 H9          1.6494   -0.9770   -5.0343 H         1 <0>         0.0000
@<TRIPOS>BOND
     1    1    3 ar
     2    1    2 ar
     3    1   20 1
     4    2    5 ar
     5    2   21 1
     6    3    6 ar
     7    3   22 1
     8    4    6 ar
     9    4    5 ar
    10    4   10 1
    11    5   18 1
    12    6   19 1
    13    7    8 1
    14    7   11 1
    15    7   12 2
    16    8   15 am
    17    8   17 2
    18    9   13 2
    19    9   15 1
    20    9   16 1
    21   10   14 2
    22   10   23 1
    23   11   24 1
    24   11   25 1
    25   11   26 1
    26   12   13 1
    27   14   16 1
    28   15   27 1
    29   16   28 1
