@<TRIPOS>MOLECULE
*****
   28    29     0     0     0
SMALL
NO_CHARGES

@<TRIPOS>ATOM
      1 C1          5.3157   -6.7310    2.0192 C.ar      1 <0>         0.0000
      2 C2          4.2253   -7.4544    2.5331 C.ar      1 <0>         0.0000
      3 C3          5.1265   -5.5125    1.3660 C.ar      1 <0>         0.0000
      4 C4          2.9215   -6.9662    2.4013 C.ar      1 <0>         0.0000
      5 C5          3.8254   -5.0082    1.2228 C.ar      1 <0>         0.0000
      6 C6          2.7343   -5.7483    1.7459 C.ar      1 <0>         0.0000
      7 C7          2.1995   -3.6347    0.6388 C.2       1 <0>         0.0000
      8 C8          0.3160   -0.4816   -1.2330 C.2       1 <0>         0.0000
      9 C9          0.2526    0.8556   -1.3799 C.2       1 <0>         0.0000
     10 C10        -0.3093   -1.3021   -0.1762 C.2       1 <0>         0.0000
     11 C11        -0.3984    1.8610   -0.4741 C.3       1 <0>         0.0000
     12 N1          3.4882   -3.8123    0.5998 N.2       1 <0>         0.0000
     13 N2          0.2536   -2.3253    0.3829 N.2       1 <0>         0.0000
     14 N3         -1.5886   -0.9502    0.2666 N.pl3     1 <0>         0.0000
     15 N4          1.5774   -2.5591    0.0579 N.pl3     1 <0>         0.0000
     16 S1          1.2274   -4.8852    1.4385 S.3       1 <0>         0.0000
     17 H1          6.3214   -7.1273    2.1327 H         1 <0>         0.0000
     18 H2          4.3937   -8.4018    3.0377 H         1 <0>         0.0000
     19 H3          5.9637   -4.9468    0.9671 H         1 <0>         0.0000
     20 H4          2.0791   -7.5252    2.7997 H         1 <0>         0.0000
     21 H5          0.8891   -1.0551   -1.9604 H         1 <0>         0.0000
     22 H6          0.7623    1.2714   -2.2495 H         1 <0>         0.0000
     23 H7         -1.2074    2.3831   -1.0012 H         1 <0>         0.0000
     24 H8          0.3316    2.6289   -0.1911 H         1 <0>         0.0000
     25 H9         -0.8086    1.4073    0.4281 H         1 <0>         0.0000
     26 H10        -2.2180   -0.6799   -0.4828 H         1 <0>         0.0000
     27 H11        -1.9903   -1.6664    0.8666 H         1 <0>         0.0000
     28 H12         2.1933   -1.7751   -0.1477 H         1 <0>         0.0000
@<TRIPOS>BOND
     1    1    2 ar
     2    1    3 ar
     3    1   17 1
     4    2    4 ar
     5    2   18 1
     6    3    5 ar
     7    3   19 1
     8    4    6 ar
     9    4   20 1
    10    5    6 ar
    11    5   12 1
    12    6   16 1
    13    7   12 2
    14    7   15 1
    15    7   16 1
    16    8    9 2
    17    8   10 1
    18    8   21 1
    19    9   11 1
    20    9   22 1
    21   10   13 2
    22   10   14 1
    23   11   23 1
    24   11   24 1
    25   11   25 1
    26   13   15 1
    27   14   26 1
    28   14   27 1
    29   15   28 1
