@<TRIPOS>MOLECULE
*****
   31    33     0     0     0
SMALL
NO_CHARGES

@<TRIPOS>ATOM
      1 C1         -5.1523    2.2273   -0.0059 C.1       1 <0>         0.0000
      2 C2         -3.8867   -3.2567    2.9797 C.ar      1 <0>         0.0000
      3 C3         -5.2695   -3.1745    2.8474 C.ar      1 <0>         0.0000
      4 C4         -5.2829   -0.8578    3.6614 C.ar      1 <0>         0.0000
      5 C5         -1.6632   -0.6647    4.1989 C.2       1 <0>         0.0000
      6 C6         -5.4353    3.1571    1.0247 C.2       1 <0>         0.0000
      7 C7         -3.8791   -0.9171    3.7742 C.ar      1 <0>         0.0000
      8 C8         -2.8686    0.0168    4.2394 C.2       1 <0>         0.0000
      9 C9         -3.2077   -2.1277    3.4494 C.ar      1 <0>         0.0000
     10 C10        -5.9437   -1.9861    3.1960 C.ar      1 <0>         0.0000
     11 C11        -5.0503    3.0481    2.3447 C.2       1 <0>         0.0000
     12 C12        -6.1557    4.9019    2.0397 C.2       1 <0>         0.0000
     13 C13        -3.0270    1.3975    4.7040 C.2       1 <0>         0.0000
     14 C14        -6.7366    6.1945    2.4856 C.3       1 <0>         0.0000
     15 N1         -4.8761    1.4203   -0.8040 N.1       1 <0>         0.0000
     16 N2         -6.1480    4.3566    0.8694 N.2       1 <0>         0.0000
     17 N3         -3.7424    2.3393    4.1842 N.2       1 <0>         0.0000
     18 N4         -1.8612   -1.9385    3.7203 N.pl3     1 <0>         0.0000
     19 N5         -4.4185    2.0468    3.0250 N.pl3     1 <0>         0.0000
     20 O1         -5.4959    4.1409    3.0076 O.3       1 <0>         0.0000
     21 Br1        -7.8546   -1.9406    3.0252 Br        1 <0>         0.0000
     22 H1         -3.3622   -4.1745    2.7274 H         1 <0>         0.0000
     23 H2         -5.8336   -4.0259    2.4826 H         1 <0>         0.0000
     24 H3         -5.8316    0.0365    3.9333 H         1 <0>         0.0000
     25 H4         -0.6729   -0.3181    4.4645 H         1 <0>         0.0000
     26 H5         -2.4712    1.7092    5.5865 H         1 <0>         0.0000
     27 H6         -7.4735    6.0400    3.2803 H         1 <0>         0.0000
     28 H7         -5.9577    6.8584    2.8746 H         1 <0>         0.0000
     29 H8         -7.2217    6.6716    1.6335 H         1 <0>         0.0000
     30 H9         -1.1316   -2.6201    3.5641 H         1 <0>         0.0000
     31 H10        -4.1224    1.2517    2.4581 H         1 <0>         0.0000
@<TRIPOS>BOND
     1    1    6 1
     2    1   15 3
     3    2    3 ar
     4    2    9 ar
     5    2   22 1
     6    3   10 ar
     7    3   23 1
     8    4    7 ar
     9    4   10 ar
    10    4   24 1
    11    5    8 2
    12    5   18 1
    13    5   25 1
    14    6   11 2
    15    6   16 1
    16    7    8 1
    17    7    9 ar
    18    8   13 1
    19    9   18 1
    20   10   21 1
    21   11   19 1
    22   11   20 1
    23   12   14 1
    24   12   16 2
    25   12   20 1
    26   13   17 2
    27   13   26 1
    28   14   27 1
    29   14   28 1
    30   14   29 1
    31   17   19 1
    32   18   30 1
    33   19   31 1
