@<TRIPOS>MOLECULE
*****
   34    36     0     0     0
SMALL
NO_CHARGES

@<TRIPOS>ATOM
      1 C1         -0.6446    0.5107   -2.1703 C.ar      1 <0>         0.0000
      2 C2         -0.8945   -0.0520   -0.9115 C.ar      1 <0>         0.0000
      3 C3         -2.6105   -2.9444   -8.7020 C.ar      1 <0>         0.0000
      4 C4         -2.3278   -2.4516   -7.4266 C.ar      1 <0>         0.0000
      5 C5         -3.8900   -2.7966   -9.2457 C.ar      1 <0>         0.0000
      6 C6         -1.1440   -0.1064   -3.3122 C.ar      1 <0>         0.0000
      7 C7         -1.6444   -1.2195   -0.8130 C.ar      1 <0>         0.0000
      8 C8         -4.6001   -1.6241   -7.2666 C.ar      1 <0>         0.0000
      9 C9         -3.3303   -1.7921   -6.7015 C.ar      1 <0>         0.0000
     10 C10        -4.9037   -2.1362   -8.5340 C.ar      1 <0>         0.0000
     11 C11        -1.9105   -1.2786   -3.2247 C.ar      1 <0>         0.0000
     12 C12        -2.1676   -1.8413   -1.9609 C.ar      1 <0>         0.0000
     13 C13        -3.0521   -1.1464   -5.3737 C.2       1 <0>         0.0000
     14 C14        -2.4845   -3.3668   -4.3772 C.3       1 <0>         0.0000
     15 C15        -3.5627   -3.7927   -3.3834 C.3       1 <0>         0.0000
     16 C16        -6.2916   -1.9906   -9.1145 C.3       1 <0>         0.0000
     17 N1         -2.3655   -1.9068   -4.4266 N.am      1 <0>         0.0000
     18 O1         -3.3831    0.0184   -5.1734 O.2       1 <0>         0.0000
     19 S1         -3.1172   -3.3197   -1.6756 S.3       1 <0>         0.0000
     20 H1         -0.0597    1.4215   -2.2608 H         1 <0>         0.0000
     21 H2         -0.5056    0.4158   -0.0111 H         1 <0>         0.0000
     22 H3         -1.8313   -3.4387   -9.2765 H         1 <0>         0.0000
     23 H4         -1.3310   -2.5560   -7.0059 H         1 <0>         0.0000
     24 H5         -4.1008   -3.1879  -10.2387 H         1 <0>         0.0000
     25 H6         -0.9573    0.3209   -4.2912 H         1 <0>         0.0000
     26 H7         -1.8396   -1.6587    0.1625 H         1 <0>         0.0000
     27 H8         -5.3503   -1.0724   -6.7057 H         1 <0>         0.0000
     28 H9         -1.5168   -3.7940   -4.0967 H         1 <0>         0.0000
     29 H10        -2.7475   -3.7384   -5.3650 H         1 <0>         0.0000
     30 H11        -4.5212   -3.3451   -3.6592 H         1 <0>         0.0000
     31 H12        -3.6721   -4.8808   -3.3791 H         1 <0>         0.0000
     32 H13        -6.9178   -2.8514   -8.8506 H         1 <0>         0.0000
     33 H14        -6.7896   -1.0937   -8.7353 H         1 <0>         0.0000
     34 H15        -6.2630   -1.9284  -10.2063 H         1 <0>         0.0000
@<TRIPOS>BOND
     1    1    2 ar
     2    1    6 ar
     3    1   20 1
     4    2    7 ar
     5    2   21 1
     6    3    4 ar
     7    3    5 ar
     8    3   22 1
     9    4    9 ar
    10    4   23 1
    11    5   10 ar
    12    5   24 1
    13    6   11 ar
    14    6   25 1
    15    7   12 ar
    16    7   26 1
    17    8    9 ar
    18    8   10 ar
    19    8   27 1
    20    9   13 1
    21   10   16 1
    22   11   12 ar
    23   11   17 1
    24   12   19 1
    25   13   17 am
    26   13   18 2
    27   14   15 1
    28   14   17 1
    29   14   28 1
    30   14   29 1
    31   15   19 1
    32   15   30 1
    33   15   31 1
    34   16   32 1
    35   16   33 1
    36   16   34 1
