@<TRIPOS>MOLECULE
*****
   42    45     0     0     0
SMALL
NO_CHARGES

@<TRIPOS>ATOM
      1 C1         -1.9872    8.3546    7.5292 C.ar      1 <0>         0.0000
      2 C2         -1.9218    7.2708    8.4112 C.ar      1 <0>         0.0000
      3 C3         -1.6927    8.1621    6.1748 C.ar      1 <0>         0.0000
      4 C4          3.0363   -0.4481    0.9683 C.ar      1 <0>         0.0000
      5 C5         -1.5638    6.0018    7.9520 C.ar      1 <0>         0.0000
      6 C6         -1.3346    6.9002    5.6978 C.ar      1 <0>         0.0000
      7 C7          2.0163   -1.1485    0.3293 C.ar      1 <0>         0.0000
      8 C8          0.4082   -0.0525    1.7957 C.ar      1 <0>         0.0000
      9 C9          2.7846    0.4544    2.0111 C.ar      1 <0>         0.0000
     10 C10        -1.2721    5.8279    6.5947 C.ar      1 <0>         0.0000
     11 C11         1.4513    0.6510    2.4228 C.ar      1 <0>         0.0000
     12 C12         0.7134   -0.9288    0.7688 C.ar      1 <0>         0.0000
     13 C13        -0.2812    3.0122    4.8124 C.2       1 <0>         0.0000
     14 C14        -0.4830    2.4656    6.1074 C.2       1 <0>         0.0000
     15 C15         0.0253    2.3158    3.5228 C.2       1 <0>         0.0000
     16 C16         3.9509    1.1615    2.6755 C.3       1 <0>         0.0000
     17 C17         3.4966    2.2715    3.6238 C.3       1 <0>         0.0000
     18 C18         2.2906    1.7884    4.4281 C.3       1 <0>         0.0000
     19 C19        -0.3198    1.0587    6.5893 C.3       1 <0>         0.0000
     20 N1         -0.5633    4.3184    4.8470 N.2       1 <0>         0.0000
     21 N2         -0.8830    3.4556    6.9109 N.2       1 <0>         0.0000
     22 N3         -0.9068    4.5392    6.1174 N.pl3     1 <0>         0.0000
     23 N4          1.1646    1.5190    3.5207 N.am      1 <0>         0.0000
     24 O1         -0.7440    2.4093    2.5735 O.2       1 <0>         0.0000
     25 F1         -0.3024   -1.6060    0.1714 F         1 <0>         0.0000
     26 H1         -2.2666    9.3395    7.8931 H         1 <0>         0.0000
     27 H2         -2.1501    7.4101    9.4644 H         1 <0>         0.0000
     28 H3         -1.7439    8.9972    5.4815 H         1 <0>         0.0000
     29 H4          4.0647   -0.5990    0.6476 H         1 <0>         0.0000
     30 H5         -1.5106    5.1534    8.6240 H         1 <0>         0.0000
     31 H6         -1.1089    6.7359    4.6506 H         1 <0>         0.0000
     32 H7          2.2115   -1.8412   -0.4830 H         1 <0>         0.0000
     33 H8         -0.6238    0.0886    2.0870 H         1 <0>         0.0000
     34 H9          4.5358    0.4225    3.2390 H         1 <0>         0.0000
     35 H10         4.6221    1.5638    1.9094 H         1 <0>         0.0000
     36 H11         4.3077    2.5552    4.3023 H         1 <0>         0.0000
     37 H12         3.2053    3.1667    3.0634 H         1 <0>         0.0000
     38 H13         2.5390    0.8689    4.9723 H         1 <0>         0.0000
     39 H14         1.9867    2.5401    5.1533 H         1 <0>         0.0000
     40 H15         0.7288    0.8353    6.8146 H         1 <0>         0.0000
     41 H16        -0.9016    0.9045    7.5004 H         1 <0>         0.0000
     42 H17        -0.6527    0.3449    5.8312 H         1 <0>         0.0000
@<TRIPOS>BOND
     1    1    3 ar
     2    1    2 ar
     3    1   26 1
     4    2    5 ar
     5    2   27 1
     6    3    6 ar
     7    3   28 1
     8    4    7 ar
     9    4    9 ar
    10    4   29 1
    11    5   10 ar
    12    5   30 1
    13    6   10 ar
    14    6   31 1
    15    7   12 ar
    16    7   32 1
    17    8   11 ar
    18    8   12 ar
    19    8   33 1
    20    9   11 ar
    21    9   16 1
    22   10   22 1
    23   11   23 1
    24   12   25 1
    25   13   14 1
    26   13   15 1
    27   13   20 2
    28   14   19 1
    29   14   21 2
    30   15   23 am
    31   15   24 2
    32   16   17 1
    33   16   34 1
    34   16   35 1
    35   17   18 1
    36   17   36 1
    37   17   37 1
    38   18   23 1
    39   18   38 1
    40   18   39 1
    41   19   40 1
    42   19   41 1
    43   19   42 1
    44   20   22 1
    45   21   22 1
