@<TRIPOS>MOLECULE
*****
   33    35     0     0     0
SMALL
NO_CHARGES

@<TRIPOS>ATOM
      1 C1          2.9499   -1.4062    6.9773 C.1       1 <0>         0.0000
      2 C2         -1.7807   -5.7024    5.3129 C.ar      1 <0>         0.0000
      3 C3         -0.6027   -5.4726    4.5913 C.ar      1 <0>         0.0000
      4 C4         -1.9826   -5.0525    6.5353 C.ar      1 <0>         0.0000
      5 C5          0.3579   -4.5848    5.0754 C.ar      1 <0>         0.0000
      6 C6         -1.0165   -4.1737    7.0281 C.ar      1 <0>         0.0000
      7 C7          0.8901   -0.5444    0.5275 C.ar      1 <0>         0.0000
      8 C8          0.2311   -1.0832    1.6298 C.ar      1 <0>         0.0000
      9 C9          3.0015   -0.3644    1.7245 C.ar      1 <0>         0.0000
     10 C10         0.1560   -3.9066    6.2949 C.ar      1 <0>         0.0000
     11 C11         2.2633   -0.1820    0.5564 C.ar      1 <0>         0.0000
     12 C12         2.3631   -0.9076    2.8522 C.ar      1 <0>         0.0000
     13 C13         0.9907   -1.2601    2.7910 C.ar      1 <0>         0.0000
     14 C14         1.8601   -1.6908    4.7967 C.2       1 <0>         0.0000
     15 C15         1.1568   -2.9904    6.8582 C.2       1 <0>         0.0000
     16 C16         1.9446   -2.0925    6.2056 C.2       1 <0>         0.0000
     17 C17         2.9009    0.3992   -0.6860 C.3       1 <0>         0.0000
     18 N1          3.7422   -0.8688    7.6408 N.1       1 <0>         0.0000
     19 N2          2.8690   -1.1800    4.1131 N.2       1 <0>         0.0000
     20 N3          0.6941   -1.7475    4.0529 N.pl3     1 <0>         0.0000
     21 H1         -2.5275   -6.3940    4.9325 H         1 <0>         0.0000
     22 H2         -0.4269   -5.9948    3.6546 H         1 <0>         0.0000
     23 H3         -2.8876   -5.2360    7.1079 H         1 <0>         0.0000
     24 H4          1.2784   -4.4310    4.5210 H         1 <0>         0.0000
     25 H5         -1.1730   -3.6765    7.9825 H         1 <0>         0.0000
     26 H6          0.3322   -0.3929   -0.3940 H         1 <0>         0.0000
     27 H7         -0.8214   -1.3494    1.5804 H         1 <0>         0.0000
     28 H8          4.0526   -0.0938    1.7766 H         1 <0>         0.0000
     29 H9          1.2881   -3.0477    7.9366 H         1 <0>         0.0000
     30 H10         2.3969    1.3216   -0.9962 H         1 <0>         0.0000
     31 H11         3.9553    0.6349   -0.5194 H         1 <0>         0.0000
     32 H12         2.8433   -0.3013   -1.5269 H         1 <0>         0.0000
     33 H13        -0.1928   -2.1189    4.3655 H         1 <0>         0.0000
@<TRIPOS>BOND
     1    1   16 1
     2    1   18 3
     3    2    4 ar
     4    2    3 ar
     5    2   21 1
     6    3    5 ar
     7    3   22 1
     8    4    6 ar
     9    4   23 1
    10    5   10 ar
    11    5   24 1
    12    6   10 ar
    13    6   25 1
    14    7    8 ar
    15    7   11 ar
    16    7   26 1
    17    8   13 ar
    18    8   27 1
    19    9   11 ar
    20    9   12 ar
    21    9   28 1
    22   10   15 1
    23   11   17 1
    24   12   13 ar
    25   12   19 1
    26   13   20 1
    27   14   16 1
    28   14   19 2
    29   14   20 1
    30   15   16 2
    31   15   29 1
    32   17   30 1
    33   17   31 1
    34   17   32 1
    35   20   33 1
