@<TRIPOS>MOLECULE
*****
   37    39     0     0     0
SMALL
NO_CHARGES

@<TRIPOS>ATOM
      1 C1          5.1969   -4.7594    1.3431 C.ar      1 <0>         0.0000
      2 C2          5.1458   -3.6717    2.2254 C.ar      1 <0>         0.0000
      3 C3          4.0600   -5.1619    0.6311 C.ar      1 <0>         0.0000
      4 C4         -3.3238   -8.1638   -4.3167 C.ar      1 <0>         0.0000
      5 C5         -3.4643   -7.0677   -3.4637 C.ar      1 <0>         0.0000
      6 C6          3.9527   -2.9605    2.4155 C.ar      1 <0>         0.0000
      7 C7         -1.0272   -8.3411   -3.6853 C.ar      1 <0>         0.0000
      8 C8          2.8701   -4.4545    0.8193 C.ar      1 <0>         0.0000
      9 C9         -1.1524   -7.2345   -2.8187 C.ar      1 <0>         0.0000
     10 C10        -2.0939   -8.8256   -4.4418 C.ar      1 <0>         0.0000
     11 C11        -2.4022   -6.5718   -2.6963 C.ar      1 <0>         0.0000
     12 C12         2.8413   -3.3768    1.7007 C.ar      1 <0>         0.0000
     13 C13         1.5180   -4.6428    0.2124 C.2       1 <0>         0.0000
     14 C14         0.0579   -6.8496   -2.0974 C.2       1 <0>         0.0000
     15 C15        -1.9423  -10.0266   -5.3463 C.3       1 <0>         0.0000
     16 C16        -2.6280   -5.3824   -1.7980 C.3       1 <0>         0.0000
     17 N1          0.5645   -3.8308    0.5656 N.2       1 <0>         0.0000
     18 N2          0.1231   -5.8682   -1.2662 N.2       1 <0>         0.0000
     19 N3          1.3378   -5.6516   -0.6818 N.pl3     1 <0>         0.0000
     20 O1          0.5280   -2.9306    2.9926 O.2       1 <0>         0.0000
     21 O2          1.1577   -1.3691    1.1051 O.2       1 <0>         0.0000
     22 S1          1.1604   -2.7085    1.6926 S.o2      1 <0>         0.0000
     23 H1          6.1306   -5.2980    1.2091 H         1 <0>         0.0000
     24 H2          6.0401   -3.3769    2.7673 H         1 <0>         0.0000
     25 H3          4.1273   -6.0092   -0.0471 H         1 <0>         0.0000
     26 H4         -4.1809   -8.5072   -4.8925 H         1 <0>         0.0000
     27 H5         -4.4317   -6.5765   -3.3912 H         1 <0>         0.0000
     28 H6          3.9001   -2.1160    3.0961 H         1 <0>         0.0000
     29 H7         -0.0589   -8.8331   -3.7654 H         1 <0>         0.0000
     30 H8          0.9478   -7.4636   -2.3061 H         1 <0>         0.0000
     31 H9         -2.4048   -9.8496   -6.3227 H         1 <0>         0.0000
     32 H10        -0.8897  -10.2731   -5.5123 H         1 <0>         0.0000
     33 H11        -2.4255  -10.9097   -4.9121 H         1 <0>         0.0000
     34 H12        -2.4072   -5.6168   -0.7528 H         1 <0>         0.0000
     35 H13        -1.9671   -4.5497   -2.0549 H         1 <0>         0.0000
     36 H14        -3.6653   -5.0456   -1.8727 H         1 <0>         0.0000
     37 H15         2.1276   -6.2521   -0.9134 H         1 <0>         0.0000
@<TRIPOS>BOND
     1    1    2 ar
     2    1    3 ar
     3    1   23 1
     4    2    6 ar
     5    2   24 1
     6    3    8 ar
     7    3   25 1
     8    4    5 ar
     9    4   10 ar
    10    4   26 1
    11    5   11 ar
    12    5   27 1
    13    6   12 ar
    14    6   28 1
    15    7    9 ar
    16    7   10 ar
    17    7   29 1
    18    8   12 ar
    19    8   13 1
    20    9   11 ar
    21    9   14 1
    22   10   15 1
    23   11   16 1
    24   12   22 1
    25   13   17 2
    26   13   19 1
    27   14   18 2
    28   14   30 1
    29   15   31 1
    30   15   32 1
    31   15   33 1
    32   16   34 1
    33   16   35 1
    34   16   36 1
    35   17   22 1
    36   18   19 1
    37   19   37 1
    38   20   22 2
    39   21   22 2
