@<TRIPOS>MOLECULE
*****
   29    30     0     0     0
SMALL
NO_CHARGES

@<TRIPOS>ATOM
      1 C1          2.5848    1.9262   -6.0089 C.ar      1 <0>         0.0000
      2 C2          2.5233    0.5706   -6.3585 C.ar      1 <0>         0.0000
      3 C3          2.8974    2.3051   -4.7000 C.ar      1 <0>         0.0000
      4 C4          2.7701   -0.4113   -5.3984 C.ar      1 <0>         0.0000
      5 C5          3.1443    1.3304   -3.7282 C.ar      1 <0>         0.0000
      6 C6          3.0699   -0.0138   -4.0926 C.ar      1 <0>         0.0000
      7 C7         -1.2026   -0.3677   -1.7937 C.2       1 <0>         0.0000
      8 C8         -1.4449   -1.7732   -1.2375 C.3       1 <0>         0.0000
      9 C9          0.2121   -0.3083   -2.3717 C.3       1 <0>         0.0000
     10 C10        -0.2787   -2.6105   -1.7813 C.3       1 <0>         0.0000
     11 C11         0.8833   -1.6006   -1.8867 C.3       1 <0>         0.0000
     12 N1          1.9119   -2.1067   -2.8114 N.pl3     1 <0>         0.0000
     13 O1         -2.0013    0.5474   -1.7836 O.2       1 <0>         0.0000
     14 O2          4.3478   -2.2478   -3.3819 O.2       1 <0>         0.0000
     15 O3          3.6359   -0.5767   -1.5831 O.2       1 <0>         0.0000
     16 S1          3.3921   -1.2691   -2.8550 S.o2      1 <0>         0.0000
     17 H1          2.3898    2.6868   -6.7601 H         1 <0>         0.0000
     18 H2          2.2850    0.2805   -7.3779 H         1 <0>         0.0000
     19 H3          2.9489    3.3568   -4.4329 H         1 <0>         0.0000
     20 H4          2.7290   -1.4661   -5.6512 H         1 <0>         0.0000
     21 H5          3.3880    1.5973   -2.7049 H         1 <0>         0.0000
     22 H6         -1.4116   -1.7019   -0.1429 H         1 <0>         0.0000
     23 H7         -2.4388   -2.1365   -1.5087 H         1 <0>         0.0000
     24 H8          0.1311   -0.3116   -3.4658 H         1 <0>         0.0000
     25 H9          0.7196    0.6127   -2.0804 H         1 <0>         0.0000
     26 H10        -0.0262   -3.4676   -1.1503 H         1 <0>         0.0000
     27 H11        -0.5151   -2.9846   -2.7838 H         1 <0>         0.0000
     28 H12         1.3107   -1.4319   -0.8901 H         1 <0>         0.0000
     29 H13         2.1486   -3.0860   -2.6413 H         1 <0>         0.0000
@<TRIPOS>BOND
     1    1    3 ar
     2    1    2 ar
     3    1   17 1
     4    2    4 ar
     5    2   18 1
     6    3    5 ar
     7    3   19 1
     8    4    6 ar
     9    4   20 1
    10    5    6 ar
    11    5   21 1
    12    6   16 1
    13    7    8 1
    14    7    9 1
    15    7   13 2
    16    8   10 1
    17    8   22 1
    18    8   23 1
    19    9   11 1
    20    9   24 1
    21    9   25 1
    22   10   11 1
    23   10   26 1
    24   10   27 1
    25   11   12 1
    26   11   28 1
    27   12   16 1
    28   12   29 1
    29   14   16 2
    30   15   16 2
