@<TRIPOS>MOLECULE
*****
   47    50     0     0     0
SMALL
NO_CHARGES

@<TRIPOS>ATOM
      1 C1          8.2056   -0.6449    4.6990 C.ar      1 <0>         0.0000
      2 C2          6.9947    0.0332    4.5958 C.ar      1 <0>         0.0000
      3 C3          7.9427   -1.8316   -0.0121 C.ar      1 <0>         0.0000
      4 C4          8.7481   -1.2798    3.5814 C.ar      1 <0>         0.0000
      5 C5          6.3216    0.0791    3.3746 C.ar      1 <0>         0.0000
      6 C6          8.6157   -1.8774    1.2091 C.ar      1 <0>         0.0000
      7 C7          6.7317   -1.1535   -0.1153 C.ar      1 <0>         0.0000
      8 C8          8.0843   -1.2440    2.3443 C.ar      1 <0>         0.0000
      9 C9          6.8529   -0.5544    2.2393 C.ar      1 <0>         0.0000
     10 C10         6.1892   -0.5185    1.0022 C.ar      1 <0>         0.0000
     11 C11         1.6825   -0.7919    1.1018 C.2       1 <0>         0.0000
     12 C12         4.8932    0.1825    0.8123 C.2       1 <0>         0.0000
     13 C13         0.2338   -0.3856    0.9953 C.3       1 <0>         0.0000
     14 C14        -0.1216   -2.6660    0.0474 C.3       1 <0>         0.0000
     15 C15         1.3858   -2.9884    0.1699 C.3       1 <0>         0.0000
     16 C16        -0.3966   -1.7706    1.2832 C.3       1 <0>         0.0000
     17 C17         1.7901   -2.2646    1.4764 C.3       1 <0>         0.0000
     18 C18         0.5247   -2.3919    2.3731 C.3       1 <0>         0.0000
     19 C19         3.1045   -2.7157    2.0691 C.3       1 <0>         0.0000
     20 C20         0.5850   -1.5868    3.6877 C.3       1 <0>         0.0000
     21 C21         0.1389   -3.8334    2.7599 C.3       1 <0>         0.0000
     22 N1          2.6552    0.0203    0.8692 N.2       1 <0>         0.0000
     23 O1          4.8129    1.3560    0.4821 O.2       1 <0>         0.0000
     24 O2          3.8615   -0.6679    1.0559 O.3       1 <0>         0.0000
     25 H1          8.7290   -0.6794    5.6501 H         1 <0>         0.0000
     26 H2          6.5742    0.5289    5.4659 H         1 <0>         0.0000
     27 H3          8.3648   -2.3252   -0.8827 H         1 <0>         0.0000
     28 H4          9.6962   -1.8037    3.6849 H         1 <0>         0.0000
     29 H5          5.3792    0.6200    3.3351 H         1 <0>         0.0000
     30 H6          9.5608   -2.4134    1.2669 H         1 <0>         0.0000
     31 H7          6.2188   -1.1263   -1.0736 H         1 <0>         0.0000
     32 H8         -0.0126    0.3595    1.7553 H         1 <0>         0.0000
     33 H9         -0.0006   -0.0002    0.0000 H         1 <0>         0.0000
     34 H10        -0.3513   -2.1584   -0.8954 H         1 <0>         0.0000
     35 H11        -0.7178   -3.5841    0.0782 H         1 <0>         0.0000
     36 H12         1.5482   -4.0701    0.2267 H         1 <0>         0.0000
     37 H13         1.9364   -2.6140   -0.7011 H         1 <0>         0.0000
     38 H14        -1.4565   -1.7112    1.5424 H         1 <0>         0.0000
     39 H15         3.0762   -3.7849    2.3013 H         1 <0>         0.0000
     40 H16         3.3187   -2.1692    2.9928 H         1 <0>         0.0000
     41 H17         3.9252   -2.5384    1.3669 H         1 <0>         0.0000
     42 H18         1.2459   -2.0922    4.3820 H         1 <0>         0.0000
     43 H19        -0.4115   -1.5217    4.1085 H         1 <0>         0.0000
     44 H20         0.9619   -0.5930    3.4767 H         1 <0>         0.0000
     45 H21         0.8241   -4.1925    3.5194 H         1 <0>         0.0000
     46 H22         0.2004   -4.4651    1.8811 H         1 <0>         0.0000
     47 H23        -0.8739   -3.8382    3.1464 H         1 <0>         0.0000
@<TRIPOS>BOND
     1    1    2 ar
     2    1    4 ar
     3    1   25 1
     4    2    5 ar
     5    2   26 1
     6    3    6 ar
     7    3    7 ar
     8    3   27 1
     9    4    8 ar
    10    4   28 1
    11    5    9 ar
    12    5   29 1
    13    6    8 ar
    14    6   30 1
    15    7   10 ar
    16    7   31 1
    17    8    9 ar
    18    9   10 ar
    19   10   12 1
    20   11   13 1
    21   11   17 1
    22   11   22 2
    23   12   23 2
    24   12   24 1
    25   13   16 1
    26   13   32 1
    27   13   33 1
    28   14   15 1
    29   14   16 1
    30   14   34 1
    31   14   35 1
    32   15   17 1
    33   15   36 1
    34   15   37 1
    35   16   18 1
    36   16   38 1
    37   17   18 1
    38   17   19 1
    39   18   20 1
    40   18   21 1
    41   19   39 1
    42   19   40 1
    43   19   41 1
    44   20   42 1
    45   20   43 1
    46   20   44 1
    47   21   45 1
    48   21   46 1
    49   21   47 1
    50   22   24 1
