@<TRIPOS>MOLECULE
*****
   23    23     0     0     0
SMALL
NO_CHARGES

@<TRIPOS>ATOM
      1 C1          1.8542   -1.4268    0.2364 C.ar      1 <0>         0.0000
      2 C2          0.7634   -0.7104    0.7233 C.ar      1 <0>         0.0000
      3 C3          1.3237   -1.3858    2.9901 C.ar      1 <0>         0.0000
      4 C4          2.6867   -2.1289    1.1178 C.ar      1 <0>         0.0000
      5 C5          0.5023   -0.7024    2.0941 C.ar      1 <0>         0.0000
      6 C6          2.4130   -2.0962    2.4965 C.ar      1 <0>         0.0000
      7 N1         -2.1447   -0.9605    2.7155 N.pl3     1 <0>         0.0000
      8 N2          3.4429   -4.5196    3.1365 N.pl3     1 <0>         0.0000
      9 O1         -0.6326    0.5569    4.1081 O.2       1 <0>         0.0000
     10 O2         -1.2804    1.1963    1.6989 O.2       1 <0>         0.0000
     11 O3          4.8461   -2.3805    3.5053 O.2       1 <0>         0.0000
     12 O4          2.8155   -2.8985    4.9696 O.2       1 <0>         0.0000
     13 O5          3.7545   -2.8586    0.6950 O.3       1 <0>         0.0000
     14 S1         -0.9104    0.2062    2.7143 S.o2      1 <0>         0.0000
     15 S2          3.4962   -2.9162    3.6730 S.o2      1 <0>         0.0000
     16 H1          2.0641   -1.4396   -0.8312 H         1 <0>         0.0000
     17 H2          0.1244   -0.1505    0.0480 H         1 <0>         0.0000
     18 H3          1.1365   -1.3612    4.0590 H         1 <0>         0.0000
     19 H4         -2.4224   -1.1631    3.6753 H         1 <0>         0.0000
     20 H5         -2.9332   -0.6115    2.1718 H         1 <0>         0.0000
     21 H6          4.2847   -4.7409    2.6070 H         1 <0>         0.0000
     22 H7          3.3335   -5.1295    3.9466 H         1 <0>         0.0000
     23 H8          3.8578   -2.7646   -0.2659 H         1 <0>         0.0000
@<TRIPOS>BOND
     1    1    2 ar
     2    1    4 ar
     3    1   16 1
     4    2    5 ar
     5    2   17 1
     6    3    5 ar
     7    3    6 ar
     8    3   18 1
     9    4    6 ar
    10    4   13 1
    11    5   14 1
    12    6   15 1
    13    7   14 1
    14    7   19 1
    15    7   20 1
    16    8   15 1
    17    8   21 1
    18    8   22 1
    19    9   14 2
    20   10   14 2
    21   11   15 2
    22   12   15 2
    23   13   23 1
