@<TRIPOS>MOLECULE
*****
   23    23     0     0     0
SMALL
NO_CHARGES

@<TRIPOS>ATOM
      1 C1          2.1952   -0.8174    0.2672 C.ar      1 <0>         0.0000
      2 C2          0.9928   -0.2998    0.7430 C.ar      1 <0>         0.0000
      3 C3          1.7969   -0.5146    3.0268 C.ar      1 <0>         0.0000
      4 C4          3.2077   -1.1858    1.1627 C.ar      1 <0>         0.0000
      5 C5          0.8066   -0.1449    2.1173 C.ar      1 <0>         0.0000
      6 C6          2.9936   -1.0338    2.5440 C.ar      1 <0>         0.0000
      7 N1         -0.4091    2.2010    2.8088 N.pl3     1 <0>         0.0000
      8 N2          5.5724   -0.6402    3.2778 N.pl3     1 <0>         0.0000
      9 O1         -1.7389    0.3658    1.6707 O.2       1 <0>         0.0000
     10 O2         -0.9220    0.0524    4.0929 O.2       1 <0>         0.0000
     11 O3          3.8145   -1.0570    5.0435 O.2       1 <0>         0.0000
     12 O4          4.5053   -2.9829    3.5107 O.2       1 <0>         0.0000
     13 O5          4.4071   -1.6797    0.7520 O.3       1 <0>         0.0000
     14 S1         -0.7342    0.5361    2.7241 S.o2      1 <0>         0.0000
     15 S2          4.2311   -1.5644    3.7344 S.o2      1 <0>         0.0000
     16 H1          2.3492   -0.9399   -0.8030 H         1 <0>         0.0000
     17 H2          0.1979   -0.0282    0.0558 H         1 <0>         0.0000
     18 H3          1.6449   -0.4175    4.0972 H         1 <0>         0.0000
     19 H4         -1.1103    2.7051    2.2671 H         1 <0>         0.0000
     20 H5         -0.4134    2.5009    3.7832 H         1 <0>         0.0000
     21 H6          6.0053   -0.2588    4.1187 H         1 <0>         0.0000
     22 H7          6.2248   -1.2097    2.7410 H         1 <0>         0.0000
     23 H8          4.4108   -1.7743   -0.2143 H         1 <0>         0.0000
@<TRIPOS>BOND
     1    1    2 ar
     2    1    4 ar
     3    1   16 1
     4    2    5 ar
     5    2   17 1
     6    3    5 ar
     7    3    6 ar
     8    3   18 1
     9    4    6 ar
    10    4   13 1
    11    5   14 1
    12    6   15 1
    13    7   14 1
    14    7   19 1
    15    7   20 1
    16    8   15 1
    17    8   21 1
    18    8   22 1
    19    9   14 2
    20   10   14 2
    21   11   15 2
    22   12   15 2
    23   13   23 1
