@<TRIPOS>MOLECULE
*****
   23    23     0     0     0
SMALL
NO_CHARGES

@<TRIPOS>ATOM
      1 C1          2.0205   -1.2096   -0.2656 C.ar      1 <0>         0.0000
      2 C2          0.8262   -0.8362    0.3439 C.ar      1 <0>         0.0000
      3 C3          1.8871   -1.0066    2.5256 C.ar      1 <0>         0.0000
      4 C4          3.1553   -1.4900    0.5088 C.ar      1 <0>         0.0000
      5 C5          0.7678   -0.7458    1.7348 C.ar      1 <0>         0.0000
      6 C6          3.0789   -1.3801    1.9123 C.ar      1 <0>         0.0000
      7 N1         -1.5464   -1.7628    2.7785 N.pl3     1 <0>         0.0000
      8 N2          4.0125   -1.4589    4.4543 N.pl3     1 <0>         0.0000
      9 O1         -0.4373    0.2740    3.8413 O.2       1 <0>         0.0000
     10 O2         -1.5693    0.4501    1.5347 O.2       1 <0>         0.0000
     11 O3          4.8695   -3.1462    2.7547 O.2       1 <0>         0.0000
     12 O4          5.5500   -0.6811    2.5725 O.2       1 <0>         0.0000
     13 O5          4.3399   -1.8603   -0.0339 O.3       1 <0>         0.0000
     14 S1         -0.7669   -0.2750    2.5236 S.o2      1 <0>         0.0000
     15 S2          4.5662   -1.7203    2.8746 S.o2      1 <0>         0.0000
     16 H1          2.0804   -1.2790   -1.3498 H         1 <0>         0.0000
     17 H2         -0.0491   -0.6004   -0.2527 H         1 <0>         0.0000
     18 H3          1.8419   -0.9062    3.6036 H         1 <0>         0.0000
     19 H4         -1.6481   -1.9267    3.7793 H         1 <0>         0.0000
     20 H5         -2.4547   -1.7476    2.3159 H         1 <0>         0.0000
     21 H6          4.1345   -2.3127    4.9971 H         1 <0>         0.0000
     22 H7          4.5210   -0.6790    4.8687 H         1 <0>         0.0000
     23 H8          4.2721   -1.8861   -1.0020 H         1 <0>         0.0000
@<TRIPOS>BOND
     1    1    2 ar
     2    1    4 ar
     3    1   16 1
     4    2    5 ar
     5    2   17 1
     6    3    5 ar
     7    3    6 ar
     8    3   18 1
     9    4    6 ar
    10    4   13 1
    11    5   14 1
    12    6   15 1
    13    7   14 1
    14    7   19 1
    15    7   20 1
    16    8   15 1
    17    8   21 1
    18    8   22 1
    19    9   14 2
    20   10   14 2
    21   11   15 2
    22   12   15 2
    23   13   23 1
