@<TRIPOS>MOLECULE
*****
   28    29     0     0     0
SMALL
NO_CHARGES

@<TRIPOS>ATOM
      1 C1         -1.8915   -1.1019    0.1985 C.ar      1 <0>         0.0000
      2 C2         -0.5541   -1.0338   -0.1990 C.ar      1 <0>         0.0000
      3 C3         -2.4808   -2.3405    0.5032 C.ar      1 <0>         0.0000
      4 C4          1.5938   -3.9370   -0.5253 C.2       1 <0>         0.0000
      5 C5          0.4114   -4.5402   -0.1446 C.2       1 <0>         0.0000
      6 C6         -0.5287   -3.4679    0.0199 C.ar      1 <0>         0.0000
      7 C7          0.1330   -2.2435   -0.2839 C.ar      1 <0>         0.0000
      8 C8          0.1686   -6.0220   -0.0183 C.3       1 <0>         0.0000
      9 C9         -0.0753   -5.9206    2.5351 C.3       1 <0>         0.0000
     10 C10        -0.6290   -6.4670    1.2172 C.3       1 <0>         0.0000
     11 N1         -1.8204   -3.5047    0.4226 N.ar      1 <0>         0.0000
     12 N2          1.4315   -2.5678   -0.6153 N.pl3     1 <0>         0.0000
     13 N3         -2.0762   -6.0434    1.0821 N.4       1 <0>         0.0000
     14 O1          1.2509   -6.4148    2.6160 O.3       1 <0>         0.0000
     15 H1         -2.4867   -0.1993    0.2845 H         1 <0>         0.0000
     16 H2         -0.0835   -0.0808   -0.4251 H         1 <0>         0.0000
     17 H3         -3.5171   -2.3910    0.8260 H         1 <0>         0.0000
     18 H4          2.5498   -4.3931   -0.7479 H         1 <0>         0.0000
     19 H5          1.1286   -6.5398    0.0317 H         1 <0>         0.0000
     20 H6         -0.3393   -6.4035   -0.9152 H         1 <0>         0.0000
     21 H7         -0.1025   -4.8225    2.5324 H         1 <0>         0.0000
     22 H8         -0.6921   -6.2830    3.3723 H         1 <0>         0.0000
     23 H9         -0.6177   -7.5593    1.2672 H         1 <0>         0.0000
     24 H10         2.1568   -1.9132   -0.8786 H         1 <0>         0.0000
     25 H11        -2.5256   -6.5524    0.3148 H         1 <0>         0.0000
     26 H12        -2.1435   -4.9324    0.8429 H         1 <0>         0.0000
     27 H13        -2.6084   -6.2539    1.9329 H         1 <0>         0.0000
     28 H14         1.6556   -6.1172    3.4458 H         1 <0>         0.0000
@<TRIPOS>BOND
     1    1    2 ar
     2    1    3 ar
     3    1   15 1
     4    2    7 ar
     5    2   16 1
     6    3   11 ar
     7    3   17 1
     8    4    5 2
     9    4   12 1
    10    4   18 1
    11    5    6 1
    12    5    8 1
    13    6    7 ar
    14    6   11 ar
    15    7   12 1
    16    8   10 1
    17    8   19 1
    18    8   20 1
    19    9   10 1
    20    9   14 1
    21    9   21 1
    22    9   22 1
    23   10   13 1
    24   10   23 1
    25   12   24 1
    26   13   25 1
    27   13   26 1
    28   13   27 1
    29   14   28 1
