@<TRIPOS>MOLECULE
*****
   35    37     0     0     0
SMALL
NO_CHARGES

@<TRIPOS>ATOM
      1 C1         -3.4740   -1.0186    3.6249 C.ar      1 <0>         0.0000
      2 C2          0.9079    1.5485    0.2890 C.ar      1 <0>         0.0000
      3 C3         -4.2766   -0.6985    4.7209 C.ar      1 <0>         0.0000
      4 C4          1.9380    1.6897   -0.6381 C.ar      1 <0>         0.0000
      5 C5         -3.1394    1.3171    3.1508 C.ar      1 <0>         0.0000
      6 C6          1.4655   -0.5475   -1.4219 C.ar      1 <0>         0.0000
      7 C7         -2.8746   -0.0274    2.8240 C.ar      1 <0>         0.0000
      8 C8          0.1228    0.3816    0.3828 C.ar      1 <0>         0.0000
      9 C9          0.4349   -0.6910   -0.4915 C.ar      1 <0>         0.0000
     10 C10         2.2164    0.6299   -1.5060 C.ar      1 <0>         0.0000
     11 C11        -4.5221    0.6368    5.0475 C.ar      1 <0>         0.0000
     12 C12        -3.9391    1.6161    4.2388 C.ar      1 <0>         0.0000
     13 C13        -0.9253    0.3919    1.4117 C.2       1 <0>         0.0000
     14 C14        -2.0102   -0.3821    1.6628 C.2       1 <0>         0.0000
     15 C15        -0.3192   -1.9964   -0.4439 C.3       1 <0>         0.0000
     16 C16        -2.4745   -1.5916    0.8777 C.3       1 <0>         0.0000
     17 C17        -1.8459   -1.8216   -0.4946 C.3       1 <0>         0.0000
     18 O1          3.2123    0.6799   -2.4513 O.3       1 <0>         0.0000
     19 O2         -5.3161    0.9538    6.1157 O.3       1 <0>         0.0000
     20 F1         -4.2107    2.9225    4.5541 F         1 <0>         0.0000
     21 H1         -3.2977   -2.0669    3.4074 H         1 <0>         0.0000
     22 H2          0.6972    2.3767    0.9615 H         1 <0>         0.0000
     23 H3         -4.7205   -1.4745    5.3376 H         1 <0>         0.0000
     24 H4          2.5159    2.6114   -0.6822 H         1 <0>         0.0000
     25 H5         -2.7557    2.1323    2.5459 H         1 <0>         0.0000
     26 H6          1.7088   -1.3612   -2.0998 H         1 <0>         0.0000
     27 H7         -0.7811    1.2086    2.1171 H         1 <0>         0.0000
     28 H8          0.0109   -2.6217   -1.2787 H         1 <0>         0.0000
     29 H9         -0.0524   -2.5387    0.4735 H         1 <0>         0.0000
     30 H10        -2.3094   -2.4923    1.4856 H         1 <0>         0.0000
     31 H11        -3.5631   -1.5193    0.7623 H         1 <0>         0.0000
     32 H12        -2.0983   -0.9973   -1.1709 H         1 <0>         0.0000
     33 H13        -2.2986   -2.7250   -0.9188 H         1 <0>         0.0000
     34 H14         3.6512    1.5439   -2.4016 H         1 <0>         0.0000
     35 H15        -5.3724    1.9226    6.1775 H         1 <0>         0.0000
@<TRIPOS>BOND
     1    1    3 ar
     2    1    7 ar
     3    1   21 1
     4    2    4 ar
     5    2    8 ar
     6    2   22 1
     7    3   11 ar
     8    3   23 1
     9    4   10 ar
    10    4   24 1
    11    5    7 ar
    12    5   12 ar
    13    5   25 1
    14    6    9 ar
    15    6   10 ar
    16    6   26 1
    17    7   14 1
    18    8    9 ar
    19    8   13 1
    20    9   15 1
    21   10   18 1
    22   11   12 ar
    23   11   19 1
    24   12   20 1
    25   13   14 2
    26   13   27 1
    27   14   16 1
    28   15   17 1
    29   15   28 1
    30   15   29 1
    31   16   17 1
    32   16   30 1
    33   16   31 1
    34   17   32 1
    35   17   33 1
    36   18   34 1
    37   19   35 1
