@<TRIPOS>MOLECULE
*****
   33    34     0     0     0
SMALL
NO_CHARGES

@<TRIPOS>ATOM
      1 C1          0.5785   -2.7933   -2.1579 C.ar      1 <0>         0.0000
      2 C2          0.3747   -1.4818   -1.7129 C.ar      1 <0>         0.0000
      3 C3          0.9349   -2.2052    0.5284 C.ar      1 <0>         0.0000
      4 C4          0.9604   -3.8237   -1.2901 C.ar      1 <0>         0.0000
      5 C5          1.1374   -3.5040    0.0813 C.ar      1 <0>         0.0000
      6 C6          0.5545   -1.1840   -0.3586 C.ar      1 <0>         0.0000
      7 C7          1.8935   -6.0588   -0.9565 C.2       1 <0>         0.0000
      8 C8          1.1986   -5.2135   -1.7412 C.2       1 <0>         0.0000
      9 C9          1.5617   -5.0496   -4.2325 C.2       1 <0>         0.0000
     10 C10         1.5003   -4.6137    1.0418 C.3       1 <0>         0.0000
     11 C11         2.4368   -5.6305    0.3828 C.3       1 <0>         0.0000
     12 C12         0.5892   -7.1429   -3.3420 C.3       1 <0>         0.0000
     13 C13         0.0252    1.1273   -0.6674 C.3       1 <0>         0.0000
     14 C14         0.6801   -5.6216   -3.1088 C.3       1 <0>         0.0000
     15 O1          2.7671   -5.0291   -4.2132 O.2       1 <0>         0.0000
     16 O2          0.8894   -4.6023   -5.3415 O.3       1 <0>         0.0000
     17 O3          0.3893    0.0561    0.1974 O.3       1 <0>         0.0000
     18 H1          0.4554   -2.9811   -3.2196 H         1 <0>         0.0000
     19 H2          0.0930   -0.7171   -2.4277 H         1 <0>         0.0000
     20 H3          1.0680   -1.9529    1.5774 H         1 <0>         0.0000
     21 H4          2.1177   -7.0654   -1.2948 H         1 <0>         0.0000
     22 H5          1.9472   -4.2021    1.9518 H         1 <0>         0.0000
     23 H6          0.5771   -5.1302    1.3425 H         1 <0>         0.0000
     24 H7          2.5723   -6.4988    1.0360 H         1 <0>         0.0000
     25 H8          3.4337   -5.1865    0.2400 H         1 <0>         0.0000
     26 H9          1.5808   -7.6008   -3.3483 H         1 <0>         0.0000
     27 H10         0.1206   -7.3568   -4.3081 H         1 <0>         0.0000
     28 H11        -0.0112   -7.6113   -2.5576 H         1 <0>         0.0000
     29 H12        -0.0454    2.0124   -0.0338 H         1 <0>         0.0000
     30 H13        -0.9458    0.9439   -1.1443 H         1 <0>         0.0000
     31 H14         0.7858    1.2931   -1.4403 H         1 <0>         0.0000
     32 H15        -0.3332   -5.2100   -3.2105 H         1 <0>         0.0000
     33 H16        -0.0681   -4.6909   -5.2013 H         1 <0>         0.0000
@<TRIPOS>BOND
     1    1    2 ar
     2    1    4 ar
     3    1   18 1
     4    2    6 ar
     5    2   19 1
     6    3    5 ar
     7    3    6 ar
     8    3   20 1
     9    4    5 ar
    10    4    8 1
    11    5   10 1
    12    6   17 1
    13    7    8 2
    14    7   11 1
    15    7   21 1
    16    8   14 1
    17    9   14 1
    18    9   15 2
    19    9   16 1
    20   10   11 1
    21   10   22 1
    22   10   23 1
    23   11   24 1
    24   11   25 1
    25   12   14 1
    26   12   26 1
    27   12   27 1
    28   12   28 1
    29   13   17 1
    30   13   29 1
    31   13   30 1
    32   13   31 1
    33   14   32 1
    34   16   33 1
