@<TRIPOS>MOLECULE
*****
   42    44     0     0     0
SMALL
NO_CHARGES

@<TRIPOS>ATOM
      1 C1         -0.4664   -0.1412   -6.1538 C.ar      1 <0>         0.0000
      2 C2          1.7242   -1.1061   -5.9471 C.ar      1 <0>         0.0000
      3 C3          1.2675   -2.1038   -8.7803 C.ar      1 <0>         0.0000
      4 C4          0.1726    0.0179   -9.1222 C.ar      1 <0>         0.0000
      5 C5         -0.5082    0.0531   -4.7757 C.ar      1 <0>         0.0000
      6 C6          1.6778   -0.9070   -4.5657 C.ar      1 <0>         0.0000
      7 C7          1.3165   -2.3130  -10.1599 C.ar      1 <0>         0.0000
      8 C8          0.2113   -0.1727  -10.5050 C.ar      1 <0>         0.0000
      9 C9          0.6529   -0.7263   -6.7697 C.ar      1 <0>         0.0000
     10 C10         0.6983   -0.9389   -8.2361 C.ar      1 <0>         0.0000
     11 C11         0.5643   -0.3192   -3.9507 C.ar      1 <0>         0.0000
     12 C12         0.7856   -1.3391  -10.9996 C.ar      1 <0>         0.0000
     13 C13        -0.5461   -3.3985   -3.1490 C.2       1 <0>         0.0000
     14 C14         0.3368    1.4371   -0.5497 C.3       1 <0>         0.0000
     15 C15         1.5638    0.5048   -0.3415 C.3       1 <0>         0.0000
     16 C16        -0.1203    1.2165   -2.0115 C.3       1 <0>         0.0000
     17 C17         1.8369   -0.1312   -1.7194 C.3       1 <0>         0.0000
     18 C18         0.4699   -0.1518   -2.4427 C.3       1 <0>         0.0000
     19 C19        -0.4373   -1.2774   -1.8704 C.3       1 <0>         0.0000
     20 N1          0.0256   -2.6217   -2.1811 N.am      1 <0>         0.0000
     21 O1         -1.5589   -3.1193   -3.7761 O.2       1 <0>         0.0000
     22 F1          0.8285   -1.5339  -12.3445 F         1 <0>         0.0000
     23 H1         -1.3307    0.1277   -6.7553 H         1 <0>         0.0000
     24 H2          2.6166   -1.5381   -6.3927 H         1 <0>         0.0000
     25 H3          1.6516   -2.8725   -8.1160 H         1 <0>         0.0000
     26 H4         -0.2504    0.9374   -8.7279 H         1 <0>         0.0000
     27 H5         -1.4053    0.4797   -4.3359 H         1 <0>         0.0000
     28 H6          2.5327   -1.2096   -3.9686 H         1 <0>         0.0000
     29 H7          1.7447   -3.2162  -10.5841 H         1 <0>         0.0000
     30 H8         -0.1849    0.5679  -11.1930 H         1 <0>         0.0000
     31 H9          0.0068   -4.3458   -3.2995 H         1 <0>         0.0000
     32 H10        -0.4629    1.1878    0.1543 H         1 <0>         0.0000
     33 H11         0.5895    2.4864   -0.3741 H         1 <0>         0.0000
     34 H12         2.4394    1.0458    0.0280 H         1 <0>         0.0000
     35 H13         1.3385   -0.2657    0.4030 H         1 <0>         0.0000
     36 H14        -1.2089    1.2562   -2.1166 H         1 <0>         0.0000
     37 H15         0.2933    1.9927   -2.6634 H         1 <0>         0.0000
     38 H16         2.5266    0.4982   -2.2922 H         1 <0>         0.0000
     39 H17         2.3071   -1.1177   -1.6387 H         1 <0>         0.0000
     40 H18        -1.4376   -1.1923   -2.2974 H         1 <0>         0.0000
     41 H19        -0.5288   -1.1739   -0.7839 H         1 <0>         0.0000
     42 H20         0.8955   -2.9457   -1.7795 H         1 <0>         0.0000
@<TRIPOS>BOND
     1    1    5 ar
     2    1    9 ar
     3    1   23 1
     4    2    6 ar
     5    2    9 ar
     6    2   24 1
     7    3    7 ar
     8    3   10 ar
     9    3   25 1
    10    4    8 ar
    11    4   10 ar
    12    4   26 1
    13    5   11 ar
    14    5   27 1
    15    6   11 ar
    16    6   28 1
    17    7   12 ar
    18    7   29 1
    19    8   12 ar
    20    8   30 1
    21    9   10 1
    22   11   18 1
    23   12   22 1
    24   13   20 am
    25   13   21 2
    26   13   31 1
    27   14   15 1
    28   14   16 1
    29   14   32 1
    30   14   33 1
    31   15   17 1
    32   15   34 1
    33   15   35 1
    34   16   18 1
    35   16   36 1
    36   16   37 1
    37   17   18 1
    38   17   38 1
    39   17   39 1
    40   18   19 1
    41   19   20 1
    42   19   40 1
    43   19   41 1
    44   20   42 1
