@<TRIPOS>MOLECULE
*****
   33    34     0     0     0
SMALL
NO_CHARGES

@<TRIPOS>ATOM
      1 C1         -1.0436   -2.7863    1.2779 C.ar      1 <0>         0.0000
      2 C2         -1.0991   -1.4264    0.9510 C.ar      1 <0>         0.0000
      3 C3          0.6889   -1.7839   -0.6420 C.ar      1 <0>         0.0000
      4 C4         -0.1353   -3.6619    0.6699 C.ar      1 <0>         0.0000
      5 C5          0.7415   -3.1317   -0.3128 C.ar      1 <0>         0.0000
      6 C6         -0.2249   -0.9195   -0.0159 C.ar      1 <0>         0.0000
      7 C7          1.0700   -5.7919    0.6820 C.2       1 <0>         0.0000
      8 C8         -0.0335   -5.0961    1.0232 C.2       1 <0>         0.0000
      9 C9         -1.4605   -7.1342    1.3780 C.2       1 <0>         0.0000
     10 C10         1.6823   -4.0752   -1.0268 C.3       1 <0>         0.0000
     11 C11         2.2070   -5.1563   -0.0779 C.3       1 <0>         0.0000
     12 C12        -0.8666   -5.6489    3.3606 C.3       1 <0>         0.0000
     13 C13        -1.0920    1.2998    0.1837 C.3       1 <0>         0.0000
     14 C14        -1.1584   -5.7218    1.8491 C.3       1 <0>         0.0000
     15 O1         -2.3241   -7.4302    0.5762 O.2       1 <0>         0.0000
     16 O2         -0.6622   -8.0810    1.9512 O.3       1 <0>         0.0000
     17 O3         -0.1807    0.3877   -0.4204 O.3       1 <0>         0.0000
     18 H1         -1.7282   -3.1480    2.0384 H         1 <0>         0.0000
     19 H2         -1.8166   -0.7886    1.4545 H         1 <0>         0.0000
     20 H3          1.3534   -1.3713   -1.3970 H         1 <0>         0.0000
     21 H4          1.1747   -6.8289    0.9877 H         1 <0>         0.0000
     22 H5          1.1291   -4.5635   -1.8419 H         1 <0>         0.0000
     23 H6          2.5073   -3.5214   -1.4854 H         1 <0>         0.0000
     24 H7          2.9208   -4.7159    0.6356 H         1 <0>         0.0000
     25 H8          2.7598   -5.9161   -0.6403 H         1 <0>         0.0000
     26 H9          0.0278   -6.2246    3.6071 H         1 <0>         0.0000
     27 H10        -1.7051   -6.0421    3.9453 H         1 <0>         0.0000
     28 H11        -0.6954   -4.6107    3.6581 H         1 <0>         0.0000
     29 H12        -0.8932    2.2694   -0.2750 H         1 <0>         0.0000
     30 H13        -0.9290    1.3699    1.2664 H         1 <0>         0.0000
     31 H14        -2.1329    1.0126   -0.0107 H         1 <0>         0.0000
     32 H15        -2.0819   -5.1827    1.6299 H         1 <0>         0.0000
     33 H16        -0.9413   -8.9330    1.5633 H         1 <0>         0.0000
@<TRIPOS>BOND
     1    1    2 ar
     2    1    4 ar
     3    1   18 1
     4    2    6 ar
     5    2   19 1
     6    3    5 ar
     7    3    6 ar
     8    3   20 1
     9    4    5 ar
    10    4    8 1
    11    5   10 1
    12    6   17 1
    13    7    8 2
    14    7   11 1
    15    7   21 1
    16    8   14 1
    17    9   14 1
    18    9   15 2
    19    9   16 1
    20   10   11 1
    21   10   22 1
    22   10   23 1
    23   11   24 1
    24   11   25 1
    25   12   14 1
    26   12   26 1
    27   12   27 1
    28   12   28 1
    29   13   17 1
    30   13   29 1
    31   13   30 1
    32   13   31 1
    33   14   32 1
    34   16   33 1
