@<TRIPOS>MOLECULE
*****
   34    35     0     0     0
SMALL
NO_CHARGES

@<TRIPOS>ATOM
      1 C1          1.5775    2.7804   -0.1347 C.2       1 <0>         0.0000
      2 C2          0.2759    2.7686   -0.8103 C.2       1 <0>         0.0000
      3 C3          2.2089    1.6263    0.1541 C.2       1 <0>         0.0000
      4 C4         -0.2162    1.6459   -1.3665 C.2       1 <0>         0.0000
      5 C5         -1.2644   -1.7995    0.9066 C.2       1 <0>         0.0000
      6 C6          0.7341    0.1609   -3.8331 C.2       1 <0>         0.0000
      7 C7          0.6564   -0.1961    0.9875 C.3       1 <0>         0.0000
      8 C8         -0.2908   -0.8944   -1.1581 C.3       1 <0>         0.0000
      9 C9          1.5536    0.3096   -0.1645 C.3       1 <0>         0.0000
     10 C10         0.5878    0.3557   -1.3733 C.3       1 <0>         0.0000
     11 C11        -2.1073   -2.5201    2.9886 C.3       1 <0>         0.0000
     12 C12         1.0603    0.3089   -6.1650 C.3       1 <0>         0.0000
     13 N1         -0.3198   -1.0391    0.2982 N.am      1 <0>         0.0000
     14 N2          1.3680    0.2583   -2.6187 N.am      1 <0>         0.0000
     15 O1         -2.1136   -2.4660    0.3282 O.2       1 <0>         0.0000
     16 O2         -0.4317   -0.1602   -4.0031 O.2       1 <0>         0.0000
     17 O3         -1.1445   -1.7303    2.2684 O.3       1 <0>         0.0000
     18 O4          1.6080    0.4419   -4.8392 O.3       1 <0>         0.0000
     19 H1          2.0184    3.7361    0.1383 H         1 <0>         0.0000
     20 H2         -0.2821    3.6996   -0.8785 H         1 <0>         0.0000
     21 H3          3.1649    1.6231    0.6720 H         1 <0>         0.0000
     22 H4         -1.1597    1.6459   -1.9051 H         1 <0>         0.0000
     23 H5          1.2234   -0.7625    1.7302 H         1 <0>         0.0000
     24 H6          0.1666    0.6409    1.4963 H         1 <0>         0.0000
     25 H7         -1.2960   -0.7877   -1.5630 H         1 <0>         0.0000
     26 H8          0.1713   -1.7658   -1.6347 H         1 <0>         0.0000
     27 H9          2.3073   -0.4560   -0.3795 H         1 <0>         0.0000
     28 H10        -1.8804   -2.3611    4.0435 H         1 <0>         0.0000
     29 H11        -2.0098   -3.5775    2.7309 H         1 <0>         0.0000
     30 H12        -3.1240   -2.1899    2.7620 H         1 <0>         0.0000
     31 H13         1.8750    0.5686   -6.8411 H         1 <0>         0.0000
     32 H14         0.2164    0.9892   -6.3016 H         1 <0>         0.0000
     33 H15         0.7279   -0.7168   -6.3411 H         1 <0>         0.0000
     34 H16         2.2231    0.8043   -2.6361 H         1 <0>         0.0000
@<TRIPOS>BOND
     1    1    2 1
     2    1    3 2
     3    1   19 1
     4    2    4 2
     5    2   20 1
     6    3    9 1
     7    3   21 1
     8    4   10 1
     9    4   22 1
    10    5   13 am
    11    5   15 2
    12    5   17 1
    13    6   14 am
    14    6   16 2
    15    6   18 1
    16    7    9 1
    17    7   13 1
    18    7   23 1
    19    7   24 1
    20    8   10 1
    21    8   13 1
    22    8   25 1
    23    8   26 1
    24    9   10 1
    25    9   27 1
    26   10   14 1
    27   11   17 1
    28   11   28 1
    29   11   29 1
    30   11   30 1
    31   12   18 1
    32   12   31 1
    33   12   32 1
    34   12   33 1
    35   14   34 1
