@<TRIPOS>MOLECULE
*****
   28    29     0     0     0
SMALL
NO_CHARGES

@<TRIPOS>ATOM
      1 C1         -3.1091    1.8864    4.8925 C.ar      1 <0>         0.0000
      2 C2         -3.9537    2.4058    3.9070 C.ar      1 <0>         0.0000
      3 C3         -1.8252    1.4484    4.5536 C.ar      1 <0>         0.0000
      4 C4         -3.5131    2.4819    2.5813 C.ar      1 <0>         0.0000
      5 C5         -1.3495    1.5266    3.2389 C.ar      1 <0>         0.0000
      6 C6         -2.2304    2.0412    2.2853 C.ar      1 <0>         0.0000
      7 C7         -0.4001   -1.2648    2.2819 C.2       1 <0>         0.0000
      8 C8         -0.9101   -3.1057    3.3804 C.3       1 <0>         0.0000
      9 C9         -1.1507   -3.3427    1.8645 C.3       1 <0>         0.0000
     10 C10         0.9521    2.1916    2.3830 C.3       1 <0>         0.0000
     11 C11         0.0502    1.0534    2.8739 C.3       1 <0>         0.0000
     12 N1         -0.5068   -1.6974    3.4844 N.2       1 <0>         0.0000
     13 N2          0.0341   -0.0286    1.8817 N.pl3     1 <0>         0.0000
     14 O1         -0.7003   -2.1093    1.2415 O.3       1 <0>         0.0000
     15 F1         -1.8179    2.1056    0.9797 F         1 <0>         0.0000
     16 H1         -3.4523    1.8124    5.9207 H         1 <0>         0.0000
     17 H2         -4.9540    2.7450    4.1615 H         1 <0>         0.0000
     18 H3         -1.1784    1.0193    5.3139 H         1 <0>         0.0000
     19 H4         -4.1432    2.8710    1.7873 H         1 <0>         0.0000
     20 H5         -1.8139   -3.2895    3.9711 H         1 <0>         0.0000
     21 H6         -0.1203   -3.7563    3.7757 H         1 <0>         0.0000
     22 H7         -0.5660   -4.1639    1.4435 H         1 <0>         0.0000
     23 H8         -2.2057   -3.4802    1.6099 H         1 <0>         0.0000
     24 H9          0.5780    2.6264    1.4520 H         1 <0>         0.0000
     25 H10         0.9948    2.9863    3.1333 H         1 <0>         0.0000
     26 H11         1.9642    1.8146    2.2096 H         1 <0>         0.0000
     27 H12         0.4892    0.6205    3.7744 H         1 <0>         0.0000
     28 H13        -0.2784    0.2338    0.9532 H         1 <0>         0.0000
@<TRIPOS>BOND
     1    1    2 ar
     2    1    3 ar
     3    1   16 1
     4    2    4 ar
     5    2   17 1
     6    3    5 ar
     7    3   18 1
     8    4    6 ar
     9    4   19 1
    10    5    6 ar
    11    5   11 1
    12    6   15 1
    13    7   12 2
    14    7   13 1
    15    7   14 1
    16    8    9 1
    17    8   12 1
    18    8   20 1
    19    8   21 1
    20    9   14 1
    21    9   22 1
    22    9   23 1
    23   10   11 1
    24   10   24 1
    25   10   25 1
    26   10   26 1
    27   11   13 1
    28   11   27 1
    29   13   28 1
