@<TRIPOS>MOLECULE
*****
   25    25     0     0     0
SMALL
NO_CHARGES

@<TRIPOS>ATOM
      1 C1          4.4423    1.2095   -4.5665 C.2       1 <0>         0.0000
      2 C2          3.8840    0.2284   -3.7969 C.2       1 <0>         0.0000
      3 C3          5.9413   -0.5889   -3.8929 C.2       1 <0>         0.0000
      4 C4          2.3543    0.1064   -1.8092 C.2       1 <0>         0.0000
      5 C5          2.9116    1.2090    0.2046 C.3       1 <0>         0.0000
      6 C6          5.9170   -3.6831   -2.4894 C.3       1 <0>         0.0000
      7 C7          2.4577    0.1687   -3.3269 C.3       1 <0>         0.0000
      8 N1          4.7470   -0.7810   -3.4112 N.2       1 <0>         0.0000
      9 N2          6.9967   -1.4730   -3.6642 N.pl3     1 <0>         0.0000
     10 O1          1.8168   -0.7851   -1.1840 O.2       1 <0>         0.0000
     11 O2          5.8694   -3.3498   -5.1237 O.2       1 <0>         0.0000
     12 O3          8.1342   -3.6863   -4.0015 O.2       1 <0>         0.0000
     13 O4          2.9324    1.1867   -1.2381 O.3       1 <0>         0.0000
     14 S1          6.1179    0.8523   -4.8819 S.3       1 <0>         0.0000
     15 S2          6.7654   -3.1664   -3.9850 S.o2      1 <0>         0.0000
     16 H1          3.9877    2.1186   -4.9371 H         1 <0>         0.0000
     17 H2          3.4269    2.1264    0.4883 H         1 <0>         0.0000
     18 H3          3.4314    0.3349    0.6034 H         1 <0>         0.0000
     19 H4          1.8824    1.2143    0.5710 H         1 <0>         0.0000
     20 H5          5.7020   -4.7462   -2.6133 H         1 <0>         0.0000
     21 H6          6.5855   -3.5103   -1.6465 H         1 <0>         0.0000
     22 H7          5.0020   -3.0960   -2.4093 H         1 <0>         0.0000
     23 H8          1.9156    1.0504   -3.6802 H         1 <0>         0.0000
     24 H9          1.9661   -0.7249   -3.7176 H         1 <0>         0.0000
     25 H10         7.9126   -1.1962   -4.0121 H         1 <0>         0.0000
@<TRIPOS>BOND
     1    1    2 2
     2    1   14 1
     3    1   16 1
     4    2    7 1
     5    2    8 1
     6    3    8 2
     7    3    9 1
     8    3   14 1
     9    4    7 1
    10    4   10 2
    11    4   13 1
    12    5   13 1
    13    5   17 1
    14    5   18 1
    15    5   19 1
    16    6   15 1
    17    6   20 1
    18    6   21 1
    19    6   22 1
    20    7   23 1
    21    7   24 1
    22    9   15 1
    23    9   25 1
    24   11   15 2
    25   12   15 2
