@<TRIPOS>MOLECULE
*****
   32    33     0     0     0
SMALL
NO_CHARGES

@<TRIPOS>ATOM
      1 C1         -2.7711    0.2506    0.6402 C.1       1 <0>         0.0000
      2 C2          2.1699   -3.7018   -5.1331 C.ar      1 <0>         0.0000
      3 C3          3.4959   -3.5782   -5.5741 C.ar      1 <0>         0.0000
      4 C4          1.6954   -2.9222   -4.0829 C.ar      1 <0>         0.0000
      5 C5          3.8923   -1.8896   -3.9101 C.ar      1 <0>         0.0000
      6 C6         -1.3695    0.2696    0.3535 C.2       1 <0>         0.0000
      7 C7          4.3744   -2.6681   -4.9698 C.ar      1 <0>         0.0000
      8 C8         -0.8276   -0.4705   -0.6875 C.2       1 <0>         0.0000
      9 C9          2.5670   -2.0052   -3.4662 C.ar      1 <0>         0.0000
     10 C10         0.5810   -0.4362   -0.9689 C.2       1 <0>         0.0000
     11 C11        -0.5479    1.1058    1.2116 C.2       1 <0>         0.0000
     12 C12         1.3902    0.3587   -0.1490 C.2       1 <0>         0.0000
     13 C13         5.7942   -2.5101   -5.4636 C.3       1 <0>         0.0000
     14 C14        -1.7041   -1.3328   -1.5563 C.3       1 <0>         0.0000
     15 N1         -3.9157    0.2234    0.8588 N.1       1 <0>         0.0000
     16 N2          2.2173   -1.1542   -2.3871 N.2       1 <0>         0.0000
     17 N3          1.0037   -1.2372   -2.0352 N.2       1 <0>         0.0000
     18 N4          0.8300    1.0678    0.8664 N.am      1 <0>         0.0000
     19 O1         -0.9005    1.8038    2.1540 O.2       1 <0>         0.0000
     20 O2          2.7182    0.4422   -0.3147 O.3       1 <0>         0.0000
     21 H1          1.5096   -4.4182   -5.6156 H         1 <0>         0.0000
     22 H2          3.8486   -4.2000   -6.3941 H         1 <0>         0.0000
     23 H3          0.6741   -3.0106   -3.7292 H         1 <0>         0.0000
     24 H4          4.5379   -1.1748   -3.4057 H         1 <0>         0.0000
     25 H5          5.8561   -1.7273   -6.2291 H         1 <0>         0.0000
     26 H6          6.4706   -2.2283   -4.6513 H         1 <0>         0.0000
     27 H7          6.1670   -3.4364   -5.9103 H         1 <0>         0.0000
     28 H8         -1.6147   -1.0278   -2.6025 H         1 <0>         0.0000
     29 H9         -2.7483   -1.2733   -1.2512 H         1 <0>         0.0000
     30 H10        -1.3716   -2.3733   -1.5075 H         1 <0>         0.0000
     31 H11         1.4006    1.6604    1.4653 H         1 <0>         0.0000
     32 H12         3.1221    0.9810    0.3884 H         1 <0>         0.0000
@<TRIPOS>BOND
     1    1    6 1
     2    1   15 3
     3    2    3 ar
     4    2    4 ar
     5    2   21 1
     6    3    7 ar
     7    3   22 1
     8    4    9 ar
     9    4   23 1
    10    5    7 ar
    11    5    9 ar
    12    5   24 1
    13    6    8 2
    14    6   11 1
    15    7   13 1
    16    8   10 1
    17    8   14 1
    18    9   16 1
    19   10   12 2
    20   10   17 1
    21   11   18 am
    22   11   19 2
    23   12   18 1
    24   12   20 1
    25   13   25 1
    26   13   26 1
    27   13   27 1
    28   14   28 1
    29   14   29 1
    30   14   30 1
    31   16   17 2
    32   18   31 1
    33   20   32 1
