@<TRIPOS>MOLECULE
*****
   33    35     0     0     0
SMALL
NO_CHARGES

@<TRIPOS>ATOM
      1 C1          2.6027   -2.9811    6.5940 C.1       1 <0>         0.0000
      2 C2         -0.2597    2.9019    7.4898 C.ar      1 <0>         0.0000
      3 C3          0.8399    2.6524    6.6591 C.ar      1 <0>         0.0000
      4 C4         -0.7816    1.8700    8.2773 C.ar      1 <0>         0.0000
      5 C5          1.4019    1.3773    6.5986 C.ar      1 <0>         0.0000
      6 C6         -0.2122    0.5965    8.2283 C.ar      1 <0>         0.0000
      7 C7          1.0031   -0.0032    0.6641 C.ar      1 <0>         0.0000
      8 C8          0.4561    0.1477    1.9361 C.ar      1 <0>         0.0000
      9 C9          2.8118   -1.4144    1.4767 C.ar      1 <0>         0.0000
     10 C10         0.8708    0.3236    7.3704 C.ar      1 <0>         0.0000
     11 C11         2.1704   -0.7743    0.4177 C.ar      1 <0>         0.0000
     12 C12         2.2833   -1.2786    2.7714 C.ar      1 <0>         0.0000
     13 C13         1.1164   -0.5010    2.9848 C.ar      1 <0>         0.0000
     14 C14         1.8828   -1.3703    4.8877 C.2       1 <0>         0.0000
     15 C15         1.4537   -1.0249    7.3636 C.2       1 <0>         0.0000
     16 C16         1.9595   -1.7229    6.3102 C.2       1 <0>         0.0000
     17 C17         2.6956   -0.8896   -0.9961 C.3       1 <0>         0.0000
     18 N1          3.1058   -3.9953    6.8680 N.1       1 <0>         0.0000
     19 N2          2.7274   -1.8101    3.9716 N.2       1 <0>         0.0000
     20 N3          0.8778   -0.5876    4.3461 N.pl3     1 <0>         0.0000
     21 H1         -0.6957    3.8963    7.5338 H         1 <0>         0.0000
     22 H2          1.2676    3.4559    6.0654 H         1 <0>         0.0000
     23 H3         -1.6258    2.0590    8.9348 H         1 <0>         0.0000
     24 H4          2.2687    1.1990    5.9699 H         1 <0>         0.0000
     25 H5         -0.6154   -0.2012    8.8479 H         1 <0>         0.0000
     26 H6          0.5177    0.4876   -0.1765 H         1 <0>         0.0000
     27 H7         -0.4396    0.7421    2.0956 H         1 <0>         0.0000
     28 H8          3.7048   -2.0127    1.3176 H         1 <0>         0.0000
     29 H9          1.4923   -1.5221    8.3304 H         1 <0>         0.0000
     30 H10         2.9359    0.0954   -1.4124 H         1 <0>         0.0000
     31 H11         3.6021   -1.4993   -1.0357 H         1 <0>         0.0000
     32 H12         1.9537   -1.3501   -1.6585 H         1 <0>         0.0000
     33 H13         0.1372   -0.1310    4.8613 H         1 <0>         0.0000
@<TRIPOS>BOND
     1    1   16 1
     2    1   18 3
     3    2    4 ar
     4    2    3 ar
     5    2   21 1
     6    3    5 ar
     7    3   22 1
     8    4    6 ar
     9    4   23 1
    10    5   10 ar
    11    5   24 1
    12    6   10 ar
    13    6   25 1
    14    7    8 ar
    15    7   11 ar
    16    7   26 1
    17    8   13 ar
    18    8   27 1
    19    9   11 ar
    20    9   12 ar
    21    9   28 1
    22   10   15 1
    23   11   17 1
    24   12   13 ar
    25   12   19 1
    26   13   20 1
    27   14   16 1
    28   14   19 2
    29   14   20 1
    30   15   16 2
    31   15   29 1
    32   17   30 1
    33   17   31 1
    34   17   32 1
    35   20   33 1
