@<TRIPOS>MOLECULE
*****
   37    39     0     0     0
SMALL
NO_CHARGES

@<TRIPOS>ATOM
      1 C1          0.6496    2.6885    0.4308 C.ar      1 <0>         0.0000
      2 C2          1.2631    1.5038    0.0292 C.ar      1 <0>         0.0000
      3 C3         -0.6539    2.6228    0.9294 C.ar      1 <0>         0.0000
      4 C4         -0.6750   -2.4819   -3.1984 C.2       1 <0>         0.0000
      5 C5          0.5476    0.3101    0.1207 C.ar      1 <0>         0.0000
      6 C6         -0.2843   -1.2831   -2.6944 C.2       1 <0>         0.0000
      7 C7         -0.7565    0.3499    0.6483 C.ar      1 <0>         0.0000
      8 C8         -1.1781   -0.1293   -2.7513 C.2       1 <0>         0.0000
      9 C9         -2.8636   -1.6439   -3.7972 C.2       1 <0>         0.0000
     10 C10         0.7811   -2.0984    0.5211 C.3       1 <0>         0.0000
     11 C11        -0.6947   -2.4822    0.4573 C.3       1 <0>         0.0000
     12 C12        -2.3150   -3.9739   -4.2923 C.3       1 <0>         0.0000
     13 C13        -3.4092    0.6979   -3.3058 C.3       1 <0>         0.0000
     14 N1         -1.3397    1.4805    1.0513 N.ar      1 <0>         0.0000
     15 N2         -1.9080   -2.6761   -3.7377 N.am      1 <0>         0.0000
     16 N3         -2.4503   -0.4176   -3.2960 N.am      1 <0>         0.0000
     17 N4          1.1305   -0.9262   -0.2986 N.pl3     1 <0>         0.0000
     18 O1         -0.9152    1.0012   -2.3699 O.2       1 <0>         0.0000
     19 O2         -3.9716   -1.8562   -4.2694 O.2       1 <0>         0.0000
     20 O3          1.9202   -2.5191   -2.0870 O.2       1 <0>         0.0000
     21 O4          2.0277   -0.0003   -2.4921 O.2       1 <0>         0.0000
     22 S1         -1.8193   -1.0713    0.8145 S.3       1 <0>         0.0000
     23 S2          1.3466   -1.1735   -1.9671 S.o2      1 <0>         0.0000
     24 H1          1.1654    3.6408    0.3581 H         1 <0>         0.0000
     25 H2          2.2664    1.4875   -0.3824 H         1 <0>         0.0000
     26 H3         -1.1729    3.5244    1.2497 H         1 <0>         0.0000
     27 H4         -0.0043   -3.3348   -3.1787 H         1 <0>         0.0000
     28 H5          1.0637   -1.8423    1.5456 H         1 <0>         0.0000
     29 H6          1.4002   -2.9355    0.1964 H         1 <0>         0.0000
     30 H7         -0.9438   -2.8912   -0.5232 H         1 <0>         0.0000
     31 H8         -0.9047   -3.2498    1.2076 H         1 <0>         0.0000
     32 H9         -3.1925   -4.3477   -3.7619 H         1 <0>         0.0000
     33 H10        -1.4857   -4.6725   -4.1800 H         1 <0>         0.0000
     34 H11        -2.5675   -3.8655   -5.3485 H         1 <0>         0.0000
     35 H12        -3.0184    1.5091   -3.9230 H         1 <0>         0.0000
     36 H13        -3.5374    1.0656   -2.2860 H         1 <0>         0.0000
     37 H14        -4.3513    0.3324   -3.7061 H         1 <0>         0.0000
@<TRIPOS>BOND
     1    1    2 ar
     2    1    3 ar
     3    1   24 1
     4    2    5 ar
     5    2   25 1
     6    3   14 ar
     7    3   26 1
     8    4    6 2
     9    4   15 1
    10    4   27 1
    11    5    7 ar
    12    5   17 1
    13    6    8 1
    14    6   23 1
    15    7   14 ar
    16    7   22 1
    17    8   16 am
    18    8   18 2
    19    9   15 am
    20    9   16 am
    21    9   19 2
    22   10   11 1
    23   10   17 1
    24   10   28 1
    25   10   29 1
    26   11   22 1
    27   11   30 1
    28   11   31 1
    29   12   15 1
    30   12   32 1
    31   12   33 1
    32   12   34 1
    33   13   16 1
    34   13   35 1
    35   13   36 1
    36   13   37 1
    37   17   23 1
    38   20   23 2
    39   21   23 2
