@<TRIPOS>MOLECULE
*****
   20    20     0     0     0
SMALL
NO_CHARGES

@<TRIPOS>ATOM
      1 C1          7.2043   -1.3086    0.2259 C.1       1 <0>         0.0000
      2 C2          2.2717   -0.4361    0.2319 C.ar      1 <0>         0.0000
      3 C3          1.0196   -0.0061    0.6901 C.ar      1 <0>         0.0000
      4 C4          1.4095   -1.1261    2.8067 C.ar      1 <0>         0.0000
      5 C5          3.1045   -1.2088    1.0477 C.ar      1 <0>         0.0000
      6 C6          2.6438   -1.5404    2.3334 C.ar      1 <0>         0.0000
      7 C7          0.5980   -0.3520    1.9703 C.ar      1 <0>         0.0000
      8 C8          6.2457   -1.9555   -0.6804 C.3       1 <0>         0.0000
      9 C9          4.8441   -1.3532   -0.5809 C.3       1 <0>         0.0000
     10 N1          7.9661   -0.7796    0.9263 N.1       1 <0>         0.0000
     11 O1          4.3389   -1.6819    0.7078 O.3       1 <0>         0.0000
     12 F1          3.4358   -2.2901    3.1282 F         1 <0>         0.0000
     13 Cl1        -0.9680    0.1828    2.5520 Cl        1 <0>         0.0000
     14 H1          2.5838   -0.1571   -0.7679 H         1 <0>         0.0000
     15 H2          0.3828    0.5940    0.0489 H         1 <0>         0.0000
     16 H3          1.0985   -1.4060    3.8075 H         1 <0>         0.0000
     17 H4          6.6120   -1.8492   -1.7068 H         1 <0>         0.0000
     18 H5          6.2028   -3.0239   -0.4489 H         1 <0>         0.0000
     19 H6          4.2077   -1.7875   -1.3629 H         1 <0>         0.0000
     20 H7          4.8823   -0.2658   -0.7158 H         1 <0>         0.0000
@<TRIPOS>BOND
     1    1    8 1
     2    1   10 3
     3    2    3 ar
     4    2    5 ar
     5    2   14 1
     6    3    7 ar
     7    3   15 1
     8    4    6 ar
     9    4    7 ar
    10    4   16 1
    11    5    6 ar
    12    5   11 1
    13    6   12 1
    14    7   13 1
    15    8    9 1
    16    8   17 1
    17    8   18 1
    18    9   11 1
    19    9   19 1
    20    9   20 1
