@<TRIPOS>MOLECULE
*****
   31    33     0     0     0
SMALL
NO_CHARGES

@<TRIPOS>ATOM
      1 C1         -7.5432    4.5597    4.9416 C.1       1 <0>         0.0000
      2 C2         -3.8332   -2.0628    0.9683 C.ar      1 <0>         0.0000
      3 C3         -5.1751   -2.3705    0.7636 C.ar      1 <0>         0.0000
      4 C4         -5.8860   -0.6577    2.3741 C.ar      1 <0>         0.0000
      5 C5         -2.4939    0.4390    3.2241 C.2       1 <0>         0.0000
      6 C6         -7.7607    4.1976    3.5864 C.2       1 <0>         0.0000
      7 C7         -4.5327   -0.3101    2.5659 C.ar      1 <0>         0.0000
      8 C8         -3.8495    0.6474    3.4183 C.2       1 <0>         0.0000
      9 C9         -3.5273   -1.0390    1.8709 C.ar      1 <0>         0.0000
     10 C10        -6.1747   -1.6709    1.4699 C.ar      1 <0>         0.0000
     11 C11        -7.1006    3.2688    2.8130 C.2       1 <0>         0.0000
     12 C12        -8.6742    4.2276    1.6358 C.2       1 <0>         0.0000
     13 C13        -4.3991    1.6355    4.3503 C.2       1 <0>         0.0000
     14 C14        -9.4713    4.4473    0.4012 C.3       1 <0>         0.0000
     15 N1         -7.3914    4.8807    6.0528 N.1       1 <0>         0.0000
     16 N2         -8.7632    4.7883    2.7923 N.2       1 <0>         0.0000
     17 N3         -5.4220    2.4071    4.1971 N.2       1 <0>         0.0000
     18 N4         -2.2995   -0.5564    2.2949 N.pl3     1 <0>         0.0000
     19 N5         -6.0978    2.3611    3.0103 N.pl3     1 <0>         0.0000
     20 O1         -7.6595    3.2684    1.5723 O.3       1 <0>         0.0000
     21 Br1        -8.0089   -2.1501    1.1665 Br        1 <0>         0.0000
     22 H1         -3.0557   -2.6108    0.4428 H         1 <0>         0.0000
     23 H2         -5.4549   -3.1554    0.0694 H         1 <0>         0.0000
     24 H3         -6.6783   -0.1596    2.9207 H         1 <0>         0.0000
     25 H4         -1.6537    0.9477    3.6787 H         1 <0>         0.0000
     26 H5         -3.8881    1.7769    5.3007 H         1 <0>         0.0000
     27 H6         -8.8330    4.7739   -0.4264 H         1 <0>         0.0000
     28 H7         -9.9777    3.5269    0.0926 H         1 <0>         0.0000
     29 H8        -10.2178    5.2164    0.6019 H         1 <0>         0.0000
     30 H9         -1.3990   -0.8829    1.9727 H         1 <0>         0.0000
     31 H10        -5.6794    1.9375    2.1829 H         1 <0>         0.0000
@<TRIPOS>BOND
     1    1    6 1
     2    1   15 3
     3    2    3 ar
     4    2    9 ar
     5    2   22 1
     6    3   10 ar
     7    3   23 1
     8    4    7 ar
     9    4   10 ar
    10    4   24 1
    11    5    8 2
    12    5   18 1
    13    5   25 1
    14    6   11 2
    15    6   16 1
    16    7    8 1
    17    7    9 ar
    18    8   13 1
    19    9   18 1
    20   10   21 1
    21   11   19 1
    22   11   20 1
    23   12   14 1
    24   12   16 2
    25   12   20 1
    26   13   17 2
    27   13   26 1
    28   14   27 1
    29   14   28 1
    30   14   29 1
    31   17   19 1
    32   18   30 1
    33   19   31 1
