@<TRIPOS>MOLECULE
*****
   34    36     0     0     0
SMALL
NO_CHARGES

@<TRIPOS>ATOM
      1 C1         -1.7201   -1.0911   -0.7100 C.ar      1 <0>         0.0000
      2 C2         -0.5518   -1.1983    0.0557 C.ar      1 <0>         0.0000
      3 C3         -6.8694   -2.8037    0.0470 C.ar      1 <0>         0.0000
      4 C4         -6.0547   -3.6412   -0.7157 C.ar      1 <0>         0.0000
      5 C5         -6.4362   -2.3476    1.2964 C.ar      1 <0>         0.0000
      6 C6         -2.3851   -2.2446   -1.1183 C.ar      1 <0>         0.0000
      7 C7         -0.0572   -2.4547    0.4012 C.ar      1 <0>         0.0000
      8 C8         -4.3673   -3.5466    1.0223 C.ar      1 <0>         0.0000
      9 C9         -4.7878   -3.9968   -0.2358 C.ar      1 <0>         0.0000
     10 C10        -5.1855   -2.7256    1.8072 C.ar      1 <0>         0.0000
     11 C11        -1.9233   -3.5107   -0.7321 C.ar      1 <0>         0.0000
     12 C12        -0.7387   -3.6227    0.0204 C.ar      1 <0>         0.0000
     13 C13        -3.9555   -4.9310   -1.0621 C.2       1 <0>         0.0000
     14 C14        -1.7175   -5.7769   -1.6014 C.3       1 <0>         0.0000
     15 C15        -1.0145   -6.4096   -0.4063 C.3       1 <0>         0.0000
     16 C16        -4.7314   -2.2752    3.1766 C.3       1 <0>         0.0000
     17 N1         -2.5907   -4.6937   -1.1455 N.am      1 <0>         0.0000
     18 O1         -4.4676   -5.9007   -1.6231 O.2       1 <0>         0.0000
     19 S1         -0.0560   -5.1712    0.5674 S.3       1 <0>         0.0000
     20 H1         -2.1010   -0.1163   -1.0005 H         1 <0>         0.0000
     21 H2         -0.0166   -0.3060    0.3690 H         1 <0>         0.0000
     22 H3         -7.8455   -2.5076   -0.3285 H         1 <0>         0.0000
     23 H4         -6.3851   -4.0237   -1.6767 H         1 <0>         0.0000
     24 H5         -7.0788   -1.6950    1.8837 H         1 <0>         0.0000
     25 H6         -3.2822   -2.1774   -1.7254 H         1 <0>         0.0000
     26 H7          0.8611   -2.5381    0.9773 H         1 <0>         0.0000
     27 H8         -3.3911   -3.8364    1.4010 H         1 <0>         0.0000
     28 H9         -0.9922   -5.3729   -2.3137 H         1 <0>         0.0000
     29 H10        -2.3388   -6.5172   -2.1060 H         1 <0>         0.0000
     30 H11        -1.7504   -6.8792    0.2500 H         1 <0>         0.0000
     31 H12        -0.2984   -7.1680   -0.7345 H         1 <0>         0.0000
     32 H13        -4.9765   -3.0265    3.9370 H         1 <0>         0.0000
     33 H14        -3.6488   -2.1204    3.2048 H         1 <0>         0.0000
     34 H15        -5.2167   -1.3399    3.4703 H         1 <0>         0.0000
@<TRIPOS>BOND
     1    1    2 ar
     2    1    6 ar
     3    1   20 1
     4    2    7 ar
     5    2   21 1
     6    3    4 ar
     7    3    5 ar
     8    3   22 1
     9    4    9 ar
    10    4   23 1
    11    5   10 ar
    12    5   24 1
    13    6   11 ar
    14    6   25 1
    15    7   12 ar
    16    7   26 1
    17    8    9 ar
    18    8   10 ar
    19    8   27 1
    20    9   13 1
    21   10   16 1
    22   11   12 ar
    23   11   17 1
    24   12   19 1
    25   13   17 am
    26   13   18 2
    27   14   15 1
    28   14   17 1
    29   14   28 1
    30   14   29 1
    31   15   19 1
    32   15   30 1
    33   15   31 1
    34   16   32 1
    35   16   33 1
    36   16   34 1
