@<TRIPOS>MOLECULE
*****
   37    39     0     0     0
SMALL
NO_CHARGES

@<TRIPOS>ATOM
      1 C1         -0.5752    4.7629    2.0927 C.1       1 <0>         0.0000
      2 C2         -6.4224    5.2743    2.8081 C.ar      1 <0>         0.0000
      3 C3         -4.7383    6.9388    3.3742 C.ar      1 <0>         0.0000
      4 C4         -7.4340    6.1356    3.2421 C.ar      1 <0>         0.0000
      5 C5         -5.7437    7.8042    3.8137 C.ar      1 <0>         0.0000
      6 C6         -5.0768    5.6770    2.8561 C.ar      1 <0>         0.0000
      7 C7         -7.0742    7.3794    3.7644 C.ar      1 <0>         0.0000
      8 C8         -2.1773    2.8934    1.5294 C.2       1 <0>         0.0000
      9 C9         -2.0791    0.8583    0.7360 C.2       1 <0>         0.0000
     10 C10        -1.9104    4.2408    2.0321 C.2       1 <0>         0.0000
     11 C11        -1.5495   -0.4193    0.1751 C.3       1 <0>         0.0000
     12 C12        -0.6999   -0.2281   -1.0984 C.3       1 <0>         0.0000
     13 C13         0.7088    0.3322   -0.8533 C.3       1 <0>         0.0000
     14 C14         0.7817    1.7401   -0.2435 C.3       1 <0>         0.0000
     15 C15         0.1822    1.8652    1.1615 C.3       1 <0>         0.0000
     16 N1          0.5173    5.1710    2.1268 N.1       1 <0>         0.0000
     17 N2         -3.4196    2.4383    1.3622 N.2       1 <0>         0.0000
     18 N3         -3.3562    1.1653    0.8602 N.2       1 <0>         0.0000
     19 N4         -2.8289    5.0958    2.4365 N.2       1 <0>         0.0000
     20 N5         -1.2879    1.9053    1.1493 N.pl3     1 <0>         0.0000
     21 N6         -4.1035    4.7716    2.4095 N.pl3     1 <0>         0.0000
     22 I1         -8.6992    9.0244    3.7627 I         1 <0>         0.0000
     23 H1         -6.6822    4.2913    2.4220 H         1 <0>         0.0000
     24 H2         -3.6969    7.2365    3.4231 H         1 <0>         0.0000
     25 H3         -8.4720    5.8261    3.1833 H         1 <0>         0.0000
     26 H4         -5.4816    8.7833    4.2009 H         1 <0>         0.0000
     27 H5         -0.9604   -0.9501    0.9352 H         1 <0>         0.0000
     28 H6         -2.4226   -1.0389   -0.0422 H         1 <0>         0.0000
     29 H7         -0.6008   -1.2043   -1.5859 H         1 <0>         0.0000
     30 H8         -1.2462    0.4159   -1.7980 H         1 <0>         0.0000
     31 H9          1.2569   -0.3613   -0.2004 H         1 <0>         0.0000
     32 H10         1.2492    0.3422   -1.8067 H         1 <0>         0.0000
     33 H11         1.8347    2.0341   -0.1715 H         1 <0>         0.0000
     34 H12         0.2979    2.4734   -0.8996 H         1 <0>         0.0000
     35 H13         0.4866    1.0191    1.7876 H         1 <0>         0.0000
     36 H14         0.5429    2.7673    1.6448 H         1 <0>         0.0000
     37 H15        -4.3702    3.8441    2.0365 H         1 <0>         0.0000
@<TRIPOS>BOND
     1    1   10 1
     2    1   16 3
     3    2    4 ar
     4    2    6 ar
     5    2   23 1
     6    3    5 ar
     7    3    6 ar
     8    3   24 1
     9    4    7 ar
    10    4   25 1
    11    5    7 ar
    12    5   26 1
    13    6   21 1
    14    7   22 1
    15    8   10 1
    16    8   17 2
    17    8   20 1
    18    9   11 1
    19    9   18 2
    20    9   20 1
    21   10   19 2
    22   11   12 1
    23   11   27 1
    24   11   28 1
    25   12   13 1
    26   12   29 1
    27   12   30 1
    28   13   14 1
    29   13   31 1
    30   13   32 1
    31   14   15 1
    32   14   33 1
    33   14   34 1
    34   15   20 1
    35   15   35 1
    36   15   36 1
    37   17   18 1
    38   19   21 1
    39   21   37 1
