@<TRIPOS>MOLECULE
*****
   35    37     0     0     0
SMALL
NO_CHARGES

@<TRIPOS>ATOM
      1 C1         -0.8620   -2.1601    0.8312 C.ar      1 <0>         0.0000
      2 C2         -0.0452   -1.0964    0.3804 C.ar      1 <0>         0.0000
      3 C3         -0.4050   -3.4546    0.7166 C.ar      1 <0>         0.0000
      4 C4          1.2023   -1.3298   -0.1676 C.ar      1 <0>         0.0000
      5 C5          1.3280   -5.0641    0.0356 C.ar      1 <0>         0.0000
      6 C6          2.5550   -5.3601   -0.5107 C.ar      1 <0>         0.0000
      7 C7          0.8715   -3.7273    0.1551 C.ar      1 <0>         0.0000
      8 C8          1.7081   -2.6539   -0.2984 C.ar      1 <0>         0.0000
      9 C9          3.0007   -2.9625   -0.8649 C.ar      1 <0>         0.0000
     10 C10         4.8267    0.1359   -1.7553 C.ar      1 <0>         0.0000
     11 C11         3.3935   -4.3130   -0.9641 C.ar      1 <0>         0.0000
     12 C12         6.1764    0.0097   -1.3758 C.ar      1 <0>         0.0000
     13 C13         4.5001    1.2603   -2.5366 C.ar      1 <0>         0.0000
     14 C14         7.1418    0.9409   -1.7525 C.ar      1 <0>         0.0000
     15 C15         5.4563    2.1888   -2.9355 C.ar      1 <0>         0.0000
     16 C16         6.7856    2.0322   -2.5419 C.ar      1 <0>         0.0000
     17 C17         3.9629   -1.9803   -1.3510 C.2       1 <0>         0.0000
     18 C18         5.0803   -5.9134   -1.6051 C.3       1 <0>         0.0000
     19 N1          3.7983   -0.6981   -1.3191 N.2       1 <0>         0.0000
     20 O1          4.6169   -4.5664   -1.5136 O.3       1 <0>         0.0000
     21 F1          6.5617   -1.0120   -0.5839 F         1 <0>         0.0000
     22 F2          3.2284    1.4432   -2.9271 F         1 <0>         0.0000
     23 F3          8.4161    0.7906   -1.3566 F         1 <0>         0.0000
     24 F4          5.1073    3.2367   -3.6980 F         1 <0>         0.0000
     25 F5          7.7120    2.9259   -2.9190 F         1 <0>         0.0000
     26 H1         -1.8390   -1.9549    1.2603 H         1 <0>         0.0000
     27 H2         -0.4041   -0.0736    0.4645 H         1 <0>         0.0000
     28 H3         -1.0155   -4.2896    1.0527 H         1 <0>         0.0000
     29 H4          1.8090   -0.5031   -0.5071 H         1 <0>         0.0000
     30 H5          0.6870   -5.8708    0.3839 H         1 <0>         0.0000
     31 H6          2.8713   -6.3928   -0.5899 H         1 <0>         0.0000
     32 H7          4.8701   -2.4129   -1.7749 H         1 <0>         0.0000
     33 H8          6.0711   -5.8491   -2.0554 H         1 <0>         0.0000
     34 H9          4.4286   -6.5173   -2.2465 H         1 <0>         0.0000
     35 H10         5.1611   -6.3751   -0.6147 H         1 <0>         0.0000
@<TRIPOS>BOND
     1    1    2 ar
     2    1    3 ar
     3    1   26 1
     4    2    4 ar
     5    2   27 1
     6    3    7 ar
     7    3   28 1
     8    4    8 ar
     9    4   29 1
    10    5    6 ar
    11    5    7 ar
    12    5   30 1
    13    6   11 ar
    14    6   31 1
    15    7    8 ar
    16    8    9 ar
    17    9   11 ar
    18    9   17 1
    19   10   12 ar
    20   10   13 ar
    21   10   19 1
    22   11   20 1
    23   12   14 ar
    24   12   21 1
    25   13   15 ar
    26   13   22 1
    27   14   16 ar
    28   14   23 1
    29   15   16 ar
    30   15   24 1
    31   16   25 1
    32   17   19 2
    33   17   32 1
    34   18   20 1
    35   18   33 1
    36   18   34 1
    37   18   35 1
