@<TRIPOS>MOLECULE
*****
   40    44     0     0     0
SMALL
NO_CHARGES

@<TRIPOS>ATOM
      1 C1          0.9358    0.1247    2.0332 C.ar      1 <0>         0.0000
      2 C2          0.2352   -0.2492    0.8658 C.ar      1 <0>         0.0000
      3 C3          0.6841   -0.4982    3.2538 C.ar      1 <0>         0.0000
      4 C4         -0.7309   -1.2555    0.8942 C.ar      1 <0>         0.0000
      5 C5         -0.1820   -6.4838    8.7481 C.2       1 <0>         0.0000
      6 C6         -0.2865   -1.5148    3.3133 C.ar      1 <0>         0.0000
      7 C7         -0.7962   -2.3590    4.3626 C.2       1 <0>         0.0000
      8 C8         -0.9806   -1.8790    2.1208 C.ar      1 <0>         0.0000
      9 C9         -0.6836   -5.8011    7.6017 C.2       1 <0>         0.0000
     10 C10        -1.7503   -3.1772    3.8070 C.2       1 <0>         0.0000
     11 C11        -0.8098   -7.6969    8.7167 C.2       1 <0>         0.0000
     12 C12        -0.1886   -4.4519    7.1565 C.2       1 <0>         0.0000
     13 C13        -0.4046   -2.4341    5.8117 C.3       1 <0>         0.0000
     14 C14        -2.5426   -4.1983    4.5596 C.3       1 <0>         0.0000
     15 C15        -1.9946   -9.7329    9.8058 C.3       1 <0>         0.0000
     16 C16        -0.8516  -10.2753    8.9929 C.3       1 <0>         0.0000
     17 C17        -2.3953   -3.8809    6.0573 C.3       1 <0>         0.0000
     18 C18        -0.7533   -8.8760    9.5886 C.3       1 <0>         0.0000
     19 N1         -1.5384   -6.5429    6.9219 N.2       1 <0>         0.0000
     20 N2         -1.8655   -2.8959    2.4521 N.pl3     1 <0>         0.0000
     21 N3         -0.9919   -3.6444    6.4072 N.am      1 <0>         0.0000
     22 O1          0.9579   -4.1374    7.4929 O.2       1 <0>         0.0000
     23 O2         -1.6246   -7.7508    7.6288 O.3       1 <0>         0.0000
     24 H1          1.6840    0.9107    1.9742 H         1 <0>         0.0000
     25 H2          0.4532    0.2540   -0.0724 H         1 <0>         0.0000
     26 H3          1.2319   -0.2034    4.1456 H         1 <0>         0.0000
     27 H4         -1.2663   -1.5423   -0.0080 H         1 <0>         0.0000
     28 H5          0.5476   -6.1147    9.4532 H         1 <0>         0.0000
     29 H6          0.6770   -2.4949    5.9379 H         1 <0>         0.0000
     30 H7         -0.7472   -1.5495    6.3690 H         1 <0>         0.0000
     31 H8         -3.6047   -4.1661    4.2850 H         1 <0>         0.0000
     32 H9         -2.1826   -5.2160    4.3662 H         1 <0>         0.0000
     33 H10        -2.8938   -9.4339    9.2773 H         1 <0>         0.0000
     34 H11        -2.1538  -10.1222   10.8067 H         1 <0>         0.0000
     35 H12        -0.2173  -11.0403    9.4299 H         1 <0>         0.0000
     36 H13        -0.9812  -10.3403    7.9176 H         1 <0>         0.0000
     37 H14        -2.9469   -2.9608    6.2871 H         1 <0>         0.0000
     38 H15        -2.8018   -4.6852    6.6628 H         1 <0>         0.0000
     39 H16        -0.0885   -8.7494   10.4368 H         1 <0>         0.0000
     40 H17        -2.4976   -3.3556    1.8127 H         1 <0>         0.0000
@<TRIPOS>BOND
     1    1    2 ar
     2    1    3 ar
     3    1   24 1
     4    2    4 ar
     5    2   25 1
     6    3    6 ar
     7    3   26 1
     8    4    8 ar
     9    4   27 1
    10    5    9 1
    11    5   11 2
    12    5   28 1
    13    6    7 1
    14    6    8 ar
    15    7   10 2
    16    7   13 1
    17    8   20 1
    18    9   12 1
    19    9   19 2
    20   10   14 1
    21   10   20 1
    22   11   18 1
    23   11   23 1
    24   12   21 am
    25   12   22 2
    26   13   21 1
    27   13   29 1
    28   13   30 1
    29   14   17 1
    30   14   31 1
    31   14   32 1
    32   15   16 1
    33   15   18 1
    34   15   33 1
    35   15   34 1
    36   16   18 1
    37   16   35 1
    38   16   36 1
    39   17   21 1
    40   17   37 1
    41   17   38 1
    42   18   39 1
    43   19   23 1
    44   20   40 1
