@<TRIPOS>MOLECULE
*****
   28    29     0     0     0
SMALL
NO_CHARGES

@<TRIPOS>ATOM
      1 C1          2.8796   -4.5494   -3.8066 C.1       1 <0>         0.0000
      2 C2          2.1847   -2.7494    1.3205 C.ar      1 <0>         0.0000
      3 C3          1.0917   -2.6280    2.1765 C.ar      1 <0>         0.0000
      4 C4          2.6532   -0.3894    1.5700 C.ar      1 <0>         0.0000
      5 C5          3.1122   -3.4452   -2.9529 C.2       1 <0>         0.0000
      6 C6          2.9728   -1.6303    1.0131 C.ar      1 <0>         0.0000
      7 C7          0.7911   -1.3856    2.7305 C.ar      1 <0>         0.0000
      8 C8          1.5637   -0.2631    2.4363 C.ar      1 <0>         0.0000
      9 C9          2.8283   -2.0560   -3.1640 C.2       1 <0>         0.0000
     10 C10         3.7289   -3.5048   -1.6979 C.2       1 <0>         0.0000
     11 C11         2.1843   -1.4348   -4.3618 C.3       1 <0>         0.0000
     12 C12         4.1635   -1.7614    0.0830 C.3       1 <0>         0.0000
     13 N1          2.7032   -5.4815   -4.4893 N.1       1 <0>         0.0000
     14 N2          3.2389   -1.3329   -2.1335 N.2       1 <0>         0.0000
     15 N3          3.7938   -2.2299   -1.2454 N.pl3     1 <0>         0.0000
     16 N4          4.1271   -4.6103   -0.9516 N.pl3     1 <0>         0.0000
     17 F1         -0.2654   -1.2803    3.5615 F         1 <0>         0.0000
     18 Br1         1.1281    1.4239    3.2079 Br        1 <0>         0.0000
     19 H1          2.4230   -3.7160    0.8858 H         1 <0>         0.0000
     20 H2          0.4655   -3.4789    2.4273 H         1 <0>         0.0000
     21 H3          3.2432    0.4894    1.3279 H         1 <0>         0.0000
     22 H4          1.1992   -1.8754   -4.5458 H         1 <0>         0.0000
     23 H5          2.0690   -0.3605   -4.2056 H         1 <0>         0.0000
     24 H6          2.7884   -1.5989   -5.2604 H         1 <0>         0.0000
     25 H7          4.6611   -0.7987   -0.0452 H         1 <0>         0.0000
     26 H8          4.8971   -2.4589    0.4981 H         1 <0>         0.0000
     27 H9          5.0436   -4.5177   -0.5233 H         1 <0>         0.0000
     28 H10         4.0834   -5.4658   -1.4992 H         1 <0>         0.0000
@<TRIPOS>BOND
     1    1    5 1
     2    1   13 3
     3    2    3 ar
     4    2    6 ar
     5    2   19 1
     6    3    7 ar
     7    3   20 1
     8    4    6 ar
     9    4    8 ar
    10    4   21 1
    11    5    9 1
    12    5   10 2
    13    6   12 1
    14    7    8 ar
    15    7   17 1
    16    8   18 1
    17    9   11 1
    18    9   14 2
    19   10   15 1
    20   10   16 1
    21   11   22 1
    22   11   23 1
    23   11   24 1
    24   12   15 1
    25   12   25 1
    26   12   26 1
    27   14   15 1
    28   16   27 1
    29   16   28 1
