@<TRIPOS>MOLECULE
*****
   40    44     0     0     0
SMALL
NO_CHARGES

@<TRIPOS>ATOM
      1 C1          2.0211   -0.5152    0.8761 C.ar      1 <0>         0.0000
      2 C2          0.6267   -0.3812    1.0533 C.ar      1 <0>         0.0000
      3 C3          2.6404   -1.7605    0.9594 C.ar      1 <0>         0.0000
      4 C4         -0.1776   -1.4899    1.3193 C.ar      1 <0>         0.0000
      5 C5          4.9224   -9.0147    3.9771 C.2       1 <0>         0.0000
      6 C6          1.8544   -2.8967    1.2241 C.ar      1 <0>         0.0000
      7 C7          2.1355   -4.3002    1.3811 C.2       1 <0>         0.0000
      8 C8          0.4475   -2.7382    1.4027 C.ar      1 <0>         0.0000
      9 C9          3.8956   -8.1883    3.4348 C.2       1 <0>         0.0000
     10 C10         0.9430   -4.9338    1.6354 C.2       1 <0>         0.0000
     11 C11         4.2450  -10.0169    4.6124 C.2       1 <0>         0.0000
     12 C12         4.1625   -6.8842    2.7338 C.2       1 <0>         0.0000
     13 C13         3.4490   -5.0287    1.3292 C.3       1 <0>         0.0000
     14 C14         0.7866   -6.4065    1.8438 C.3       1 <0>         0.0000
     15 C15         3.8815  -11.6598    6.5859 C.3       1 <0>         0.0000
     16 C16         3.8724  -12.4835    5.3277 C.3       1 <0>         0.0000
     17 C17         2.0682   -7.0817    1.3273 C.3       1 <0>         0.0000
     18 C18         4.6807  -11.1924    5.3754 C.3       1 <0>         0.0000
     19 N1          2.6913   -8.6443    3.7260 N.2       1 <0>         0.0000
     20 N2         -0.0816   -3.9968    1.6530 N.pl3     1 <0>         0.0000
     21 N3          3.2611   -6.3975    1.8343 N.am      1 <0>         0.0000
     22 O1          5.2083   -6.2947    3.0262 O.2       1 <0>         0.0000
     23 O2          2.9077   -9.8103    4.4741 O.3       1 <0>         0.0000
     24 H1          2.6176    0.3702    0.6730 H         1 <0>         0.0000
     25 H2          0.1714    0.6030    0.9833 H         1 <0>         0.0000
     26 H3          3.7155   -1.8508    0.8235 H         1 <0>         0.0000
     27 H4         -1.2508   -1.3819    1.4577 H         1 <0>         0.0000
     28 H5          5.9876   -8.8518    3.9094 H         1 <0>         0.0000
     29 H6          3.8494   -5.0675    0.3051 H         1 <0>         0.0000
     30 H7          4.2049   -4.5476    1.9514 H         1 <0>         0.0000
     31 H8          0.6456   -6.6549    2.9026 H         1 <0>         0.0000
     32 H9         -0.0776   -6.8011    1.2942 H         1 <0>         0.0000
     33 H10         2.9870  -11.0955    6.8282 H         1 <0>         0.0000
     34 H11         4.4486  -12.0178    7.4396 H         1 <0>         0.0000
     35 H12         4.4325  -13.4133    5.3090 H         1 <0>         0.0000
     36 H13         2.9710  -12.4741    4.7238 H         1 <0>         0.0000
     37 H14         2.0904   -8.1301    1.6085 H         1 <0>         0.0000
     38 H15         2.0950   -7.0153    0.2324 H         1 <0>         0.0000
     39 H16         5.7598  -11.2895    5.4324 H         1 <0>         0.0000
     40 H17        -1.0565   -4.2016    1.8188 H         1 <0>         0.0000
@<TRIPOS>BOND
     1    1    2 ar
     2    1    3 ar
     3    1   24 1
     4    2    4 ar
     5    2   25 1
     6    3    6 ar
     7    3   26 1
     8    4    8 ar
     9    4   27 1
    10    5    9 1
    11    5   11 2
    12    5   28 1
    13    6    7 1
    14    6    8 ar
    15    7   10 2
    16    7   13 1
    17    8   20 1
    18    9   12 1
    19    9   19 2
    20   10   14 1
    21   10   20 1
    22   11   18 1
    23   11   23 1
    24   12   21 am
    25   12   22 2
    26   13   21 1
    27   13   29 1
    28   13   30 1
    29   14   17 1
    30   14   31 1
    31   14   32 1
    32   15   16 1
    33   15   18 1
    34   15   33 1
    35   15   34 1
    36   16   18 1
    37   16   35 1
    38   16   36 1
    39   17   21 1
    40   17   37 1
    41   17   38 1
    42   18   39 1
    43   19   23 1
    44   20   40 1
