@<TRIPOS>MOLECULE
*****
   23    23     0     0     0
SMALL
NO_CHARGES

@<TRIPOS>ATOM
      1 C1          2.7224   -4.2855   -0.8656 C.1       1 <0>         0.0000
      2 C2          1.7696   -1.2839   -0.0445 C.ar      1 <0>         0.0000
      3 C3          0.6651   -0.7531    0.6189 C.ar      1 <0>         0.0000
      4 C4          1.8209   -1.0334    2.7337 C.ar      1 <0>         0.0000
      5 C5          2.9258   -1.6968    0.6326 C.ar      1 <0>         0.0000
      6 C6          2.9189   -1.5291    2.0267 C.ar      1 <0>         0.0000
      7 C7          0.7073   -0.6452    2.0059 C.ar      1 <0>         0.0000
      8 C8          3.6336   -3.2203   -1.2968 C.3       1 <0>         0.0000
      9 C9          4.0924   -2.3125   -0.1321 C.3       1 <0>         0.0000
     10 N1          1.9976   -5.1201   -0.5054 N.1       1 <0>         0.0000
     11 N2          4.9115   -1.2370   -0.7114 N.3       1 <0>         0.0000
     12 N3          4.1082   -1.8366    2.8437 N.pl3     1 <0>         0.0000
     13 O1          3.9273   -2.2882    3.9753 O.3       1 <0>         0.0000
     14 O2          5.2195   -1.5890    2.3539 O.2       1 <0>         0.0000
     15 F1         -0.3604   -0.1424    2.6626 F         1 <0>         0.0000
     16 H1          1.7249   -1.3790   -1.1233 H         1 <0>         0.0000
     17 H2         -0.2215   -0.4355    0.0794 H         1 <0>         0.0000
     18 H3          1.8467   -0.9438    3.8133 H         1 <0>         0.0000
     19 H4          4.5183   -3.6854   -1.7450 H         1 <0>         0.0000
     20 H5          3.1588   -2.6290   -2.0840 H         1 <0>         0.0000
     21 H6          4.6556   -2.9517    0.5570 H         1 <0>         0.0000
     22 H7          5.7407   -1.6443   -1.1453 H         1 <0>         0.0000
     23 H8          5.2549   -0.6581    0.0545 H         1 <0>         0.0000
@<TRIPOS>BOND
     1    1    8 1
     2    1   10 3
     3    2    3 ar
     4    2    5 ar
     5    2   16 1
     6    3    7 ar
     7    3   17 1
     8    4    6 ar
     9    4    7 ar
    10    4   18 1
    11    5    6 ar
    12    5    9 1
    13    6   12 1
    14    7   15 1
    15    8    9 1
    16    8   19 1
    17    8   20 1
    18    9   11 1
    19    9   21 1
    20   11   22 1
    21   11   23 1
    22   12   13 1
    23   12   14 2
