@<TRIPOS>MOLECULE
*****
   36    38     0     0     0
SMALL
NO_CHARGES

@<TRIPOS>ATOM
      1 C1          0.3083    7.8916    1.9818 C.1       1 <0>         0.0000
      2 C2          0.2661    2.4624   -0.7337 C.ar      1 <0>         0.0000
      3 C3         -0.2617    1.1611   -0.5446 C.ar      1 <0>         0.0000
      4 C4         -0.5711    3.5269   -1.0030 C.ar      1 <0>         0.0000
      5 C5         -1.6213    0.9437   -0.6318 C.ar      1 <0>         0.0000
      6 C6         -4.2471    4.0613   -1.4388 C.ar      1 <0>         0.0000
      7 C7         -0.7654    7.2860    1.2867 C.2       1 <0>         0.0000
      8 C8         -1.9765    3.3331   -1.0949 C.ar      1 <0>         0.0000
      9 C9         -2.9124    4.3778   -1.3677 C.ar      1 <0>         0.0000
     10 C10        -2.5087    2.0174   -0.9077 C.ar      1 <0>         0.0000
     11 C11        -4.6858    2.7181   -1.2407 C.ar      1 <0>         0.0000
     12 C12        -2.0670    6.9232    1.7621 C.2       1 <0>         0.0000
     13 C13        -0.7640    6.9418   -0.0701 C.2       1 <0>         0.0000
     14 C14        -6.1577    2.3953   -1.3120 C.3       1 <0>         0.0000
     15 C15        -2.6050    7.0817    3.1481 C.3       1 <0>         0.0000
     16 C16        -2.4652    5.8096   -1.5661 C.3       1 <0>         0.0000
     17 N1          1.2112    8.3934    2.5284 N.1       1 <0>         0.0000
     18 N2         -3.8460    1.7338   -0.9835 N.ar      1 <0>         0.0000
     19 N3         -2.7956    6.4095    0.7820 N.2       1 <0>         0.0000
     20 N4         -1.9833    6.4132   -0.3280 N.pl3     1 <0>         0.0000
     21 N5          0.2623    6.9942   -1.0122 N.pl3     1 <0>         0.0000
     22 H1          1.3387    2.6234   -0.6640 H         1 <0>         0.0000
     23 H2          0.4100    0.3336   -0.3314 H         1 <0>         0.0000
     24 H3         -0.1421    4.5139   -1.1426 H         1 <0>         0.0000
     25 H4         -2.0530   -0.0432   -0.4941 H         1 <0>         0.0000
     26 H5         -4.9853    4.8370   -1.6273 H         1 <0>         0.0000
     27 H6         -6.5773    2.6854   -2.2822 H         1 <0>         0.0000
     28 H7         -6.3112    1.3254   -1.1641 H         1 <0>         0.0000
     29 H8         -6.7132    2.9429   -0.5418 H         1 <0>         0.0000
     30 H9         -2.5795    8.1304    3.4619 H         1 <0>         0.0000
     31 H10        -3.6358    6.7244    3.1879 H         1 <0>         0.0000
     32 H11        -2.0050    6.5114    3.8648 H         1 <0>         0.0000
     33 H12        -1.6502    5.8614   -2.2919 H         1 <0>         0.0000
     34 H13        -3.2974    6.4086   -1.9459 H         1 <0>         0.0000
     35 H14         1.1081    7.3933   -0.6131 H         1 <0>         0.0000
     36 H15         0.0180    7.4948   -1.8624 H         1 <0>         0.0000
@<TRIPOS>BOND
     1    1    7 1
     2    1   17 3
     3    2    3 ar
     4    2    4 ar
     5    2   22 1
     6    3    5 ar
     7    3   23 1
     8    4    8 ar
     9    4   24 1
    10    5   10 ar
    11    5   25 1
    12    6    9 ar
    13    6   11 ar
    14    6   26 1
    15    7   12 1
    16    7   13 2
    17    8    9 ar
    18    8   10 ar
    19    9   16 1
    20   10   18 ar
    21   11   14 1
    22   11   18 ar
    23   12   15 1
    24   12   19 2
    25   13   20 1
    26   13   21 1
    27   14   27 1
    28   14   28 1
    29   14   29 1
    30   15   30 1
    31   15   31 1
    32   15   32 1
    33   16   20 1
    34   16   33 1
    35   16   34 1
    36   19   20 1
    37   21   35 1
    38   21   36 1
