@<TRIPOS>MOLECULE
*****
   36    38     0     0     0
SMALL
NO_CHARGES

@<TRIPOS>ATOM
      1 C1         -2.3740   -4.8086    4.4670 C.ar      1 <0>         0.0000
      2 C2         -1.0146   -4.6594    4.7664 C.ar      1 <0>         0.0000
      3 C3         -3.0765   -3.7451    3.8927 C.ar      1 <0>         0.0000
      4 C4          0.3300    2.6939   -1.1679 C.ar      1 <0>         0.0000
      5 C5         -0.7840    2.8304   -0.3303 C.ar      1 <0>         0.0000
      6 C6         -0.3635   -3.4550    4.4858 C.ar      1 <0>         0.0000
      7 C7         -2.4212   -2.5403    3.6135 C.ar      1 <0>         0.0000
      8 C8          0.9067    1.4380   -1.3669 C.ar      1 <0>         0.0000
      9 C9         -1.3284    1.7213    0.3249 C.ar      1 <0>         0.0000
     10 C10        -1.0588   -2.3811    3.9069 C.ar      1 <0>         0.0000
     11 C11         0.3538    0.3348   -0.7172 C.ar      1 <0>         0.0000
     12 C12        -0.7508    0.4707    0.1319 C.ar      1 <0>         0.0000
     13 C13         0.5138   -1.9882   -0.1318 C.cat     1 <0>         0.0000
     14 C14        -0.3481   -1.6604    1.0688 C.3       1 <0>         0.0000
     15 C15        -0.3309   -1.1045    3.5482 C.3       1 <0>         0.0000
     16 C16         0.5230   -1.2690    2.2730 C.3       1 <0>         0.0000
     17 N1          0.8565   -0.9857   -0.9224 N.pl3     1 <0>         0.0000
     18 N2          0.9170   -3.2403   -0.3282 N.pl3     1 <0>         0.0000
     19 O1         -1.2971   -0.6521    0.7155 O.3       1 <0>         0.0000
     20 H1         -2.8833   -5.7413    4.6927 H         1 <0>         0.0000
     21 H2         -0.4674   -5.4753    5.2310 H         1 <0>         0.0000
     22 H3         -4.1349   -3.8487    3.6698 H         1 <0>         0.0000
     23 H4          0.7489    3.5619   -1.6663 H         1 <0>         0.0000
     24 H5         -1.2302    3.8087   -0.1807 H         1 <0>         0.0000
     25 H6          0.6888   -3.3409    4.7413 H         1 <0>         0.0000
     26 H7         -2.9762   -1.7142    3.1738 H         1 <0>         0.0000
     27 H8          1.7692    1.3207   -2.0187 H         1 <0>         0.0000
     28 H9         -2.1927    1.8111    0.9754 H         1 <0>         0.0000
     29 H10        -0.9516   -2.5355    1.3223 H         1 <0>         0.0000
     30 H11        -1.0421   -0.2869    3.4032 H         1 <0>         0.0000
     31 H12         0.3409   -0.8039    4.3583 H         1 <0>         0.0000
     32 H13         1.0657   -0.3437    2.0506 H         1 <0>         0.0000
     33 H14         1.2693   -2.0559    2.4308 H         1 <0>         0.0000
     34 H15         1.4537   -1.1422   -1.7313 H         1 <0>         0.0000
     35 H16         1.5312   -3.5156   -1.0886 H         1 <0>         0.0000
     36 H17         0.6120   -3.9721    0.3048 H         1 <0>         0.0000
@<TRIPOS>BOND
     1    1    3 ar
     2    1    2 ar
     3    1   20 1
     4    2    6 ar
     5    2   21 1
     6    3    7 ar
     7    3   22 1
     8    4    5 ar
     9    4    8 ar
    10    4   23 1
    11    5    9 ar
    12    5   24 1
    13    6   10 ar
    14    6   25 1
    15    7   10 ar
    16    7   26 1
    17    8   11 ar
    18    8   27 1
    19    9   12 ar
    20    9   28 1
    21   10   15 1
    22   11   12 ar
    23   11   17 1
    24   12   19 1
    25   13   14 1
    26   13   17 2
    27   13   18 1
    28   14   16 1
    29   14   19 1
    30   14   29 1
    31   15   16 1
    32   15   30 1
    33   15   31 1
    34   16   32 1
    35   16   33 1
    36   17   34 1
    37   18   35 1
    38   18   36 1
