@<TRIPOS>MOLECULE
*****
   36    36     0     0     0
SMALL
NO_CHARGES

@<TRIPOS>ATOM
      1 C1         -1.0127   -0.3603    2.1763 C.3       1 <0>         0.0000
      2 C2         -0.4444   -0.6105    0.7574 C.3       1 <0>         0.0000
      3 C3          0.1407   -0.6876    3.1524 C.3       1 <0>         0.0000
      4 C4          0.7090   -1.6041    0.9653 C.3       1 <0>         0.0000
      5 C5          0.2014   -3.0512    1.0791 C.3       1 <0>         0.0000
      6 C6          1.6307   -7.0403    3.2266 C.3       1 <0>         0.0000
      7 C7          2.3870   -8.3310    3.5710 C.3       1 <0>         0.0000
      8 C8          1.2240   -4.1770    1.3007 C.3       1 <0>         0.0000
      9 C9          2.5722   -5.8388    3.2973 C.3       1 <0>         0.0000
     10 C10         1.4936   -9.5521    3.4508 C.3       1 <0>         0.0000
     11 N1          1.3093   -1.0649    2.2570 N.4       1 <0>         0.0000
     12 O1          0.4768   -4.2204    3.8620 O.2       1 <0>         0.0000
     13 O2          2.7094   -3.1724    3.2574 O.2       1 <0>         0.0000
     14 F1          2.1670  -10.6791    3.7542 F         1 <0>         0.0000
     15 F2          0.4245   -9.4716    4.2792 F         1 <0>         0.0000
     16 F3          1.0118   -9.6878    2.1873 F         1 <0>         0.0000
     17 S1          1.7094   -4.2658    3.0590 S.o2      1 <0>         0.0000
     18 H1         -1.3522    0.6702    2.2891 H         1 <0>         0.0000
     19 H2         -1.8672   -1.0076    2.3808 H         1 <0>         0.0000
     20 H3         -1.1939   -0.9997    0.0665 H         1 <0>         0.0000
     21 H4         -0.0562    0.3174    0.3256 H         1 <0>         0.0000
     22 H5          0.4490    0.1458    3.7833 H         1 <0>         0.0000
     23 H6         -0.0641   -1.5509    3.7859 H         1 <0>         0.0000
     24 H7          1.4826   -1.5348    0.1964 H         1 <0>         0.0000
     25 H8         -0.2816   -3.2567    0.1190 H         1 <0>         0.0000
     26 H9         -0.5856   -3.1323    1.8342 H         1 <0>         0.0000
     27 H10         1.2059   -7.1340    2.2227 H         1 <0>         0.0000
     28 H11         0.8026   -6.8967    3.9246 H         1 <0>         0.0000
     29 H12         3.2381   -8.4880    2.9021 H         1 <0>         0.0000
     30 H13         2.7657   -8.3041    4.5966 H         1 <0>         0.0000
     31 H14         0.7619   -5.1356    1.0528 H         1 <0>         0.0000
     32 H15         2.1414   -4.0563    0.7187 H         1 <0>         0.0000
     33 H16         3.0255   -5.7187    4.2871 H         1 <0>         0.0000
     34 H17         3.3740   -5.8624    2.5529 H         1 <0>         0.0000
     35 H18         1.8532   -0.2273    2.0305 H         1 <0>         0.0000
     36 H19         1.9633   -1.7443    2.7212 H         1 <0>         0.0000
@<TRIPOS>BOND
     1    1    2 1
     2    1    3 1
     3    1   18 1
     4    1   19 1
     5    2    4 1
     6    2   20 1
     7    2   21 1
     8    3   11 1
     9    3   22 1
    10    3   23 1
    11    4    5 1
    12    4   11 1
    13    4   24 1
    14    5    8 1
    15    5   25 1
    16    5   26 1
    17    6    7 1
    18    6    9 1
    19    6   27 1
    20    6   28 1
    21    7   10 1
    22    7   29 1
    23    7   30 1
    24    8   17 1
    25    8   31 1
    26    8   32 1
    27    9   17 1
    28    9   33 1
    29    9   34 1
    30   10   14 1
    31   10   15 1
    32   10   16 1
    33   11   35 1
    34   11   36 1
    35   12   17 2
    36   13   17 2
