@<TRIPOS>MOLECULE
*****
   42    42     0     0     0
SMALL
NO_CHARGES

@<TRIPOS>ATOM
      1 C1          1.6030   -1.2279    0.2130 C.3       1 <0>         0.0000
      2 C2          1.5407   -1.6367    1.6898 C.3       1 <0>         0.0000
      3 C3          1.0123   -2.4340   -0.5183 C.3       1 <0>         0.0000
      4 C4          0.1690   -2.3001    1.8392 C.3       1 <0>         0.0000
      5 C5         -0.0009   -3.3106    2.9697 C.3       1 <0>         0.0000
      6 C6          0.1813   -2.6296    4.3338 C.3       1 <0>         0.0000
      7 C7          0.0579   -4.2200   10.8642 C.3       1 <0>         0.0000
      8 C8          0.2633   -3.2091    9.7282 C.3       1 <0>         0.0000
      9 C9          0.2902   -3.5749   12.2350 C.3       1 <0>         0.0000
     10 C10        -0.0334   -3.5953    5.5003 C.3       1 <0>         0.0000
     11 C11         0.0245   -3.8689    8.3674 C.3       1 <0>         0.0000
     12 C12         0.1072   -4.5518   13.3772 C.3       1 <0>         0.0000
     13 N1         -0.0379   -2.9832    0.4594 N.4       1 <0>         0.0000
     14 O1         -0.7545   -1.6198    7.1284 O.2       1 <0>         0.0000
     15 O2          1.7107   -2.2826    7.0128 O.2       1 <0>         0.0000
     16 F1          0.3130   -3.9565   14.5744 F         1 <0>         0.0000
     17 F2          0.9724   -5.5961   13.2918 F         1 <0>         0.0000
     18 F3         -1.1458   -5.0770   13.3976 F         1 <0>         0.0000
     19 S1          0.2859   -2.6594    7.0405 S.o2      1 <0>         0.0000
     20 H1          0.9999   -0.3332    0.0312 H         1 <0>         0.0000
     21 H2          2.6183   -1.0220   -0.1304 H         1 <0>         0.0000
     22 H3          2.3364   -2.3498    1.9339 H         1 <0>         0.0000
     23 H4          1.6367   -0.7855    2.3655 H         1 <0>         0.0000
     24 H5          0.5281   -2.2117   -1.4690 H         1 <0>         0.0000
     25 H6          1.7492   -3.2243   -0.6665 H         1 <0>         0.0000
     26 H7         -0.6097   -1.5345    1.8930 H         1 <0>         0.0000
     27 H8         -0.9973   -3.7670    2.9136 H         1 <0>         0.0000
     28 H9          0.7395   -4.1140    2.8533 H         1 <0>         0.0000
     29 H10        -0.5240   -1.7976    4.4301 H         1 <0>         0.0000
     30 H11         1.1895   -2.2126    4.4087 H         1 <0>         0.0000
     31 H12         0.7454   -5.0635   10.7389 H         1 <0>         0.0000
     32 H13        -0.9587   -4.6254   10.8218 H         1 <0>         0.0000
     33 H14        -0.4247   -2.3660    9.8456 H         1 <0>         0.0000
     34 H15         1.2814   -2.8089    9.7612 H         1 <0>         0.0000
     35 H16         1.3054   -3.1746   12.3136 H         1 <0>         0.0000
     36 H17        -0.4060   -2.7479   12.4029 H         1 <0>         0.0000
     37 H18        -1.0607   -3.9673    5.5457 H         1 <0>         0.0000
     38 H19         0.6690   -4.4333    5.4756 H         1 <0>         0.0000
     39 H20         0.7252   -4.6893    8.1861 H         1 <0>         0.0000
     40 H21        -1.0038   -4.2287    8.2660 H         1 <0>         0.0000
     41 H22        -0.9876   -2.8133    0.1167 H         1 <0>         0.0000
     42 H23         0.0543   -3.9993    0.5542 H         1 <0>         0.0000
@<TRIPOS>BOND
     1    1    2 1
     2    1    3 1
     3    1   20 1
     4    1   21 1
     5    2    4 1
     6    2   22 1
     7    2   23 1
     8    3   13 1
     9    3   24 1
    10    3   25 1
    11    4    5 1
    12    4   13 1
    13    4   26 1
    14    5    6 1
    15    5   27 1
    16    5   28 1
    17    6   10 1
    18    6   29 1
    19    6   30 1
    20    7    8 1
    21    7    9 1
    22    7   31 1
    23    7   32 1
    24    8   11 1
    25    8   33 1
    26    8   34 1
    27    9   12 1
    28    9   35 1
    29    9   36 1
    30   10   19 1
    31   10   37 1
    32   10   38 1
    33   11   19 1
    34   11   39 1
    35   11   40 1
    36   12   16 1
    37   12   17 1
    38   12   18 1
    39   13   41 1
    40   13   42 1
    41   14   19 2
    42   15   19 2
