@<TRIPOS>MOLECULE
*****
   33    35     0     0     0
SMALL
NO_CHARGES

@<TRIPOS>ATOM
      1 C1         -5.2710   -0.0781   -4.3699 C.ar      1 <0>         0.0000
      2 C2         -7.4710   -1.0411   -4.5485 C.ar      1 <0>         0.0000
      3 C3         -4.8635   -1.2245   -3.6788 C.ar      1 <0>         0.0000
      4 C4         -6.5896    0.0093   -4.8045 C.ar      1 <0>         0.0000
      5 C5         -5.8210   -2.2358   -3.4459 C.ar      1 <0>         0.0000
      6 C6         -0.8688    0.5855   -2.4160 C.3       1 <0>         0.0000
      7 C7         -0.2915    0.6667   -3.8159 C.3       1 <0>         0.0000
      8 C8         -5.0231   -3.4238   -1.2759 C.3       1 <0>         0.0000
      9 C9         -6.3964   -3.9613   -1.6224 C.3       1 <0>         0.0000
     10 C10        -1.1761   -0.4925   -3.4300 C.3       1 <0>         0.0000
     11 C11        -5.4701   -3.5104   -2.7237 C.3       1 <0>         0.0000
     12 C12        -4.8657   -4.5836   -3.6191 C.3       1 <0>         0.0000
     13 C13        -3.4353   -1.3301   -3.1763 C.3       1 <0>         0.0000
     14 N1         -7.0877   -2.1338   -3.8821 N.ar      1 <0>         0.0000
     15 N2         -2.5117   -0.5200   -3.9752 N.3       1 <0>         0.0000
     16 Br1        -7.2029    1.5627   -5.7478 Br        1 <0>         0.0000
     17 H1         -4.5568    0.7173   -4.5526 H         1 <0>         0.0000
     18 H2         -8.5047   -1.0002   -4.8852 H         1 <0>         0.0000
     19 H3         -0.2024    0.3448   -1.5930 H         1 <0>         0.0000
     20 H4         -1.6781    1.2681   -2.1750 H         1 <0>         0.0000
     21 H5         -0.7202    1.4046   -4.4868 H         1 <0>         0.0000
     22 H6          0.7696    0.4789   -3.9505 H         1 <0>         0.0000
     23 H7         -4.9728   -2.4426   -0.8118 H         1 <0>         0.0000
     24 H8         -4.2592   -4.1195   -0.9378 H         1 <0>         0.0000
     25 H9         -6.5721   -5.0286   -1.5200 H         1 <0>         0.0000
     26 H10        -7.2592   -3.3392   -1.4083 H         1 <0>         0.0000
     27 H11        -0.6793   -1.4554   -3.2734 H         1 <0>         0.0000
     28 H12        -4.6255   -5.4821   -3.0409 H         1 <0>         0.0000
     29 H13        -3.9441   -4.2404   -4.1032 H         1 <0>         0.0000
     30 H14        -5.5750   -4.8630   -4.4052 H         1 <0>         0.0000
     31 H15        -3.3894   -0.9529   -2.1472 H         1 <0>         0.0000
     32 H16        -3.1353   -2.3854   -3.1215 H         1 <0>         0.0000
     33 H17        -2.4846   -0.8776   -4.9294 H         1 <0>         0.0000
@<TRIPOS>BOND
     1    1    3 ar
     2    1    4 ar
     3    1   17 1
     4    2    4 ar
     5    2   14 ar
     6    2   18 1
     7    3    5 ar
     8    3   13 1
     9    4   16 1
    10    5   11 1
    11    5   14 ar
    12    6    7 1
    13    6   10 1
    14    6   19 1
    15    6   20 1
    16    7   10 1
    17    7   21 1
    18    7   22 1
    19    8    9 1
    20    8   11 1
    21    8   23 1
    22    8   24 1
    23    9   11 1
    24    9   25 1
    25    9   26 1
    26   10   15 1
    27   10   27 1
    28   11   12 1
    29   12   28 1
    30   12   29 1
    31   12   30 1
    32   13   15 1
    33   13   31 1
    34   13   32 1
    35   15   33 1
