@<TRIPOS>MOLECULE
*****
   45    47     0     0     0
SMALL
NO_CHARGES

@<TRIPOS>ATOM
      1 C1         -0.1767   -9.9667    5.2769 C.ar      1 <0>         0.0000
      2 C2          1.0243   -9.2577    5.1674 C.ar      1 <0>         0.0000
      3 C3         -1.2501   -9.6327    4.4444 C.ar      1 <0>         0.0000
      4 C4          1.1496   -8.2262    4.2344 C.ar      1 <0>         0.0000
      5 C5         -1.1231   -8.6005    3.5124 C.ar      1 <0>         0.0000
      6 C6         -0.3762   -6.8774    1.1270 C.ar      1 <0>         0.0000
      7 C7          0.9298   -5.6163    2.6943 C.ar      1 <0>         0.0000
      8 C8         -0.2505   -5.8458    0.1990 C.ar      1 <0>         0.0000
      9 C9          1.0537   -4.5847    1.7593 C.ar      1 <0>         0.0000
     10 C10         0.0786   -7.8800    3.3913 C.ar      1 <0>         0.0000
     11 C11         0.2120   -6.7849    2.4006 C.ar      1 <0>         0.0000
     12 C12         0.4630   -4.6682    0.4898 C.ar      1 <0>         0.0000
     13 C13         3.9147   -4.0561   -1.6318 C.2       1 <0>         0.0000
     14 C14        -0.0555   -0.7693   -1.4914 C.3       1 <0>         0.0000
     15 C15         1.3511   -1.1371   -1.0056 C.3       1 <0>         0.0000
     16 C16        -0.7671   -1.9888   -2.0884 C.3       1 <0>         0.0000
     17 C17         1.3172   -2.3155   -0.0222 C.3       1 <0>         0.0000
     18 C18        -0.7896   -3.1675   -1.1035 C.3       1 <0>         0.0000
     19 C19         0.6135   -3.5751   -0.5772 C.3       1 <0>         0.0000
     20 C20         1.4387   -4.1785   -1.7492 C.3       1 <0>         0.0000
     21 N1          2.7415   -4.6803   -1.3360 N.am      1 <0>         0.0000
     22 O1          4.0319   -3.0462   -2.3183 O.2       1 <0>         0.0000
     23 H1         -0.2750  -10.7698    6.0026 H         1 <0>         0.0000
     24 H2          1.8679   -9.5145    5.8031 H         1 <0>         0.0000
     25 H3         -2.1913  -10.1703    4.5276 H         1 <0>         0.0000
     26 H4          2.0964   -7.7009    4.1405 H         1 <0>         0.0000
     27 H5         -1.9733   -8.3316    2.8913 H         1 <0>         0.0000
     28 H6         -0.9156   -7.7792    0.8493 H         1 <0>         0.0000
     29 H7          1.3784   -5.4954    3.6769 H         1 <0>         0.0000
     30 H8         -0.7138   -5.9731   -0.7755 H         1 <0>         0.0000
     31 H9          1.6161   -3.7022    2.0421 H         1 <0>         0.0000
     32 H10         4.7849   -4.5723   -1.1830 H         1 <0>         0.0000
     33 H11        -0.0058    0.0405   -2.2284 H         1 <0>         0.0000
     34 H12        -0.6448   -0.3902   -0.6444 H         1 <0>         0.0000
     35 H13         1.9985   -1.3775   -1.8554 H         1 <0>         0.0000
     36 H14         1.8140   -0.2777   -0.5069 H         1 <0>         0.0000
     37 H15        -1.7979   -1.7333   -2.3608 H         1 <0>         0.0000
     38 H16        -0.2694   -2.2837   -3.0205 H         1 <0>         0.0000
     39 H17         2.3399   -2.5604    0.2823 H         1 <0>         0.0000
     40 H18         0.7845   -1.9968    0.8829 H         1 <0>         0.0000
     41 H19        -1.4054   -2.8988   -0.2360 H         1 <0>         0.0000
     42 H20        -1.2810   -4.0265   -1.5732 H         1 <0>         0.0000
     43 H21         1.6267   -3.4345   -2.5212 H         1 <0>         0.0000
     44 H22         0.8750   -4.9968   -2.2096 H         1 <0>         0.0000
     45 H23         2.7693   -5.4613   -0.6915 H         1 <0>         0.0000
@<TRIPOS>BOND
     1    1    3 ar
     2    1    2 ar
     3    1   23 1
     4    2    4 ar
     5    2   24 1
     6    3    5 ar
     7    3   25 1
     8    4   10 ar
     9    4   26 1
    10    5   10 ar
    11    5   27 1
    12    6    8 ar
    13    6   11 ar
    14    6   28 1
    15    7    9 ar
    16    7   11 ar
    17    7   29 1
    18    8   12 ar
    19    8   30 1
    20    9   12 ar
    21    9   31 1
    22   10   11 1
    23   12   19 1
    24   13   21 am
    25   13   22 2
    26   13   32 1
    27   14   16 1
    28   14   15 1
    29   14   33 1
    30   14   34 1
    31   15   17 1
    32   15   35 1
    33   15   36 1
    34   16   18 1
    35   16   37 1
    36   16   38 1
    37   17   19 1
    38   17   39 1
    39   17   40 1
    40   18   19 1
    41   18   41 1
    42   18   42 1
    43   19   20 1
    44   20   21 1
    45   20   43 1
    46   20   44 1
    47   21   45 1
