@<TRIPOS>MOLECULE
*****
   24    24     0     0     0
SMALL
NO_CHARGES

@<TRIPOS>ATOM
      1 C1          1.6140   -0.7673   -0.4162 C.ar      1 <0>         0.0000
      2 C2          0.4977   -0.2532    0.2326 C.ar      1 <0>         0.0000
      3 C3          1.5661   -0.6987    2.3735 C.ar      1 <0>         0.0000
      4 C4          2.7349   -1.2500    0.2863 C.ar      1 <0>         0.0000
      5 C5          0.4858   -0.2285    1.6313 C.ar      1 <0>         0.0000
      6 C6          2.6770   -1.2025    1.6922 C.ar      1 <0>         0.0000
      7 C7          3.9208   -1.7425   -0.5868 C.2       1 <0>         0.0000
      8 N1         -1.9673   -1.0143    2.4631 N.pl3     1 <0>         0.0000
      9 N2          5.2268   -0.8307    2.4322 N.pl3     1 <0>         0.0000
     10 O1          5.0768   -1.3822   -0.2105 O.co2     1 <0>         0.0000
     11 O2          3.5820   -2.3801   -1.6033 O.co2     1 <0>         0.0000
     12 O3         -0.5941    0.6973    3.8640 O.2       1 <0>         0.0000
     13 O4         -1.6761    1.3442    1.6439 O.2       1 <0>         0.0000
     14 O5          3.5654   -1.6646    4.1677 O.2       1 <0>         0.0000
     15 O6          4.2396   -3.2716    2.3508 O.2       1 <0>         0.0000
     16 S1         -0.9601    0.3703    2.4791 S.o2      1 <0>         0.0000
     17 S2          3.9676   -1.8868    2.7664 S.o2      1 <0>         0.0000
     18 H1          1.6463   -0.8313   -1.4990 H         1 <0>         0.0000
     19 H2         -0.3550    0.1237   -0.3241 H         1 <0>         0.0000
     20 H3          1.5612   -0.6722    3.4582 H         1 <0>         0.0000
     21 H4         -1.7447   -1.6004    3.2685 H         1 <0>         0.0000
     22 H5         -2.9319   -0.6863    2.5291 H         1 <0>         0.0000
     23 H6          6.0368   -1.1339    2.9769 H         1 <0>         0.0000
     24 H7          5.3987   -0.9324    1.3992 H         1 <0>         0.0000
@<TRIPOS>BOND
     1    1    2 ar
     2    1    4 ar
     3    1   18 1
     4    2    5 ar
     5    2   19 1
     6    3    5 ar
     7    3    6 ar
     8    3   20 1
     9    4    6 ar
    10    4    7 1
    11    5   16 1
    12    6   17 1
    13    7   10 1
    14    7   11 2
    15    8   16 1
    16    8   21 1
    17    8   22 1
    18    9   17 1
    19    9   23 1
    20    9   24 1
    21   12   16 2
    22   13   16 2
    23   14   17 2
    24   15   17 2
