@<TRIPOS>MOLECULE
*****
   20    20     0     0     0
SMALL
NO_CHARGES

@<TRIPOS>ATOM
      1 C1          7.2350   -2.3280   -1.5110 C.ar      1 <0>         0.0000
      2 C2          6.5960   -1.1600   -1.9190 C.ar      1 <0>         0.0000
      3 C3          6.6500   -3.1410   -0.5420 C.ar      1 <0>         0.0000
      4 C4          5.3700   -0.8030   -1.3660 C.ar      1 <0>         0.0000
      5 C5          5.4260   -2.7930    0.0180 C.ar      1 <0>         0.0000
      6 C6          4.7810   -1.6250   -0.4030 C.ar      1 <0>         0.0000
      7 C7          0.8800   -1.4570    0.5410 C.3       1 <0>         0.0000
      8 N1          3.5510   -1.2250    0.1310 N.pl3     1 <0>         0.0000
      9 O1          2.6250   -3.1390    1.4610 O.2       1 <0>         0.0000
     10 O2          2.2680   -3.0900   -0.9240 O.2       1 <0>         0.0000
     11 S1          2.3730   -2.3770    0.2940 S.o2      1 <0>         0.0000
     12 H1          8.1680   -2.5990   -1.9350 H         1 <0>         0.0000
     13 H2          7.0470   -0.5420   -2.6540 H         1 <0>         0.0000
     14 H3          7.1400   -4.0280   -0.2300 H         1 <0>         0.0000
     15 H4          4.8890    0.0870   -1.6760 H         1 <0>         0.0000
     16 H5          4.9930   -3.4090    0.7620 H         1 <0>         0.0000
     17 H6          0.0290   -2.0990    0.7140 H         1 <0>         0.0000
     18 H7          0.6080   -0.8420   -0.3030 H         1 <0>         0.0000
     19 H8          0.9180   -0.8130    1.4060 H         1 <0>         0.0000
     20 H9          3.1350   -0.4610   -0.4000 H         1 <0>         0.0000
@<TRIPOS>BOND
     1    1    2 ar
     2    1    3 ar
     3    1   12 1
     4    2    4 ar
     5    2   13 1
     6    3    5 ar
     7    3   14 1
     8    4    6 ar
     9    4   15 1
    10    5    6 ar
    11    5   16 1
    12    6    8 1
    13    7   11 1
    14    7   17 1
    15    7   18 1
    16    7   19 1
    17    8   11 1
    18    8   20 1
    19    9   11 2
    20   10   11 2
