@<TRIPOS>MOLECULE
*****
   47    49     0     0     0
SMALL
NO_CHARGES

@<TRIPOS>ATOM
      1 C1          2.2105    0.7574   -4.4043 C.ar      1 <0>         0.0000
      2 C2          1.6242    0.1864   -3.2759 C.ar      1 <0>         0.0000
      3 C3          1.4575    2.3781   -2.1928 C.ar      1 <0>         0.0000
      4 C4          2.3993    2.1392   -4.4101 C.ar      1 <0>         0.0000
      5 C5          2.0302    2.9351   -3.3305 C.ar      1 <0>         0.0000
      6 C6          1.2521    0.9938   -2.1880 C.ar      1 <0>         0.0000
      7 C7          2.9837    3.0052   -5.4608 C.2       1 <0>         0.0000
      8 C8          1.2779   -0.6821   -0.3611 C.2       1 <0>         0.0000
      9 C9         -0.5688    0.7222   -0.4567 C.2       1 <0>         0.0000
     10 C10         2.3672    4.3620   -3.6717 C.3       1 <0>         0.0000
     11 C11         0.3437   -1.0608    0.7883 C.3       1 <0>         0.0000
     12 C12         1.0743   -0.8979    2.1284 C.3       1 <0>         0.0000
     13 C13        -0.1416   -2.5056    0.5822 C.3       1 <0>         0.0000
     14 C14        -3.1232    1.2546    3.3365 C.3       1 <0>         0.0000
     15 C15        -1.8312    1.1050    2.5226 C.3       1 <0>         0.0000
     16 C16        -3.4626    0.0332    4.2008 C.3       1 <0>         0.0000
     17 C17        -1.9127   -0.0229    1.4852 C.3       1 <0>         0.0000
     18 C18        -4.6761    0.2677    5.0890 C.3       1 <0>         0.0000
     19 N1          0.6735    0.3711   -1.0415 N.am      1 <0>         0.0000
     20 N2         -0.7413   -0.0849    0.6158 N.pl3     1 <0>         0.0000
     21 O1          3.4297    2.7161   -6.5461 O.2       1 <0>         0.0000
     22 O2          2.3409   -1.2081   -0.6294 O.2       1 <0>         0.0000
     23 O3          2.9497    4.3034   -4.9915 O.3       1 <0>         0.0000
     24 O4         -4.9160   -0.9313    5.8353 O.3       1 <0>         0.0000
     25 S1         -1.6123    1.8850   -1.0204 S.2       1 <0>         0.0000
     26 H1          2.5082    0.1539   -5.2564 H         1 <0>         0.0000
     27 H2          1.4566   -0.8837   -3.2226 H         1 <0>         0.0000
     28 H3          1.1620    2.9785   -1.3396 H         1 <0>         0.0000
     29 H4          1.4844    5.0082   -3.7134 H         1 <0>         0.0000
     30 H5          3.1019    4.8054   -2.9919 H         1 <0>         0.0000
     31 H6          0.4194   -1.1803    2.9577 H         1 <0>         0.0000
     32 H7          1.3991    0.1358    2.2744 H         1 <0>         0.0000
     33 H8          1.9536   -1.5467    2.1407 H         1 <0>         0.0000
     34 H9         -0.7856   -2.8210    1.4078 H         1 <0>         0.0000
     35 H10         0.7230   -3.1726    0.5435 H         1 <0>         0.0000
     36 H11        -0.7008   -2.5990   -0.3531 H         1 <0>         0.0000
     37 H12        -3.0223    2.1367    3.9812 H         1 <0>         0.0000
     38 H13        -3.9550    1.4695    2.6527 H         1 <0>         0.0000
     39 H14        -0.9859    0.9222    3.1964 H         1 <0>         0.0000
     40 H15        -1.6274    2.0391    1.9912 H         1 <0>         0.0000
     41 H16        -3.6681   -0.8436    3.5762 H         1 <0>         0.0000
     42 H17        -2.6082   -0.2243    4.8396 H         1 <0>         0.0000
     43 H18        -2.0067   -0.9957    1.9716 H         1 <0>         0.0000
     44 H19        -2.7939    0.1193    0.8528 H         1 <0>         0.0000
     45 H20        -5.5495    0.5216    4.4690 H         1 <0>         0.0000
     46 H21        -4.4867    1.1155    5.7651 H         1 <0>         0.0000
     47 H22        -5.6905   -0.7892    6.4009 H         1 <0>         0.0000
@<TRIPOS>BOND
     1    1    2 ar
     2    1    4 ar
     3    1   26 1
     4    2    6 ar
     5    2   27 1
     6    3    5 ar
     7    3    6 ar
     8    3   28 1
     9    4    5 ar
    10    4    7 1
    11    5   10 1
    12    6   19 1
    13    7   21 2
    14    7   23 1
    15    8   11 1
    16    8   19 am
    17    8   22 2
    18    9   19 1
    19    9   20 1
    20    9   25 2
    21   10   23 1
    22   10   29 1
    23   10   30 1
    24   11   12 1
    25   11   13 1
    26   11   20 1
    27   12   31 1
    28   12   32 1
    29   12   33 1
    30   13   34 1
    31   13   35 1
    32   13   36 1
    33   14   15 1
    34   14   16 1
    35   14   37 1
    36   14   38 1
    37   15   17 1
    38   15   39 1
    39   15   40 1
    40   16   18 1
    41   16   41 1
    42   16   42 1
    43   17   20 1
    44   17   43 1
    45   17   44 1
    46   18   24 1
    47   18   45 1
    48   18   46 1
    49   24   47 1
