@<TRIPOS>MOLECULE
*****
   42    42     0     0     0
SMALL
NO_CHARGES

@<TRIPOS>ATOM
      1 C1          1.0610   -1.4391    0.4487 C.1       1 <0>         0.0000
      2 C2          3.2838    3.3261    0.8307 C.ar      1 <0>         0.0000
      3 C3          1.9495    3.6426    0.5800 C.ar      1 <0>         0.0000
      4 C4          3.5995    2.2472    1.6607 C.ar      1 <0>         0.0000
      5 C5          0.9065    2.9066    1.1646 C.ar      1 <0>         0.0000
      6 C6          2.5891    1.4836    2.2544 C.ar      1 <0>         0.0000
      7 C7          1.2434    1.8412    2.0196 C.ar      1 <0>         0.0000
      8 C8          1.8060   -2.5042    0.2689 C.2       1 <0>         0.0000
      9 C9          0.3186   -0.3758    0.6475 C.2       1 <0>         0.0000
     10 C10        -0.0546    1.1608    3.9980 C.2       1 <0>         0.0000
     11 C11        -0.5260    3.2560    0.8422 C.3       1 <0>         0.0000
     12 C12         2.9364    0.2961    3.1199 C.3       1 <0>         0.0000
     13 C13        -1.9077    0.1104    1.7136 C.3       1 <0>         0.0000
     14 C14         0.6515    5.0605    4.0357 C.3       1 <0>         0.0000
     15 C15         0.5948    2.2968    4.7839 C.3       1 <0>         0.0000
     16 C16        -0.4055   -0.0980    1.9471 C.3       1 <0>         0.0000
     17 N1          0.2096    1.0690    2.6549 N.am      1 <0>         0.0000
     18 O1         -0.7897    0.3716    4.5867 O.2       1 <0>         0.0000
     19 O2         -1.5882    3.6342    3.8973 O.2       1 <0>         0.0000
     20 O3         -0.6339    4.2193    6.1953 O.2       1 <0>         0.0000
     21 S1         -0.4361    3.8282    4.7922 S.o2      1 <0>         0.0000
     22 H1          4.0774    3.9113    0.3734 H         1 <0>         0.0000
     23 H2          1.7041    4.4738   -0.0767 H         1 <0>         0.0000
     24 H3          4.6398    1.9872    1.8403 H         1 <0>         0.0000
     25 H4          1.3809   -3.4412   -0.0866 H         1 <0>         0.0000
     26 H5          2.8768   -2.4813    0.4650 H         1 <0>         0.0000
     27 H6          0.1726    0.3279   -0.1723 H         1 <0>         0.0000
     28 H7         -0.8890    2.6465    0.0060 H         1 <0>         0.0000
     29 H8         -1.1892    3.0962    1.6921 H         1 <0>         0.0000
     30 H9         -0.6062    4.3023    0.5341 H         1 <0>         0.0000
     31 H10         2.6704    0.4541    4.1711 H         1 <0>         0.0000
     32 H11         2.4041   -0.6006    2.7908 H         1 <0>         0.0000
     33 H12         4.0091    0.0914    3.0802 H         1 <0>         0.0000
     34 H13        -2.0920    0.9041    0.9865 H         1 <0>         0.0000
     35 H14        -2.3428   -0.8168    1.3276 H         1 <0>         0.0000
     36 H15        -2.4043    0.3671    2.6505 H         1 <0>         0.0000
     37 H16         0.0590    5.9751    3.9698 H         1 <0>         0.0000
     38 H17         1.5135    5.2135    4.6871 H         1 <0>         0.0000
     39 H18         0.9536    4.7227    3.0444 H         1 <0>         0.0000
     40 H19         1.5825    2.5870    4.4271 H         1 <0>         0.0000
     41 H20         0.6414    1.9943    5.8298 H         1 <0>         0.0000
     42 H21        -0.2786   -0.9549    2.6127 H         1 <0>         0.0000
@<TRIPOS>BOND
     1    1    8 2
     2    1    9 2
     3    2    4 ar
     4    2    3 ar
     5    2   22 1
     6    3    5 ar
     7    3   23 1
     8    4    6 ar
     9    4   24 1
    10    5    7 ar
    11    5   11 1
    12    6    7 ar
    13    6   12 1
    14    7   17 1
    15    8   25 1
    16    8   26 1
    17    9   16 1
    18    9   27 1
    19   10   15 1
    20   10   17 am
    21   10   18 2
    22   11   28 1
    23   11   29 1
    24   11   30 1
    25   12   31 1
    26   12   32 1
    27   12   33 1
    28   13   16 1
    29   13   34 1
    30   13   35 1
    31   13   36 1
    32   14   21 1
    33   14   37 1
    34   14   38 1
    35   14   39 1
    36   15   21 1
    37   15   40 1
    38   15   41 1
    39   16   17 1
    40   16   42 1
    41   19   21 2
    42   20   21 2
