@<TRIPOS>MOLECULE
*****
   27    27     0     0     0
SMALL
NO_CHARGES

@<TRIPOS>ATOM
      1 C1         -1.6193   -0.3827   -1.2583 C.2       1 <0>         0.0000
      2 C2          1.3822   -1.1146    0.2918 C.3       1 <0>         0.0000
      3 C3         -0.0812   -1.5287    0.3418 C.3       1 <0>         0.0000
      4 C4          1.3332    0.3733    0.5787 C.3       1 <0>         0.0000
      5 C5         -0.8603   -0.2526    0.0227 C.3       1 <0>         0.0000
      6 C6         -3.8918    0.9931   -3.0352 C.3       1 <0>         0.0000
      7 C7         -0.3072    2.1167    0.2029 C.3       1 <0>         0.0000
      8 C8         -3.9011   -0.2677   -2.2395 C.3       1 <0>         0.0000
      9 N1          0.1527    0.7885   -0.1797 N.3       1 <0>         0.0000
     10 N2         -2.9812   -0.1893   -1.1274 N.am      1 <0>         0.0000
     11 O1         -1.0168   -0.6385   -2.2942 O.2       1 <0>         0.0000
     12 H1          1.9929   -1.6623    1.0155 H         1 <0>         0.0000
     13 H2          1.7897   -1.2993   -0.7099 H         1 <0>         0.0000
     14 H3         -0.2809   -2.3608   -0.3413 H         1 <0>         0.0000
     15 H4         -0.3257   -1.8615    1.3580 H         1 <0>         0.0000
     16 H5          1.2102    0.5470    1.6554 H         1 <0>         0.0000
     17 H6          2.2408    0.8807    0.2377 H         1 <0>         0.0000
     18 H7         -1.5609   -0.0239    0.8343 H         1 <0>         0.0000
     19 H8         -4.1915    1.8469   -2.4179 H         1 <0>         0.0000
     20 H9         -2.8978    1.1823   -3.4550 H         1 <0>         0.0000
     21 H10        -4.6012    0.9122   -3.8674 H         1 <0>         0.0000
     22 H11        -1.1880    2.3925   -0.3827 H         1 <0>         0.0000
     23 H12         0.4793    2.8550    0.0245 H         1 <0>         0.0000
     24 H13        -0.5704    2.1345    1.2640 H         1 <0>         0.0000
     25 H14        -3.6008   -1.1160   -2.8619 H         1 <0>         0.0000
     26 H15        -4.8981   -0.4633   -1.8342 H         1 <0>         0.0000
     27 H16        -3.3538    0.0179   -0.2056 H         1 <0>         0.0000
@<TRIPOS>BOND
     1    1    5 1
     2    1   10 am
     3    1   11 2
     4    2    3 1
     5    2    4 1
     6    2   12 1
     7    2   13 1
     8    3    5 1
     9    3   14 1
    10    3   15 1
    11    4    9 1
    12    4   16 1
    13    4   17 1
    14    5    9 1
    15    5   18 1
    16    6    8 1
    17    6   19 1
    18    6   20 1
    19    6   21 1
    20    7    9 1
    21    7   22 1
    22    7   23 1
    23    7   24 1
    24    8   10 1
    25    8   25 1
    26    8   26 1
    27   10   27 1
