@<TRIPOS>MOLECULE
*****
   27    28     0     0     0
SMALL
NO_CHARGES

@<TRIPOS>ATOM
      1 C1         -2.1039   -0.0413    9.5325 C.ar      1 <0>         0.0000
      2 C2         -3.2053   -0.4974    7.2124 C.2       1 <0>         0.0000
      3 C3         -1.7645   -2.0698   10.8236 C.ar      1 <0>         0.0000
      4 C4         -2.6653   -0.8076    8.4918 C.ar      1 <0>         0.0000
      5 C5         -2.3178   -2.8506    9.8047 C.ar      1 <0>         0.0000
      6 C6         -2.7591   -2.1918    8.6516 C.ar      1 <0>         0.0000
      7 C7         -1.6582   -0.6867   10.6917 C.ar      1 <0>         0.0000
      8 C8         -3.6087   -1.6773    6.6309 C.2       1 <0>         0.0000
      9 C9         -2.4173   -4.3296    9.9794 C.3       1 <0>         0.0000
     10 C10        -3.9657   -2.7672    3.0827 C.3       1 <0>         0.0000
     11 C11        -4.2320   -1.9421    5.3209 C.3       1 <0>         0.0000
     12 N1         -3.3357   -2.6936    7.5066 N.pl3     1 <0>         0.0000
     13 N2         -3.3094   -2.5103    4.3613 N.3       1 <0>         0.0000
     14 Br1        -0.9026    0.3339   12.0948 Br        1 <0>         0.0000
     15 H1         -2.0227    1.0372    9.4268 H         1 <0>         0.0000
     16 H2         -3.2889    0.4849    6.7669 H         1 <0>         0.0000
     17 H3         -1.4134   -2.5578   11.7312 H         1 <0>         0.0000
     18 H4         -3.3744   -4.5946   10.4440 H         1 <0>         0.0000
     19 H5         -2.3412   -4.8495    9.0161 H         1 <0>         0.0000
     20 H6         -1.6051   -4.7104   10.6118 H         1 <0>         0.0000
     21 H7         -4.8033   -3.4556    3.2220 H         1 <0>         0.0000
     22 H8         -3.2584   -3.2117    2.3773 H         1 <0>         0.0000
     23 H9         -4.3443   -1.8336    2.6579 H         1 <0>         0.0000
     24 H10        -5.0796   -2.6467    5.4019 H         1 <0>         0.0000
     25 H11        -4.6425   -1.0263    4.8586 H         1 <0>         0.0000
     26 H12        -3.5293   -3.6716    7.3393 H         1 <0>         0.0000
     27 H13        -2.5306   -1.8654    4.2079 H         1 <0>         0.0000
@<TRIPOS>BOND
     1    1    4 ar
     2    1    7 ar
     3    1   15 1
     4    2    4 1
     5    2    8 2
     6    2   16 1
     7    3    5 ar
     8    3    7 ar
     9    3   17 1
    10    4    6 ar
    11    5    6 ar
    12    5    9 1
    13    6   12 1
    14    7   14 1
    15    8   11 1
    16    8   12 1
    17    9   18 1
    18    9   19 1
    19    9   20 1
    20   10   13 1
    21   10   21 1
    22   10   22 1
    23   10   23 1
    24   11   13 1
    25   11   24 1
    26   11   25 1
    27   12   26 1
    28   13   27 1
