@<TRIPOS>MOLECULE
*****
   23    24     0     0     0
SMALL
NO_CHARGES

@<TRIPOS>ATOM
      1 C1          3.1748    4.5028    1.5214 C.ar      1 <0>         0.0000
      2 C2          3.6256    3.1805    1.5177 C.ar      1 <0>         0.0000
      3 C3          1.8124    4.8024    1.5898 C.ar      1 <0>         0.0000
      4 C4          1.3228    2.4241    1.6478 C.ar      1 <0>         0.0000
      5 C5          2.6972    2.1430    1.5890 C.ar      1 <0>         0.0000
      6 C6          0.8897    3.7588    1.6473 C.ar      1 <0>         0.0000
      7 C7          0.0763    0.5492    0.7365 C.cat     1 <0>         0.0000
      8 C8         -0.9064   -1.0700   -0.5834 C.3       1 <0>         0.0000
      9 C9          0.2603   -0.3818   -1.3170 C.3       1 <0>         0.0000
     10 N1         -0.7257   -0.5155    0.7718 N.pl3     1 <0>         0.0000
     11 N2          0.3599    1.3655    1.7418 N.pl3     1 <0>         0.0000
     12 O1          0.6172    0.7521   -0.4440 O.3       1 <0>         0.0000
     13 Cl1         3.2493    0.4875    1.6097 Cl        1 <0>         0.0000
     14 Cl2        -0.8184    4.1041    1.7230 Cl        1 <0>         0.0000
     15 H1          3.8970    5.3120    1.4725 H         1 <0>         0.0000
     16 H2          4.6849    2.9522    1.4700 H         1 <0>         0.0000
     17 H3          1.4650    5.8299    1.5935 H         1 <0>         0.0000
     18 H4         -1.8846   -0.7917   -0.9842 H         1 <0>         0.0000
     19 H5         -0.8071   -2.1561   -0.5736 H         1 <0>         0.0000
     20 H6          1.1500   -1.0077   -1.3936 H         1 <0>         0.0000
     21 H7         -0.0028    0.0358   -2.2864 H         1 <0>         0.0000
     22 H8         -1.2866   -0.7795    1.5734 H         1 <0>         0.0000
     23 H9         -0.1559    1.2574    2.6104 H         1 <0>         0.0000
@<TRIPOS>BOND
     1    1    3 ar
     2    1    2 ar
     3    1   15 1
     4    2    5 ar
     5    2   16 1
     6    3    6 ar
     7    3   17 1
     8    4    6 ar
     9    4    5 ar
    10    4   11 1
    11    5   13 1
    12    6   14 1
    13    7   10 1
    14    7   11 2
    15    7   12 1
    16    8    9 1
    17    8   10 1
    18    8   18 1
    19    8   19 1
    20    9   12 1
    21    9   20 1
    22    9   21 1
    23   10   22 1
    24   11   23 1
