@<TRIPOS>MOLECULE
*****
   35    36     0     0     0
SMALL
NO_CHARGES

@<TRIPOS>ATOM
      1 C1          8.1326    0.3292   -3.1268 C.2       1 <0>         0.0000
      2 C2          6.8915    0.8590   -1.1872 C.2       1 <0>         0.0000
      3 C3          9.0412   -0.1894   -4.2156 C.2       1 <0>         0.0000
      4 C4         11.3623   -2.3191   -5.1173 C.3       1 <0>         0.0000
      5 C5         12.4306   -1.7564   -4.2037 C.3       1 <0>         0.0000
      6 C6         11.3358   -0.8618   -4.7339 C.3       1 <0>         0.0000
      7 C7          0.2539   -1.6601    1.9748 C.3       1 <0>         0.0000
      8 C8          1.5468   -0.8872    2.2567 C.3       1 <0>         0.0000
      9 C9          2.4410   -0.7525    1.0182 C.3       1 <0>         0.0000
     10 C10         3.7373    0.0189    1.3026 C.3       1 <0>         0.0000
     11 C11         4.6078    0.1363    0.0544 C.3       1 <0>         0.0000
     12 N1          7.1929    1.2091   -3.3588 N.2       1 <0>         0.0000
     13 N2          6.4824    1.5213   -2.2291 N.2       1 <0>         0.0000
     14 N3         10.3306   -0.4196   -3.8028 N.am      1 <0>         0.0000
     15 O1          8.6270   -0.4113   -5.3424 O.2       1 <0>         0.0000
     16 O2          6.9981    0.0788    1.3448 O.2       1 <0>         0.0000
     17 S1          8.2256   -0.2242   -1.4652 S.3       1 <0>         0.0000
     18 S2          6.1789    1.0167    0.4785 S.o       1 <0>         0.0000
     19 H1         11.6223   -2.5587   -6.1431 H         1 <0>         0.0000
     20 H2         10.6030   -2.9546   -4.6743 H         1 <0>         0.0000
     21 H3         12.3875   -2.0320   -3.1538 H         1 <0>         0.0000
     22 H4         13.4322   -1.6098   -4.5956 H         1 <0>         0.0000
     23 H5         11.5923   -0.1406   -5.5067 H         1 <0>         0.0000
     24 H6         -0.3445   -1.1626    1.2030 H         1 <0>         0.0000
     25 H7          0.4690   -2.6759    1.6239 H         1 <0>         0.0000
     26 H8         -0.3646   -1.7424    2.8748 H         1 <0>         0.0000
     27 H9          2.1091   -1.3889    3.0546 H         1 <0>         0.0000
     28 H10         1.3016    0.1131    2.6365 H         1 <0>         0.0000
     29 H11         1.8817   -0.2500    0.2177 H         1 <0>         0.0000
     30 H12         2.6898   -1.7527    0.6395 H         1 <0>         0.0000
     31 H13         4.3043   -0.4900    2.0898 H         1 <0>         0.0000
     32 H14         3.4931    1.0206    1.6783 H         1 <0>         0.0000
     33 H15         4.1347    0.7213   -0.7406 H         1 <0>         0.0000
     34 H16         4.8994   -0.8441   -0.3348 H         1 <0>         0.0000
     35 H17        10.6462    0.0305   -2.9514 H         1 <0>         0.0000
@<TRIPOS>BOND
     1    1    3 1
     2    1   12 2
     3    1   17 1
     4    2   13 2
     5    2   17 1
     6    2   18 1
     7    3   14 am
     8    3   15 2
     9    4    5 1
    10    4    6 1
    11    4   19 1
    12    4   20 1
    13    5    6 1
    14    5   21 1
    15    5   22 1
    16    6   14 1
    17    6   23 1
    18    7    8 1
    19    7   24 1
    20    7   25 1
    21    7   26 1
    22    8    9 1
    23    8   27 1
    24    8   28 1
    25    9   10 1
    26    9   29 1
    27    9   30 1
    28   10   11 1
    29   10   31 1
    30   10   32 1
    31   11   18 1
    32   11   33 1
    33   11   34 1
    34   12   13 1
    35   14   35 1
    36   16   18 2
