@<TRIPOS>MOLECULE
*****
   39    40     0     0     0
SMALL
NO_CHARGES

@<TRIPOS>ATOM
      1 C1          6.6534   -3.0150   -8.5341 C.ar      1 <0>         0.0000
      2 C2          5.6138   -2.0992   -8.7238 C.ar      1 <0>         0.0000
      3 C3          6.6050   -3.8848   -7.4360 C.ar      1 <0>         0.0000
      4 C4          4.5475   -2.0559   -7.8177 C.ar      1 <0>         0.0000
      5 C5          5.5364   -3.8450   -6.5382 C.ar      1 <0>         0.0000
      6 C6          4.4913   -2.9199   -6.7128 C.ar      1 <0>         0.0000
      7 C7          2.4134   -4.2392   -5.7346 C.2       1 <0>         0.0000
      8 C8          3.6954   -2.5994   -4.3519 C.2       1 <0>         0.0000
      9 C9          0.2183   -4.0832    0.1437 C.3       1 <0>         0.0000
     10 C10         0.3226   -2.5817    0.4504 C.3       1 <0>         0.0000
     11 C11         0.2492   -4.3428   -1.3693 C.3       1 <0>         0.0000
     12 C12         1.5611   -1.9594   -0.2118 C.3       1 <0>         0.0000
     13 C13         1.4845   -3.7216   -2.0337 C.3       1 <0>         0.0000
     14 C14         1.5904   -2.2194   -1.7275 C.3       1 <0>         0.0000
     15 C15         2.8434   -1.5946   -2.3412 C.3       1 <0>         0.0000
     16 C16         3.3190   -2.8553   -5.7788 C.3       1 <0>         0.0000
     17 O1          3.0251   -5.2862   -6.0111 O.co2     1 <0>         0.0000
     18 O2          1.2258   -4.0174   -5.4036 O.co2     1 <0>         0.0000
     19 O3          4.6190   -3.1079   -3.7347 O.2       1 <0>         0.0000
     20 O4          2.8158   -1.7194   -3.7732 O.3       1 <0>         0.0000
     21 H1          7.4870   -3.0547   -9.2332 H         1 <0>         0.0000
     22 H2          5.6311   -1.4188   -9.5736 H         1 <0>         0.0000
     23 H3          7.4047   -4.6080   -7.2847 H         1 <0>         0.0000
     24 H4          3.7407   -1.3410   -7.9711 H         1 <0>         0.0000
     25 H5          5.4870   -4.5307   -5.7025 H         1 <0>         0.0000
     26 H6         -0.6959   -4.4971    0.5903 H         1 <0>         0.0000
     27 H7          1.0638   -4.6039    0.6164 H         1 <0>         0.0000
     28 H8         -0.5775   -2.0753    0.0733 H         1 <0>         0.0000
     29 H9          0.3480   -2.4119    1.5352 H         1 <0>         0.0000
     30 H10         0.2226   -5.4194   -1.5737 H         1 <0>         0.0000
     31 H11        -0.6549   -3.9187   -1.8284 H         1 <0>         0.0000
     32 H12         1.5935   -0.8798   -0.0088 H         1 <0>         0.0000
     33 H13         2.4653   -2.3912    0.2426 H         1 <0>         0.0000
     34 H14         2.3910   -4.2248   -1.6669 H         1 <0>         0.0000
     35 H15         1.4376   -3.8805   -3.1145 H         1 <0>         0.0000
     36 H16         0.7193   -1.7220   -2.1791 H         1 <0>         0.0000
     37 H17         3.7507   -2.0645   -1.9524 H         1 <0>         0.0000
     38 H18         2.8806   -0.5196   -2.1268 H         1 <0>         0.0000
     39 H19         2.6248   -2.0746   -6.0893 H         1 <0>         0.0000
@<TRIPOS>BOND
     1    1    3 ar
     2    1    2 ar
     3    1   21 1
     4    2    4 ar
     5    2   22 1
     6    3    5 ar
     7    3   23 1
     8    4    6 ar
     9    4   24 1
    10    5    6 ar
    11    5   25 1
    12    6   16 1
    13    7   16 1
    14    7   17 1
    15    7   18 2
    16    8   16 1
    17    8   19 2
    18    8   20 1
    19    9   11 1
    20    9   10 1
    21    9   26 1
    22    9   27 1
    23   10   12 1
    24   10   28 1
    25   10   29 1
    26   11   13 1
    27   11   30 1
    28   11   31 1
    29   12   14 1
    30   12   32 1
    31   12   33 1
    32   13   14 1
    33   13   34 1
    34   13   35 1
    35   14   15 1
    36   14   36 1
    37   15   20 1
    38   15   37 1
    39   15   38 1
    40   16   39 1
