@<TRIPOS>MOLECULE
*****
   69    71     0     0     0
SMALL
NO_CHARGES

@<TRIPOS>ATOM
      1 C1         -8.9019   -4.6036   -3.7039 C.1       1 <0>         0.0000
      2 C2         -7.1682   -3.5690   -2.3397 C.ar      1 <0>         0.0000
      3 C3         -6.4749   -3.4239   -1.1414 C.ar      1 <0>         0.0000
      4 C4         -7.8901   -5.1128   -0.1242 C.ar      1 <0>         0.0000
      5 C5         -8.2258   -4.4874   -2.4412 C.ar      1 <0>         0.0000
      6 C6         -8.5884   -5.2590   -1.3189 C.ar      1 <0>         0.0000
      7 C7         -6.8342   -4.2046   -0.0438 C.ar      1 <0>         0.0000
      8 C8         -6.7500   -3.5951    2.3686 C.2       1 <0>         0.0000
      9 C9         -4.8002   -4.4040    1.4153 C.2       1 <0>         0.0000
     10 C10         1.7553   -5.7195   -3.8254 C.2       1 <0>         0.0000
     11 C11         0.6933   -6.3832   -1.6109 C.3       1 <0>         0.0000
     12 C12         2.2804   -4.5424   -1.7322 C.3       1 <0>         0.0000
     13 C13        -0.2765   -5.5251   -0.7995 C.3       1 <0>         0.0000
     14 C14         1.3493   -3.6432   -0.9293 C.3       1 <0>         0.0000
     15 C15        -5.6788   -3.6248    3.4607 C.3       1 <0>         0.0000
     16 C16        -6.1190   -4.5897    4.5722 C.3       1 <0>         0.0000
     17 C17        -5.4337   -2.2062    3.9917 C.3       1 <0>         0.0000
     18 C18         0.5931   -8.0936   -6.6913 C.3       1 <0>         0.0000
     19 C19         1.0130   -6.8508   -4.5208 C.3       1 <0>         0.0000
     20 C20         1.3461   -6.9453   -6.0132 C.3       1 <0>         0.0000
     21 C21        -2.0671   -3.5335    2.7771 C.3       1 <0>         0.0000
     22 C22        -0.9562   -4.3487    2.0759 C.3       1 <0>         0.0000
     23 C23        -3.2221   -4.4141    3.3246 C.3       1 <0>         0.0000
     24 C24        -0.4427   -3.6130    0.8433 C.3       1 <0>         0.0000
     25 C25        -9.7266   -6.2565   -1.4067 C.3       1 <0>         0.0000
     26 N1         -9.4116   -4.6648   -4.7484 N.1       1 <0>         0.0000
     27 N2         -6.1398   -4.0623    1.1967 N.am      1 <0>         0.0000
     28 N3         -4.5142   -4.1370    2.7072 N.pl3     1 <0>         0.0000
     29 N4          1.5224   -5.5471   -2.4549 N.am      1 <0>         0.0000
     30 N5          0.4776   -4.4741   -0.0054 N.4       1 <0>         0.0000
     31 O1         -7.9019   -3.2435    2.4843 O.2       1 <0>         0.0000
     32 O2          2.5226   -4.9662   -4.4077 O.2       1 <0>         0.0000
     33 F1         -9.9121   -6.8979   -0.2305 F         1 <0>         0.0000
     34 F2        -10.8886   -5.6517   -1.7284 F         1 <0>         0.0000
     35 F3         -9.4795   -7.1976   -2.3452 F         1 <0>         0.0000
     36 S1         -3.7807   -5.0463    0.2554 S.2       1 <0>         0.0000
     37 H1         -6.9029   -2.9705   -3.2047 H         1 <0>         0.0000
     38 H2         -5.6596   -2.7132   -1.0594 H         1 <0>         0.0000
     39 H3         -8.1664   -5.7028    0.7415 H         1 <0>         0.0000
     40 H4          1.3136   -6.9909   -0.9324 H         1 <0>         0.0000
     41 H5          0.1005   -7.0756   -2.2061 H         1 <0>         0.0000
     42 H6          2.8326   -3.9412   -2.4562 H         1 <0>         0.0000
     43 H7          3.0146   -5.0181   -1.0629 H         1 <0>         0.0000
     44 H8         -0.9612   -4.9800   -1.4512 H         1 <0>         0.0000
     45 H9         -0.8584   -6.1237   -0.0997 H         1 <0>         0.0000
     46 H10         1.9081   -2.9430   -0.3046 H         1 <0>         0.0000
     47 H11         0.6703   -3.0883   -1.5799 H         1 <0>         0.0000
     48 H12        -5.3914   -4.6053    5.3884 H         1 <0>         0.0000
     49 H13        -6.2381   -5.6063    4.1869 H         1 <0>         0.0000
     50 H14        -7.0779   -4.2549    4.9746 H         1 <0>         0.0000
     51 H15        -4.6647   -2.2146    4.7699 H         1 <0>         0.0000
     52 H16        -6.3580   -1.8175    4.4251 H         1 <0>         0.0000
     53 H17        -5.1164   -1.5341    3.1894 H         1 <0>         0.0000
     54 H18        -0.4927   -7.9652   -6.6124 H         1 <0>         0.0000
     55 H19         0.8485   -9.0613   -6.2443 H         1 <0>         0.0000
     56 H20         0.8426   -8.1454   -7.7549 H         1 <0>         0.0000
     57 H21        -0.0683   -6.7072   -4.3903 H         1 <0>         0.0000
     58 H22         1.2572   -7.7991   -4.0235 H         1 <0>         0.0000
     59 H23         2.4258   -7.0766   -6.1299 H         1 <0>         0.0000
     60 H24         1.1034   -5.9936   -6.4950 H         1 <0>         0.0000
     61 H25        -2.4984   -2.8154    2.0752 H         1 <0>         0.0000
     62 H26        -1.6358   -2.9439    3.5909 H         1 <0>         0.0000
     63 H27        -0.1283   -4.5461    2.7680 H         1 <0>         0.0000
     64 H28        -1.3768   -5.3081    1.7722 H         1 <0>         0.0000
     65 H29        -3.3478   -4.2509    4.3949 H         1 <0>         0.0000
     66 H30        -2.9931   -5.4758    3.1884 H         1 <0>         0.0000
     67 H31         0.1272   -2.7211    1.1143 H         1 <0>         0.0000
     68 H32        -1.2711   -3.3239    0.1938 H         1 <0>         0.0000
     69 H33         1.1085   -4.9706    0.6350 H         1 <0>         0.0000
@<TRIPOS>BOND
     1    1    5 1
     2    1   26 3
     3    2    3 ar
     4    2    5 ar
     5    2   37 1
     6    3    7 ar
     7    3   38 1
     8    4    6 ar
     9    4    7 ar
    10    4   39 1
    11    5    6 ar
    12    6   25 1
    13    7   27 1
    14    8   15 1
    15    8   27 am
    16    8   31 2
    17    9   27 1
    18    9   28 1
    19    9   36 2
    20   10   19 1
    21   10   29 am
    22   10   32 2
    23   11   13 1
    24   11   29 1
    25   11   40 1
    26   11   41 1
    27   12   14 1
    28   12   29 1
    29   12   42 1
    30   12   43 1
    31   13   30 1
    32   13   44 1
    33   13   45 1
    34   14   30 1
    35   14   46 1
    36   14   47 1
    37   15   16 1
    38   15   17 1
    39   15   28 1
    40   16   48 1
    41   16   49 1
    42   16   50 1
    43   17   51 1
    44   17   52 1
    45   17   53 1
    46   18   20 1
    47   18   54 1
    48   18   55 1
    49   18   56 1
    50   19   20 1
    51   19   57 1
    52   19   58 1
    53   20   59 1
    54   20   60 1
    55   21   22 1
    56   21   23 1
    57   21   61 1
    58   21   62 1
    59   22   24 1
    60   22   63 1
    61   22   64 1
    62   23   28 1
    63   23   65 1
    64   23   66 1
    65   24   30 1
    66   24   67 1
    67   24   68 1
    68   25   33 1
    69   25   34 1
    70   25   35 1
    71   30   69 1
