@<TRIPOS>MOLECULE
*****
   30    31     0     0     0
SMALL
NO_CHARGES

@<TRIPOS>ATOM
      1 C1         -5.5716    2.0047   -0.4918 C.ar      1 <0>         0.0000
      2 C2         -5.3600    0.6311   -0.3720 C.ar      1 <0>         0.0000
      3 C3         -4.5995    2.9013   -0.0485 C.ar      1 <0>         0.0000
      4 C4         -4.1762    0.1543    0.1909 C.ar      1 <0>         0.0000
      5 C5         -3.4157    2.4245    0.5144 C.ar      1 <0>         0.0000
      6 C6         -3.2040    1.0510    0.6341 C.ar      1 <0>         0.0000
      7 C7          1.4785   -0.2293   -0.1194 C.2       1 <0>         0.0000
      8 C8         -0.1448   -1.0050   -1.6342 C.3       1 <0>         0.0000
      9 C9         -1.1104   -0.9366   -0.4634 C.3       1 <0>         0.0000
     10 C10         0.4558    0.3662    0.8252 C.3       1 <0>         0.0000
     11 C11         0.8920    1.7986    1.1373 C.3       1 <0>         0.0000
     12 C12        -1.9299    0.5371    1.2397 C.3       1 <0>         0.0000
     13 N1          1.2463   -0.8623   -1.2166 N.2       1 <0>         0.0000
     14 N2         -0.8875    0.3314    0.2312 N.3       1 <0>         0.0000
     15 H1         -6.4939    2.3761   -0.9289 H         1 <0>         0.0000
     16 H2         -6.1171   -0.0673   -0.7160 H         1 <0>         0.0000
     17 H3         -4.7645    3.9709   -0.1407 H         1 <0>         0.0000
     18 H4         -4.0199   -0.9175    0.2800 H         1 <0>         0.0000
     19 H5         -2.6637    3.1306    0.8569 H         1 <0>         0.0000
     20 H6          2.5336   -0.1439    0.1941 H         1 <0>         0.0000
     21 H7         -0.2603   -1.9731   -2.1342 H         1 <0>         0.0000
     22 H8         -0.3768   -0.2325   -2.3774 H         1 <0>         0.0000
     23 H9         -2.1324   -0.9892   -0.8579 H         1 <0>         0.0000
     24 H10        -0.9698   -1.7925    0.2097 H         1 <0>         0.0000
     25 H11         0.5050   -0.2357    1.7423 H         1 <0>         0.0000
     26 H12         0.8459    2.4014    0.2328 H         1 <0>         0.0000
     27 H13         1.9122    1.7972    1.5154 H         1 <0>         0.0000
     28 H14         0.2319    2.2277    1.8883 H         1 <0>         0.0000
     29 H15        -1.5445    1.2421    1.9843 H         1 <0>         0.0000
     30 H16        -2.0946   -0.4175    1.7504 H         1 <0>         0.0000
@<TRIPOS>BOND
     1    1    3 ar
     2    1    2 ar
     3    1   15 1
     4    2    4 ar
     5    2   16 1
     6    3    5 ar
     7    3   17 1
     8    4    6 ar
     9    4   18 1
    10    5    6 ar
    11    5   19 1
    12    6   12 1
    13    7   10 1
    14    7   13 2
    15    7   20 1
    16    8    9 1
    17    8   13 1
    18    8   21 1
    19    8   22 1
    20    9   14 1
    21    9   23 1
    22    9   24 1
    23   10   11 1
    24   10   14 1
    25   10   25 1
    26   11   26 1
    27   11   27 1
    28   11   28 1
    29   12   14 1
    30   12   29 1
    31   12   30 1
