@<TRIPOS>MOLECULE
*****
   12    11     0     0     0
SMALL
NO_CHARGES

@<TRIPOS>ATOM
      1 C1          2.4820   -1.2880   -0.2560 C.2       1 <0>         0.0000
      2 C2          3.5890   -0.2700   -0.0820 C.3       1 <0>         0.0000
      3 C3          0.0680   -1.7000   -0.3460 C.3       1 <0>         0.0000
      4 N1          1.2320   -0.8340   -0.1930 N.am      1 <0>         0.0000
      5 O1          2.7450   -2.4670   -0.4440 O.2       1 <0>         0.0000
      6 H1          3.4940    0.2020    0.8930 H         1 <0>         0.0000
      7 H2          3.5130    0.4820   -0.8660 H         1 <0>         0.0000
      8 H3          4.5520   -0.7740   -0.1520 H         1 <0>         0.0000
      9 H4         -0.8510   -1.1180   -0.2710 H         1 <0>         0.0000
     10 H5          0.0730   -2.4660    0.4320 H         1 <0>         0.0000
     11 H6          0.1010   -2.1940   -1.3190 H         1 <0>         0.0000
     12 H7          1.0870    0.1490   -0.0350 H         1 <0>         0.0000
@<TRIPOS>BOND
     1    1    2 1
     2    1    4 am
     3    1    5 2
     4    2    6 1
     5    2    7 1
     6    2    8 1
     7    3    4 1
     8    3    9 1
     9    3   10 1
    10    3   11 1
    11    4   12 1
