@<TRIPOS>MOLECULE
*****
   65    68     0     0     0
SMALL
NO_CHARGES

@<TRIPOS>ATOM
      1 C1          5.6050    1.4907    0.6714 C.1       1 <0>         0.0000
      2 C2          4.6976    0.7749    0.2959 C.1       1 <0>         0.0000
      3 C3          4.7365    1.6012   -3.5384 C.ar      1 <0>         0.0000
      4 C4          4.8852    2.4885   -2.4787 C.ar      1 <0>         0.0000
      5 C5          7.5918    1.9977    2.0504 C.ar      1 <0>         0.0000
      6 C6          9.1994    3.6069    1.2810 C.ar      1 <0>         0.0000
      7 C7          6.7673    2.2733    0.9459 C.ar      1 <0>         0.0000
      8 C8          7.2980    2.4355   -2.7974 C.ar      1 <0>         0.0000
      9 C9          8.3988    3.9194    0.1777 C.ar      1 <0>         0.0000
     10 C10         5.8459    1.0654   -4.2080 C.ar      1 <0>         0.0000
     11 C11         8.8000    2.6721    2.2445 C.ar      1 <0>         0.0000
     12 C12         6.1663    2.8643   -2.0824 C.ar      1 <0>         0.0000
     13 C13         7.1571    3.2871    0.0462 C.ar      1 <0>         0.0000
     14 C14         7.1238    1.5046   -3.8422 C.ar      1 <0>         0.0000
     15 C15         8.6265    3.0016   -2.4268 C.2       1 <0>         0.0000
     16 C16         8.9265    4.8247   -0.9146 C.3       1 <0>         0.0000
     17 C17         1.3361   -0.7059   -0.5553 C.3       1 <0>         0.0000
     18 C18         2.0887   -1.9510    0.0023 C.3       1 <0>         0.0000
     19 C19         2.2237    0.5048   -0.2104 C.3       1 <0>         0.0000
     20 C20         3.4792   -1.4444    0.4604 C.3       1 <0>         0.0000
     21 C21         3.6512   -0.0828   -0.2513 C.3       1 <0>         0.0000
     22 C22         9.6948    2.3380    3.4160 C.3       1 <0>         0.0000
     23 C23         5.0336   -3.0248   -2.7685 C.3       1 <0>         0.0000
     24 C24         7.2466   -2.2919   -3.7527 C.3       1 <0>         0.0000
     25 C25         8.7048    1.8539   -5.5644 C.3       1 <0>         0.0000
     26 C26         5.0508   -1.2922   -4.5943 C.3       1 <0>         0.0000
     27 C27         5.6477   -0.0245   -5.2351 C.3       1 <0>         0.0000
     28 C28         5.8186   -1.8600   -3.3876 C.3       1 <0>         0.0000
     29 O1          9.6745    2.4081   -2.3126 O.2       1 <0>         0.0000
     30 O2          6.2710    3.6702   -0.9603 O.3       1 <0>         0.0000
     31 O3          8.4939    4.3582   -2.2083 O.3       1 <0>         0.0000
     32 O4          4.7580    0.4918   -6.2468 O.3       1 <0>         0.0000
     33 O5          8.2268    1.0129   -4.5045 O.3       1 <0>         0.0000
     34 H1          3.7416    1.2902   -3.8438 H         1 <0>         0.0000
     35 H2          4.0353    2.8542   -1.9130 H         1 <0>         0.0000
     36 H3          7.2793    1.2246    2.7474 H         1 <0>         0.0000
     37 H4         10.1739    4.0829    1.3716 H         1 <0>         0.0000
     38 H5          8.5243    5.8385   -0.8466 H         1 <0>         0.0000
     39 H6         10.0188    4.8683   -0.8663 H         1 <0>         0.0000
     40 H7          1.2282   -0.7869   -1.6424 H         1 <0>         0.0000
     41 H8          0.3281   -0.6060   -0.1431 H         1 <0>         0.0000
     42 H9          1.5482   -2.4114    0.8343 H         1 <0>         0.0000
     43 H10         2.1877   -2.7190   -0.7706 H         1 <0>         0.0000
     44 H11         2.0975    1.3459   -0.8981 H         1 <0>         0.0000
     45 H12         2.0163    0.8689    0.8020 H         1 <0>         0.0000
     46 H13         3.4951   -1.2801    1.5427 H         1 <0>         0.0000
     47 H14         4.2910   -2.1360    0.2211 H         1 <0>         0.0000
     48 H15         3.9082   -0.2683   -1.3043 H         1 <0>         0.0000
     49 H16        10.4090    1.5500    3.1490 H         1 <0>         0.0000
     50 H17        10.2722    3.2095    3.7383 H         1 <0>         0.0000
     51 H18         9.1144    1.9807    4.2714 H         1 <0>         0.0000
     52 H19         4.9373   -3.8568   -3.4771 H         1 <0>         0.0000
     53 H20         5.5385   -3.4070   -1.8746 H         1 <0>         0.0000
     54 H21         4.0229   -2.7166   -2.4774 H         1 <0>         0.0000
     55 H22         7.2315   -3.0499   -4.5468 H         1 <0>         0.0000
     56 H23         7.8552   -1.4503   -4.0933 H         1 <0>         0.0000
     57 H24         7.7497   -2.7315   -2.8846 H         1 <0>         0.0000
     58 H25         9.5713    1.3452   -5.9902 H         1 <0>         0.0000
     59 H26         9.0127    2.8334   -5.1818 H         1 <0>         0.0000
     60 H27         7.9310    1.9867   -6.3305 H         1 <0>         0.0000
     61 H28         4.9782   -2.0709   -5.3692 H         1 <0>         0.0000
     62 H29         4.0228   -1.0558   -4.2922 H         1 <0>         0.0000
     63 H30         6.6147   -0.2635   -5.6865 H         1 <0>         0.0000
     64 H31         5.8905   -1.0666   -2.6328 H         1 <0>         0.0000
     65 H32         4.5649   -0.2343   -6.8618 H         1 <0>         0.0000
@<TRIPOS>BOND
     1    1    2 3
     2    1    7 1
     3    2   21 1
     4    3    4 ar
     5    3   10 ar
     6    3   34 1
     7    4   12 ar
     8    4   35 1
     9    5    7 ar
    10    5   11 ar
    11    5   36 1
    12    6    9 ar
    13    6   11 ar
    14    6   37 1
    15    7   13 ar
    16    8   12 ar
    17    8   14 ar
    18    8   15 1
    19    9   13 ar
    20    9   16 1
    21   10   14 ar
    22   10   27 1
    23   11   22 1
    24   12   30 1
    25   13   30 1
    26   14   33 1
    27   15   29 2
    28   15   31 1
    29   16   31 1
    30   16   38 1
    31   16   39 1
    32   17   18 1
    33   17   19 1
    34   17   40 1
    35   17   41 1
    36   18   20 1
    37   18   42 1
    38   18   43 1
    39   19   21 1
    40   19   44 1
    41   19   45 1
    42   20   21 1
    43   20   46 1
    44   20   47 1
    45   21   48 1
    46   22   49 1
    47   22   50 1
    48   22   51 1
    49   23   28 1
    50   23   52 1
    51   23   53 1
    52   23   54 1
    53   24   28 1
    54   24   55 1
    55   24   56 1
    56   24   57 1
    57   25   33 1
    58   25   58 1
    59   25   59 1
    60   25   60 1
    61   26   27 1
    62   26   28 1
    63   26   61 1
    64   26   62 1
    65   27   32 1
    66   27   63 1
    67   28   64 1
    68   32   65 1
