@<TRIPOS>MOLECULE
*****
   47    51     0     0     0
SMALL
NO_CHARGES

@<TRIPOS>ATOM
      1 C1         -4.0171   -1.7198    3.9874 C.ar      1 <0>         0.0000
      2 C2          2.5856   -0.1645    0.0919 C.ar      1 <0>         0.0000
      3 C3         -3.6750   -0.6687    3.1333 C.ar      1 <0>         0.0000
      4 C4          1.4070    0.3897    0.5878 C.ar      1 <0>         0.0000
      5 C5         -3.5891   -1.7224    5.3185 C.ar      1 <0>         0.0000
      6 C6          1.2187   -1.4957    2.0921 C.ar      1 <0>         0.0000
      7 C7          5.5003   -1.2169   -0.1936 C.ar      1 <0>         0.0000
      8 C8         -2.4658    0.4029    4.9334 C.ar      1 <0>         0.0000
      9 C9          4.2872   -3.2336   -0.6587 C.ar      1 <0>         0.0000
     10 C10         6.4660   -3.1029   -1.3635 C.ar      1 <0>         0.0000
     11 C11         3.1068   -1.3783    0.5612 C.ar      1 <0>         0.0000
     12 C12         2.4111   -2.0357    1.5994 C.ar      1 <0>         0.0000
     13 C13         4.3133   -1.9496   -0.0861 C.ar      1 <0>         0.0000
     14 C14        -2.8982    0.4033    3.5988 C.ar      1 <0>         0.0000
     15 C15         0.7022   -0.2920    1.5937 C.ar      1 <0>         0.0000
     16 C16         6.5722   -1.8181   -0.8381 C.ar      1 <0>         0.0000
     17 C17        -2.8150   -0.6537    5.7756 C.ar      1 <0>         0.0000
     18 C18         2.9275   -3.2570    2.2389 C.2       1 <0>         0.0000
     19 C19        -1.1980    1.3225    1.8780 C.2       1 <0>         0.0000
     20 C20        -3.5513    2.3046    1.9424 C.3       1 <0>         0.0000
     21 C21        -2.7730    2.9506    3.0479 C.3       1 <0>         0.0000
     22 C22        -2.4774    1.5023    2.6686 C.3       1 <0>         0.0000
     23 N1          5.3258   -3.8005   -1.2780 N.ar      1 <0>         0.0000
     24 N2          4.2525   -3.5175    2.4648 N.2       1 <0>         0.0000
     25 N3          2.1431   -4.2253    2.7278 N.2       1 <0>         0.0000
     26 N4          4.3111   -4.6629    3.0983 N.2       1 <0>         0.0000
     27 N5          3.0474   -5.0569    3.2418 N.pl3     1 <0>         0.0000
     28 N6         -0.5087    0.1634    2.1498 N.am      1 <0>         0.0000
     29 O1         -0.8233    2.1659    1.0648 O.2       1 <0>         0.0000
     30 F1          7.7451   -1.1473   -0.9539 F         1 <0>         0.0000
     31 Cl1        -2.2671   -0.6387    7.4437 Cl        1 <0>         0.0000
     32 H1         -4.6207   -2.5453    3.6202 H         1 <0>         0.0000
     33 H2          3.1043    0.3479   -0.7139 H         1 <0>         0.0000
     34 H3         -4.0085   -0.6735    2.0991 H         1 <0>         0.0000
     35 H4          1.0252    1.3244    0.2018 H         1 <0>         0.0000
     36 H5         -3.8517   -2.5338    5.9898 H         1 <0>         0.0000
     37 H6          0.7030   -2.0166    2.8949 H         1 <0>         0.0000
     38 H7          5.6010   -0.2235    0.2337 H         1 <0>         0.0000
     39 H8         -1.8606    1.2226    5.3091 H         1 <0>         0.0000
     40 H9          3.3728   -3.8228   -0.6170 H         1 <0>         0.0000
     41 H10         7.3153   -3.5664   -1.8614 H         1 <0>         0.0000
     42 H11        -4.5802    2.0196    2.1388 H         1 <0>         0.0000
     43 H12        -3.3196    2.6026    0.9256 H         1 <0>         0.0000
     44 H13        -2.0209    3.6815    2.7713 H         1 <0>         0.0000
     45 H14        -3.2685    3.1084    4.0008 H         1 <0>         0.0000
     46 H15         2.7997   -5.9308    3.6934 H         1 <0>         0.0000
     47 H16        -0.9223   -0.4469    2.8442 H         1 <0>         0.0000
@<TRIPOS>BOND
     1    1    3 ar
     2    1    5 ar
     3    1   32 1
     4    2    4 ar
     5    2   11 ar
     6    2   33 1
     7    3   14 ar
     8    3   34 1
     9    4   15 ar
    10    4   35 1
    11    5   17 ar
    12    5   36 1
    13    6   12 ar
    14    6   15 ar
    15    6   37 1
    16    7   13 ar
    17    7   16 ar
    18    7   38 1
    19    8   14 ar
    20    8   17 ar
    21    8   39 1
    22    9   13 ar
    23    9   23 ar
    24    9   40 1
    25   10   16 ar
    26   10   23 ar
    27   10   41 1
    28   11   12 ar
    29   11   13 1
    30   12   18 1
    31   14   22 1
    32   15   28 1
    33   16   30 1
    34   17   31 1
    35   18   24 1
    36   18   25 2
    37   19   22 1
    38   19   28 am
    39   19   29 2
    40   20   21 1
    41   20   22 1
    42   20   42 1
    43   20   43 1
    44   21   22 1
    45   21   44 1
    46   21   45 1
    47   24   26 2
    48   25   27 1
    49   26   27 1
    50   27   46 1
    51   28   47 1
