@<TRIPOS>MOLECULE
*****
   65    68     0     0     0
SMALL
NO_CHARGES

@<TRIPOS>ATOM
      1 C1          5.2552    1.3691    0.9647 C.1       1 <0>         0.0000
      2 C2          4.2150    0.7425    0.9159 C.1       1 <0>         0.0000
      3 C3          6.3044    0.0323    5.8317 C.ar      1 <0>         0.0000
      4 C4          6.0540    0.6381    4.5963 C.ar      1 <0>         0.0000
      5 C5          7.3976    2.1777    0.0244 C.ar      1 <0>         0.0000
      6 C6          8.9128    3.4309    1.4040 C.ar      1 <0>         0.0000
      7 C7          6.4823    2.0874    1.0897 C.ar      1 <0>         0.0000
      8 C8          6.5967    2.8062    5.5896 C.ar      1 <0>         0.0000
      9 C9          8.0287    3.3645    2.4865 C.ar      1 <0>         0.0000
     10 C10         6.7035    0.7746    6.9422 C.ar      1 <0>         0.0000
     11 C11         8.6145    2.8472    0.1643 C.ar      1 <0>         0.0000
     12 C12         6.2039    2.0129    4.4983 C.ar      1 <0>         0.0000
     13 C13         6.8110    2.6969    2.3147 C.ar      1 <0>         0.0000
     14 C14         6.8453    2.1761    6.8236 C.ar      1 <0>         0.0000
     15 C15         6.5840    4.2913    5.3668 C.2       1 <0>         0.0000
     16 C16         8.4382    3.9642    3.8117 C.3       1 <0>         0.0000
     17 C17         0.5482   -0.0259    1.2564 C.3       1 <0>         0.0000
     18 C18         1.1760   -1.0473    2.2513 C.3       1 <0>         0.0000
     19 C19         1.6946    0.9199    0.8524 C.3       1 <0>         0.0000
     20 C20         2.7026   -0.7845    2.2310 C.3       1 <0>         0.0000
     21 C21         2.9475    0.0165    0.9276 C.3       1 <0>         0.0000
     22 C22         9.5732    2.9717   -0.9977 C.3       1 <0>         0.0000
     23 C23         4.7094    0.4031   11.4860 C.3       1 <0>         0.0000
     24 C24         6.3998   -1.4202   11.0547 C.3       1 <0>         0.0000
     25 C25         7.9119    4.0632    7.9525 C.3       1 <0>         0.0000
     26 C26         5.7171    0.2146    9.1906 C.3       1 <0>         0.0000
     27 C27         6.9516    0.1024    8.2847 C.3       1 <0>         0.0000
     28 C28         5.9665    0.0084   10.6955 C.3       1 <0>         0.0000
     29 O1          5.8521    5.0481    5.9663 O.2       1 <0>         0.0000
     30 O2          5.8588    2.6696    3.3210 O.3       1 <0>         0.0000
     31 O3          7.4288    4.7944    4.4242 O.3       1 <0>         0.0000
     32 O4          7.2606   -1.2908    8.1192 O.3       1 <0>         0.0000
     33 O5          7.2308    2.8034    7.9741 O.3       1 <0>         0.0000
     34 H1          6.1873   -1.0407    5.9476 H         1 <0>         0.0000
     35 H2          5.7231    0.0737    3.7304 H         1 <0>         0.0000
     36 H3          7.1387    1.7061   -0.9197 H         1 <0>         0.0000
     37 H4          9.8570    3.9586    1.5290 H         1 <0>         0.0000
     38 H5          8.7443    3.1809    4.5119 H         1 <0>         0.0000
     39 H6          9.2889    4.6314    3.6597 H         1 <0>         0.0000
     40 H7          0.1672   -0.5471    0.3715 H         1 <0>         0.0000
     41 H8         -0.2947    0.5181    1.6919 H         1 <0>         0.0000
     42 H9          0.7757   -0.9265    3.2618 H         1 <0>         0.0000
     43 H10         0.9504   -2.0729    1.9437 H         1 <0>         0.0000
     44 H11         1.5615    1.3695   -0.1357 H         1 <0>         0.0000
     45 H12         1.8049    1.7340    1.5768 H         1 <0>         0.0000
     46 H13         2.9994   -0.1628    3.0819 H         1 <0>         0.0000
     47 H14         3.2994   -1.7003    2.2693 H         1 <0>         0.0000
     48 H15         2.9242   -0.6779    0.0764 H         1 <0>         0.0000
     49 H16         9.4275    3.9219   -1.5252 H         1 <0>         0.0000
     50 H17        10.6144    2.9392   -0.6625 H         1 <0>         0.0000
     51 H18         9.4264    2.1669   -1.7234 H         1 <0>         0.0000
     52 H19         3.8628   -0.2410   11.2178 H         1 <0>         0.0000
     53 H20         4.8737    0.3014   12.5646 H         1 <0>         0.0000
     54 H21         4.4170    1.4400   11.2852 H         1 <0>         0.0000
     55 H22         5.6259   -2.1415   10.7651 H         1 <0>         0.0000
     56 H23         7.3189   -1.7077   10.5404 H         1 <0>         0.0000
     57 H24         6.5580   -1.5132   12.1355 H         1 <0>         0.0000
     58 H25         8.4757    4.1053    8.8863 H         1 <0>         0.0000
     59 H26         7.2055    4.8928    7.9011 H         1 <0>         0.0000
     60 H27         8.6105    4.1191    7.1097 H         1 <0>         0.0000
     61 H28         4.9684   -0.5007    8.8251 H         1 <0>         0.0000
     62 H29         5.2962    1.2146    9.0459 H         1 <0>         0.0000
     63 H30         7.7903    0.6114    8.7771 H         1 <0>         0.0000
     64 H31         6.7738    0.6957   10.9881 H         1 <0>         0.0000
     65 H32         8.0945   -1.3513    7.6263 H         1 <0>         0.0000
@<TRIPOS>BOND
     1    1    2 3
     2    1    7 1
     3    2   21 1
     4    3    4 ar
     5    3   10 ar
     6    3   34 1
     7    4   12 ar
     8    4   35 1
     9    5    7 ar
    10    5   11 ar
    11    5   36 1
    12    6    9 ar
    13    6   11 ar
    14    6   37 1
    15    7   13 ar
    16    8   12 ar
    17    8   14 ar
    18    8   15 1
    19    9   13 ar
    20    9   16 1
    21   10   14 ar
    22   10   27 1
    23   11   22 1
    24   12   30 1
    25   13   30 1
    26   14   33 1
    27   15   29 2
    28   15   31 1
    29   16   31 1
    30   16   38 1
    31   16   39 1
    32   17   18 1
    33   17   19 1
    34   17   40 1
    35   17   41 1
    36   18   20 1
    37   18   42 1
    38   18   43 1
    39   19   21 1
    40   19   44 1
    41   19   45 1
    42   20   21 1
    43   20   46 1
    44   20   47 1
    45   21   48 1
    46   22   49 1
    47   22   50 1
    48   22   51 1
    49   23   28 1
    50   23   52 1
    51   23   53 1
    52   23   54 1
    53   24   28 1
    54   24   55 1
    55   24   56 1
    56   24   57 1
    57   25   33 1
    58   25   58 1
    59   25   59 1
    60   25   60 1
    61   26   27 1
    62   26   28 1
    63   26   61 1
    64   26   62 1
    65   27   32 1
    66   27   63 1
    67   28   64 1
    68   32   65 1
