@<TRIPOS>MOLECULE
*****
   65    69     0     0     0
SMALL
NO_CHARGES

@<TRIPOS>ATOM
      1 C1         -2.4883   -2.2042   -4.1791 C.ar      1 <0>         0.0000
      2 C2         -0.0581   -2.5962   -4.2503 C.ar      1 <0>         0.0000
      3 C3         -1.6088   -3.8377   -5.6629 C.ar      1 <0>         0.0000
      4 C4         -1.1728   -1.9179   -3.7337 C.ar      1 <0>         0.0000
      5 C5         -2.7233   -3.1709   -5.1550 C.ar      1 <0>         0.0000
      6 C6         -1.5734   -4.8746   -6.6431 C.2       1 <0>         0.0000
      7 C7         -0.2943   -3.5699   -5.2219 C.ar      1 <0>         0.0000
      8 C8         -0.2505   -5.2329   -6.7906 C.2       1 <0>         0.0000
      9 C9         -7.4890   -2.0220   -9.0054 C.2       1 <0>         0.0000
     10 C10        -2.8667   -5.3282   -7.2583 C.3       1 <0>         0.0000
     11 C11        -4.4879   -2.5732   -6.8519 C.3       1 <0>         0.0000
     12 C12        -5.8055   -4.4484   -7.9043 C.3       1 <0>         0.0000
     13 C13         1.0875    0.6739   -1.6323 C.3       1 <0>         0.0000
     14 C14         0.2989    0.0155   -0.5008 C.3       1 <0>         0.0000
     15 C15        -4.0617   -3.5563   -5.7454 C.3       1 <0>         0.0000
     16 C16        -0.9939   -0.8707   -2.6630 C.3       1 <0>         0.0000
     17 C17        -4.0480   -5.0178   -6.2812 C.3       1 <0>         0.0000
     18 C18        -5.8330   -2.9820   -7.4518 C.3       1 <0>         0.0000
     19 C19         0.3902   -6.2612   -7.6652 C.3       1 <0>         0.0000
     20 C20        -9.8959   -0.0845  -10.0217 C.3       1 <0>         0.0000
     21 C21        -5.8810   -1.0877  -11.8599 C.3       1 <0>         0.0000
     22 C22        -5.5884   -6.7311   -7.1234 C.3       1 <0>         0.0000
     23 C23        -9.0669   -1.1995  -10.6668 C.3       1 <0>         0.0000
     24 C24        -6.6907   -0.4072  -10.7471 C.3       1 <0>         0.0000
     25 N1          0.5257   -4.4340   -5.9345 N.pl3     1 <0>         0.0000
     26 N2         -5.3794   -5.3234   -6.8170 N.3       1 <0>         0.0000
     27 N3         -6.1773   -2.0769   -8.5477 N.am      1 <0>         0.0000
     28 N4         -7.7001   -1.2748  -10.1467 N.am      1 <0>         0.0000
     29 O1         -8.4127   -2.5877   -8.4096 O.2       1 <0>         0.0000
     30 S1          0.1190    0.5400   -3.1899 S.3       1 <0>         0.0000
     31 S2         -0.3062   -1.5922   -1.1147 S.3       1 <0>         0.0000
     32 H1         -3.3220   -1.6590   -3.7404 H         1 <0>         0.0000
     33 H2          0.9381   -2.3525   -3.8925 H         1 <0>         0.0000
     34 H3         -3.0333   -4.8216   -8.2167 H         1 <0>         0.0000
     35 H4         -2.8561   -6.4015   -7.4745 H         1 <0>         0.0000
     36 H5         -4.5513   -1.5578   -6.4474 H         1 <0>         0.0000
     37 H6         -3.7158   -2.5525   -7.6339 H         1 <0>         0.0000
     38 H7         -6.8165   -4.7350   -8.2054 H         1 <0>         0.0000
     39 H8         -5.1619   -4.5360   -8.8032 H         1 <0>         0.0000
     40 H9          1.2542    1.7358   -1.4275 H         1 <0>         0.0000
     41 H10         2.0531    0.1794   -1.7624 H         1 <0>         0.0000
     42 H11         0.9328   -0.1726    0.3713 H         1 <0>         0.0000
     43 H12        -0.5434    0.6428   -0.1945 H         1 <0>         0.0000
     44 H13        -4.8296   -3.5269   -4.9636 H         1 <0>         0.0000
     45 H14        -1.9629   -0.4292   -2.4253 H         1 <0>         0.0000
     46 H15        -3.9069   -5.6672   -5.4085 H         1 <0>         0.0000
     47 H16        -6.6147   -2.8810   -6.6964 H         1 <0>         0.0000
     48 H17         1.0690   -5.8078   -8.3986 H         1 <0>         0.0000
     49 H18         0.9702   -6.9877   -7.0824 H         1 <0>         0.0000
     50 H19        -0.3755   -6.8111   -8.2173 H         1 <0>         0.0000
     51 H20        -9.9914   -0.2665   -8.9483 H         1 <0>         0.0000
     52 H21        -9.4312    0.8970  -10.1695 H         1 <0>         0.0000
     53 H22       -10.9000   -0.0513  -10.4596 H         1 <0>         0.0000
     54 H23        -5.3315   -1.9576  -11.4836 H         1 <0>         0.0000
     55 H24        -6.5417   -1.4389  -12.6588 H         1 <0>         0.0000
     56 H25        -5.1569   -0.3899  -12.2951 H         1 <0>         0.0000
     57 H26        -5.2763   -7.3435   -6.2707 H         1 <0>         0.0000
     58 H27        -5.0416   -7.0849   -8.0165 H         1 <0>         0.0000
     59 H28        -6.6549   -6.9100   -7.2951 H         1 <0>         0.0000
     60 H29        -9.0015   -1.0530  -11.7511 H         1 <0>         0.0000
     61 H30        -9.5459   -2.1640  -10.4916 H         1 <0>         0.0000
     62 H31        -7.2047    0.4677  -11.1585 H         1 <0>         0.0000
     63 H32        -6.0284   -0.0229   -9.9653 H         1 <0>         0.0000
     64 H33         1.5270   -4.5142   -5.8292 H         1 <0>         0.0000
     65 H34        -5.4433   -1.9457   -9.2316 H         1 <0>         0.0000
@<TRIPOS>BOND
     1    1    4 ar
     2    1    5 ar
     3    1   32 1
     4    2    4 ar
     5    2    7 ar
     6    2   33 1
     7    3    5 ar
     8    3    6 1
     9    3    7 ar
    10    4   16 1
    11    5   15 1
    12    6    8 2
    13    6   10 1
    14    7   25 1
    15    8   19 1
    16    8   25 1
    17    9   27 am
    18    9   28 am
    19    9   29 2
    20   10   17 1
    21   10   34 1
    22   10   35 1
    23   11   15 1
    24   11   18 1
    25   11   36 1
    26   11   37 1
    27   12   18 1
    28   12   26 1
    29   12   38 1
    30   12   39 1
    31   13   14 1
    32   13   30 1
    33   13   40 1
    34   13   41 1
    35   14   31 1
    36   14   42 1
    37   14   43 1
    38   15   17 1
    39   15   44 1
    40   16   31 1
    41   16   30 1
    42   16   45 1
    43   17   26 1
    44   17   46 1
    45   18   27 1
    46   18   47 1
    47   19   48 1
    48   19   49 1
    49   19   50 1
    50   20   23 1
    51   20   51 1
    52   20   52 1
    53   20   53 1
    54   21   24 1
    55   21   54 1
    56   21   55 1
    57   21   56 1
    58   22   26 1
    59   22   57 1
    60   22   58 1
    61   22   59 1
    62   23   28 1
    63   23   60 1
    64   23   61 1
    65   24   28 1
    66   24   62 1
    67   24   63 1
    68   25   64 1
    69   27   65 1
