@<TRIPOS>MOLECULE
*****
   40    42     0     0     0
SMALL
NO_CHARGES

@<TRIPOS>ATOM
      1 C1          1.4276   -2.0018   -2.1579 C.ar      1 <0>         0.0000
      2 C2         -0.7693   -2.7666   -1.5488 C.ar      1 <0>         0.0000
      3 C3          1.3372   -2.6789   -3.3761 C.ar      1 <0>         0.0000
      4 C4         -0.8777   -3.4491   -2.7610 C.ar      1 <0>         0.0000
      5 C5          1.8427   -4.4785    2.6448 C.2       1 <0>         0.0000
      6 C6          1.5161   -3.1415    2.5758 C.2       1 <0>         0.0000
      7 C7          0.1663   -4.3500    1.3087 C.2       1 <0>         0.0000
      8 C8          0.3802   -2.0302   -1.2273 C.ar      1 <0>         0.0000
      9 C9          0.1789   -3.3982   -3.6711 C.ar      1 <0>         0.0000
     10 C10         0.8111    1.3186   -0.6901 C.3       1 <0>         0.0000
     11 C11         0.3813    1.3303    0.7567 C.3       1 <0>         0.0000
     12 C12        -0.0908    0.2212   -0.1682 C.3       1 <0>         0.0000
     13 C13        -3.0859   -0.1305   -3.0638 C.3       1 <0>         0.0000
     14 C14        -0.2152   -1.8387    1.2676 C.3       1 <0>         0.0000
     15 C15        -1.7450    0.3087   -2.4796 C.3       1 <0>         0.0000
     16 C16         0.4957   -1.1948    0.0488 C.3       1 <0>         0.0000
     17 N1          0.9946   -5.2229    1.8513 N.2       1 <0>         0.0000
     18 N2          0.4287   -3.0653    1.7147 N.pl3     1 <0>         0.0000
     19 O1          1.8753   -1.0041    0.3853 O.3       1 <0>         0.0000
     20 S1         -1.8350    0.2803   -0.6388 S.3       1 <0>         0.0000
     21 Cl1         0.0473   -4.2469   -5.2019 Cl        1 <0>         0.0000
     22 H1          2.3229   -1.4335   -1.9301 H         1 <0>         0.0000
     23 H2         -1.6161   -2.7918   -0.8733 H         1 <0>         0.0000
     24 H3          2.1551   -2.6460   -4.0891 H         1 <0>         0.0000
     25 H4         -1.7757   -4.0107   -2.9988 H         1 <0>         0.0000
     26 H5          2.6299   -4.9430    3.2248 H         1 <0>         0.0000
     27 H6          1.9109   -2.2643    3.0687 H         1 <0>         0.0000
     28 H7         -0.6330   -4.5836    0.6190 H         1 <0>         0.0000
     29 H8          0.3736    2.0459   -1.3654 H         1 <0>         0.0000
     30 H9          1.8401    1.0478   -0.8983 H         1 <0>         0.0000
     31 H10         1.1335    1.0669    1.4927 H         1 <0>         0.0000
     32 H11        -0.3558    2.0609    1.0720 H         1 <0>         0.0000
     33 H12        -3.3104   -1.1659   -2.7916 H         1 <0>         0.0000
     34 H13        -3.9066    0.5024   -2.7100 H         1 <0>         0.0000
     35 H14        -3.0568   -0.0636   -4.1565 H         1 <0>         0.0000
     36 H15        -0.1842   -1.1187    2.0874 H         1 <0>         0.0000
     37 H16        -1.2632   -2.0423    1.0512 H         1 <0>         0.0000
     38 H17        -1.4960    1.3245   -2.7992 H         1 <0>         0.0000
     39 H18        -0.9450   -0.3587   -2.8006 H         1 <0>         0.0000
     40 H19         2.2536   -1.8776    0.5893 H         1 <0>         0.0000
@<TRIPOS>BOND
     1    1    3 ar
     2    1    8 ar
     3    1   22 1
     4    2    4 ar
     5    2    8 ar
     6    2   23 1
     7    3    9 ar
     8    3   24 1
     9    4    9 ar
    10    4   25 1
    11    5    6 2
    12    5   17 1
    13    5   26 1
    14    6   18 1
    15    6   27 1
    16    7   17 2
    17    7   18 1
    18    7   28 1
    19    8   16 1
    20    9   21 1
    21   10   11 1
    22   10   12 1
    23   10   29 1
    24   10   30 1
    25   11   12 1
    26   11   31 1
    27   11   32 1
    28   12   16 1
    29   12   20 1
    30   13   15 1
    31   13   33 1
    32   13   34 1
    33   13   35 1
    34   14   16 1
    35   14   18 1
    36   14   36 1
    37   14   37 1
    38   15   20 1
    39   15   38 1
    40   15   39 1
    41   16   19 1
    42   19   40 1
