@<TRIPOS>MOLECULE
*****
   36    37     0     0     0
SMALL
NO_CHARGES

@<TRIPOS>ATOM
      1 C1         -2.1361   -2.3326    5.2919 C.ar      1 <0>         0.0000
      2 C2         -1.9584   -3.6111    4.7793 C.ar      1 <0>         0.0000
      3 C3         -2.2227   -1.2211    4.4419 C.ar      1 <0>         0.0000
      4 C4         -1.9225   -2.7044    2.5023 C.ar      1 <0>         0.0000
      5 C5         -1.8515   -3.7838    3.3989 C.ar      1 <0>         0.0000
      6 C6         -2.1110   -1.4183    3.0514 C.ar      1 <0>         0.0000
      7 C7         -2.4814    0.1192    5.0609 C.2       1 <0>         0.0000
      8 C8         -2.9149   -1.6792   -1.6798 C.3       1 <0>         0.0000
      9 C9         -4.2303   -0.8984   -1.6728 C.3       1 <0>         0.0000
     10 C10        -4.8048   -3.0997   -1.2156 C.3       1 <0>         0.0000
     11 C11        -3.3056   -2.9443   -0.8962 C.3       1 <0>         0.0000
     12 C12         0.1625   -5.5603    2.4811 C.3       1 <0>         0.0000
     13 C13        -1.8618   -2.8720    0.9996 C.3       1 <0>         0.0000
     14 O1         -3.0516    1.0554    4.5431 O.2       1 <0>         0.0000
     15 O2         -1.8091   -6.3552    4.0535 O.2       1 <0>         0.0000
     16 O3         -2.3547   -5.7775    1.6295 O.2       1 <0>         0.0000
     17 O4         -5.2373   -1.8971   -1.8697 O.3       1 <0>         0.0000
     18 O5         -2.0176    0.1716    6.3422 O.3       1 <0>         0.0000
     19 O6         -3.1915   -2.7579    0.5197 O.3       1 <0>         0.0000
     20 S1         -1.6054   -5.5146    2.8649 S.o2      1 <0>         0.0000
     21 Cl1        -2.1581   -0.0540    1.9618 Cl        1 <0>         0.0000
     22 H1         -2.2204   -2.1829    6.3620 H         1 <0>         0.0000
     23 H2         -1.9148   -4.4755    5.4326 H         1 <0>         0.0000
     24 H3         -2.6387   -1.9466   -2.7055 H         1 <0>         0.0000
     25 H4         -2.0838   -1.1360   -1.2235 H         1 <0>         0.0000
     26 H5         -4.3727   -0.3883   -0.7095 H         1 <0>         0.0000
     27 H6         -4.3221   -0.1697   -2.4820 H         1 <0>         0.0000
     28 H7         -4.9996   -3.9383   -1.8907 H         1 <0>         0.0000
     29 H8         -5.3546   -3.2540   -0.2805 H         1 <0>         0.0000
     30 H9         -2.7263   -3.8290   -1.1885 H         1 <0>         0.0000
     31 H10         0.3755   -6.5874    2.1771 H         1 <0>         0.0000
     32 H11         0.3812   -4.8683    1.6672 H         1 <0>         0.0000
     33 H12         0.7202   -5.3024    3.3822 H         1 <0>         0.0000
     34 H13        -1.2135   -2.0954    0.5747 H         1 <0>         0.0000
     35 H14        -1.4547   -3.8461    0.7190 H         1 <0>         0.0000
     36 H15        -2.2681    1.0533    6.6793 H         1 <0>         0.0000
@<TRIPOS>BOND
     1    1    2 ar
     2    1    3 ar
     3    1   22 1
     4    2    5 ar
     5    2   23 1
     6    3    6 ar
     7    3    7 1
     8    4    5 ar
     9    4    6 ar
    10    4   13 1
    11    5   20 1
    12    6   21 1
    13    7   14 2
    14    7   18 1
    15    8    9 1
    16    8   11 1
    17    8   24 1
    18    8   25 1
    19    9   17 1
    20    9   26 1
    21    9   27 1
    22   10   11 1
    23   10   17 1
    24   10   28 1
    25   10   29 1
    26   11   19 1
    27   11   30 1
    28   12   20 1
    29   12   31 1
    30   12   32 1
    31   12   33 1
    32   13   19 1
    33   13   34 1
    34   13   35 1
    35   15   20 2
    36   16   20 2
    37   18   36 1
