@<TRIPOS>MOLECULE
*****
   37    37     0     0     0
SMALL
NO_CHARGES

@<TRIPOS>ATOM
      1 C1          9.0506   -1.6306   -1.1165 C.2       1 <0>         0.0000
      2 C2          7.5078   -1.1801    0.5915 C.2       1 <0>         0.0000
      3 C3          9.9826   -1.6287   -2.2915 C.2       1 <0>         0.0000
      4 C4          7.9593    1.0092    8.0312 C.3       1 <0>         0.0000
      5 C5         10.0233   -4.7385   -4.7648 C.3       1 <0>         0.0000
      6 C6          7.0193    0.9013    6.8256 C.3       1 <0>         0.0000
      7 C7         10.7955   -3.4220   -4.8950 C.3       1 <0>         0.0000
      8 C8          7.6934    0.2717    5.6006 C.3       1 <0>         0.0000
      9 C9          6.7528    0.1683    4.3921 C.3       1 <0>         0.0000
     10 C10        11.5314   -3.0172   -3.6104 C.3       1 <0>         0.0000
     11 C11         7.4504   -0.4569    3.1873 C.3       1 <0>         0.0000
     12 N1          8.8357   -2.6737   -0.3529 N.2       1 <0>         0.0000
     13 N2          7.9297   -2.4142    0.6406 N.2       1 <0>         0.0000
     14 N3         10.6351   -2.8008   -2.4765 N.am      1 <0>         0.0000
     15 O1         10.1113   -0.6196   -2.9865 O.2       1 <0>         0.0000
     16 O2          6.0919    0.9496    1.3032 O.2       1 <0>         0.0000
     17 S1          8.1550   -0.2016   -0.6919 S.3       1 <0>         0.0000
     18 S2          6.2874   -0.4866    1.7477 S.o       1 <0>         0.0000
     19 H1          8.3230    0.0221    8.3392 H         1 <0>         0.0000
     20 H2          8.8341    1.6264    7.7964 H         1 <0>         0.0000
     21 H3          7.4535    1.4613    8.8908 H         1 <0>         0.0000
     22 H4         10.6900   -5.5668   -4.4954 H         1 <0>         0.0000
     23 H5          9.2447   -4.6697   -3.9974 H         1 <0>         0.0000
     24 H6          9.5322   -5.0011   -5.7071 H         1 <0>         0.0000
     25 H7          6.6465    1.8985    6.5590 H         1 <0>         0.0000
     26 H8          6.1377    0.3071    7.0989 H         1 <0>         0.0000
     27 H9         10.1174   -2.6097   -5.1772 H         1 <0>         0.0000
     28 H10        11.5415   -3.5025   -5.6953 H         1 <0>         0.0000
     29 H11         8.0668   -0.7273    5.8634 H         1 <0>         0.0000
     30 H12         8.5739    0.8673    5.3248 H         1 <0>         0.0000
     31 H13         6.3914    1.1658    4.1195 H         1 <0>         0.0000
     32 H14         5.8732   -0.4299    4.6616 H         1 <0>         0.0000
     33 H15        12.2476   -3.7922   -3.3183 H         1 <0>         0.0000
     34 H16        12.0849   -2.0894   -3.7735 H         1 <0>         0.0000
     35 H17         7.7505   -1.4951    3.3608 H         1 <0>         0.0000
     36 H18         8.3186    0.1287    2.8695 H         1 <0>         0.0000
     37 H19        10.3930   -3.5655   -1.8566 H         1 <0>         0.0000
@<TRIPOS>BOND
     1    1    3 1
     2    1   12 2
     3    1   17 1
     4    2   13 2
     5    2   17 1
     6    2   18 1
     7    3   14 am
     8    3   15 2
     9    4    6 1
    10    4   19 1
    11    4   20 1
    12    4   21 1
    13    5    7 1
    14    5   22 1
    15    5   23 1
    16    5   24 1
    17    6    8 1
    18    6   25 1
    19    6   26 1
    20    7   10 1
    21    7   27 1
    22    7   28 1
    23    8    9 1
    24    8   29 1
    25    8   30 1
    26    9   11 1
    27    9   31 1
    28    9   32 1
    29   10   14 1
    30   10   33 1
    31   10   34 1
    32   11   18 1
    33   11   35 1
    34   11   36 1
    35   12   13 1
    36   14   37 1
    37   16   18 2
