@<TRIPOS>MOLECULE
*****
   27    28     0     0     0
SMALL
NO_CHARGES

@<TRIPOS>ATOM
      1 C1         -2.7921   -1.3610   -0.1137 C.ar      1 <0>         0.0000
      2 C2         -1.7419   -0.8826    0.6725 C.ar      1 <0>         0.0000
      3 C3         -3.0167   -2.7481   -0.2267 C.ar      1 <0>         0.0000
      4 C4          0.5151   -3.0509    2.5119 C.2       1 <0>         0.0000
      5 C5         -0.3198   -3.9847    1.9424 C.2       1 <0>         0.0000
      6 C6         -1.2730   -3.2334    1.1678 C.ar      1 <0>         0.0000
      7 C7         -0.9693   -1.8458    1.3190 C.ar      1 <0>         0.0000
      8 C8         -0.2594   -5.4789    2.0729 C.3       1 <0>         0.0000
      9 C9         -0.0007   -5.8842   -0.4466 C.3       1 <0>         0.0000
     10 C10         0.5257   -6.2057    0.9601 C.3       1 <0>         0.0000
     11 N1         -2.2843   -3.6782    0.3933 N.ar      1 <0>         0.0000
     12 N2          0.1295   -1.7650    2.1486 N.pl3     1 <0>         0.0000
     13 N3          1.9496   -5.8289    1.0298 N.3       1 <0>         0.0000
     14 O1         -1.3709   -6.2176   -0.6077 O.3       1 <0>         0.0000
     15 H1         -3.4368   -0.6721   -0.6508 H         1 <0>         0.0000
     16 H2         -1.5428    0.1826    0.7647 H         1 <0>         0.0000
     17 H3         -3.8254   -3.1149   -0.8557 H         1 <0>         0.0000
     18 H4          1.3739   -3.2033    3.1517 H         1 <0>         0.0000
     19 H5          0.1890   -5.7451    3.0377 H         1 <0>         0.0000
     20 H6         -1.2772   -5.8810    2.0819 H         1 <0>         0.0000
     21 H7          0.5608   -6.4805   -1.1775 H         1 <0>         0.0000
     22 H8          0.1908   -4.8261   -0.6713 H         1 <0>         0.0000
     23 H9          0.3646   -7.2843    1.1222 H         1 <0>         0.0000
     24 H10         0.5951   -0.9152    2.4323 H         1 <0>         0.0000
     25 H11         2.4540   -6.2612    0.2559 H         1 <0>         0.0000
     26 H12         2.3594   -6.2133    1.8803 H         1 <0>         0.0000
     27 H13        -1.8937   -5.4558   -0.2719 H         1 <0>         0.0000
@<TRIPOS>BOND
     1    1    2 ar
     2    1    3 ar
     3    1   15 1
     4    2    7 ar
     5    2   16 1
     6    3   11 ar
     7    3   17 1
     8    4    5 2
     9    4   12 1
    10    4   18 1
    11    5    6 1
    12    5    8 1
    13    6    7 ar
    14    6   11 ar
    15    7   12 1
    16    8   10 1
    17    8   19 1
    18    8   20 1
    19    9   10 1
    20    9   14 1
    21    9   21 1
    22    9   22 1
    23   10   13 1
    24   10   23 1
    25   12   24 1
    26   13   25 1
    27   13   26 1
    28   14   27 1
