@<TRIPOS>MOLECULE
*****
   54    56     0     0     0
SMALL
NO_CHARGES

@<TRIPOS>ATOM
      1 C1          1.3774  -11.0097    3.1842 C.ar      1 <0>         0.0000
      2 C2          0.7850  -10.9402    4.4661 C.ar      1 <0>         0.0000
      3 C3          1.3382   -9.9131    2.3463 C.ar      1 <0>         0.0000
      4 C4          0.1861   -9.7727    4.8916 C.ar      1 <0>         0.0000
      5 C5          0.7905   -7.1619   -2.8617 C.ar      1 <0>         0.0000
      6 C6          2.9720   -7.2058   -1.8510 C.ar      1 <0>         0.0000
      7 C7          0.0620   -6.3874    2.3209 C.ar      1 <0>         0.0000
      8 C8          1.3401   -7.5398   -4.0949 C.ar      1 <0>         0.0000
      9 C9          3.5343   -7.5822   -3.0643 C.ar      1 <0>         0.0000
     10 C10        -0.4674   -6.3021    3.6284 C.ar      1 <0>         0.0000
     11 C11         0.7061   -8.7024    2.7378 C.ar      1 <0>         0.0000
     12 C12         0.1356   -8.6259    4.0534 C.ar      1 <0>         0.0000
     13 C13         1.5875   -6.9862   -1.7296 C.ar      1 <0>         0.0000
     14 C14         0.6354   -7.5635    1.8550 C.ar      1 <0>         0.0000
     15 C15         2.7210   -7.7515   -4.1999 C.ar      1 <0>         0.0000
     16 C16        -0.4460   -7.3903    4.4663 C.ar      1 <0>         0.0000
     17 C17         4.5035   -5.2221   -9.1846 C.3       1 <0>         0.0000
     18 C18         5.9510   -8.6233   -9.7126 C.3       1 <0>         0.0000
     19 C19         0.9891   -6.5923   -0.4003 C.3       1 <0>         0.0000
     20 C20         3.7639   -6.5453   -8.9858 C.3       1 <0>         0.0000
     21 C21         5.7874   -7.8378   -8.3992 C.3       1 <0>         0.0000
     22 C22         3.5685   -8.5757   -7.6764 C.3       1 <0>         0.0000
     23 C23         2.6045   -8.2451   -6.5440 C.3       1 <0>         0.0000
     24 N1          1.1807   -7.6641    0.5762 N.pl3     1 <0>         0.0000
     25 N2          4.4221   -7.4455   -8.0357 N.3       1 <0>         0.0000
     26 O1          3.3670   -8.1247   -5.3420 O.3       1 <0>         0.0000
     27 Cl1        -1.1517   -7.2328    6.0755 Cl        1 <0>         0.0000
     28 H1          1.8737  -11.9216    2.8632 H         1 <0>         0.0000
     29 H2          0.8136  -11.8053    5.1233 H         1 <0>         0.0000
     30 H3          1.8334   -9.9767    1.3824 H         1 <0>         0.0000
     31 H4         -0.2528   -9.7162    5.8816 H         1 <0>         0.0000
     32 H5         -0.2837   -7.0036   -2.7916 H         1 <0>         0.0000
     33 H6          3.6095   -7.0802   -0.9791 H         1 <0>         0.0000
     34 H7         -0.0034   -5.5138    1.6832 H         1 <0>         0.0000
     35 H8          0.6862   -7.6679   -4.9497 H         1 <0>         0.0000
     36 H9          4.6034   -7.7457   -3.1648 H         1 <0>         0.0000
     37 H10        -0.9115   -5.3701    3.9637 H         1 <0>         0.0000
     38 H11         4.7074   -4.7499   -8.2184 H         1 <0>         0.0000
     39 H12         5.4546   -5.3537   -9.7094 H         1 <0>         0.0000
     40 H13         3.8919   -4.5392   -9.7834 H         1 <0>         0.0000
     41 H14         5.3605   -9.5460   -9.7067 H         1 <0>         0.0000
     42 H15         5.6423   -8.0330  -10.5816 H         1 <0>         0.0000
     43 H16         7.0011   -8.9004   -9.8573 H         1 <0>         0.0000
     44 H17         1.4825   -5.6907   -0.0176 H         1 <0>         0.0000
     45 H18        -0.0762   -6.3444   -0.5297 H         1 <0>         0.0000
     46 H19         3.5971   -7.0288   -9.9672 H         1 <0>         0.0000
     47 H20         2.7677   -6.3238   -8.5876 H         1 <0>         0.0000
     48 H21         6.4032   -6.9341   -8.4381 H         1 <0>         0.0000
     49 H22         6.1811   -8.4311   -7.5671 H         1 <0>         0.0000
     50 H23         4.1949   -9.4080   -7.3415 H         1 <0>         0.0000
     51 H24         2.9776   -8.9487   -8.5327 H         1 <0>         0.0000
     52 H25         1.8633   -9.0499   -6.4367 H         1 <0>         0.0000
     53 H26         2.0704   -7.3078   -6.7424 H         1 <0>         0.0000
     54 H27         1.0916   -8.5808    0.1552 H         1 <0>         0.0000
@<TRIPOS>BOND
     1    1    2 ar
     2    1    3 ar
     3    1   28 1
     4    2    4 ar
     5    2   29 1
     6    3   11 ar
     7    3   30 1
     8    4   12 ar
     9    4   31 1
    10    5    8 ar
    11    5   13 ar
    12    5   32 1
    13    6    9 ar
    14    6   13 ar
    15    6   33 1
    16    7   10 ar
    17    7   14 ar
    18    7   34 1
    19    8   15 ar
    20    8   35 1
    21    9   15 ar
    22    9   36 1
    23   10   16 ar
    24   10   37 1
    25   11   12 ar
    26   11   14 ar
    27   12   16 ar
    28   13   19 1
    29   14   24 1
    30   15   26 1
    31   16   27 1
    32   17   20 1
    33   17   38 1
    34   17   39 1
    35   17   40 1
    36   18   21 1
    37   18   41 1
    38   18   42 1
    39   18   43 1
    40   19   24 1
    41   19   44 1
    42   19   45 1
    43   20   25 1
    44   20   46 1
    45   20   47 1
    46   21   25 1
    47   21   48 1
    48   21   49 1
    49   22   23 1
    50   22   25 1
    51   22   50 1
    52   22   51 1
    53   23   26 1
    54   23   52 1
    55   23   53 1
    56   24   54 1
