@<TRIPOS>MOLECULE
*****
   21    22     0     0     0
SMALL
NO_CHARGES

@<TRIPOS>ATOM
      1 C1          1.5844   -1.1351   -0.0548 C.ar      1 <0>         0.0000
      2 C2          0.6637   -0.4798    0.7585 C.ar      1 <0>         0.0000
      3 C3          2.5748   -1.9426    0.5138 C.ar      1 <0>         0.0000
      4 C4          0.6937   -0.6256    2.1558 C.ar      1 <0>         0.0000
      5 C5          1.6993   -1.4301    2.7058 C.ar      1 <0>         0.0000
      6 C6          2.6341   -2.0838    1.9002 C.ar      1 <0>         0.0000
      7 C7         -0.3507    0.1128    2.9542 C.2       1 <0>         0.0000
      8 C8         -2.2055   -0.0664    4.7212 C.3       1 <0>         0.0000
      9 C9         -1.0451    0.6016    5.3810 C.3       1 <0>         0.0000
     10 C10        -0.7919   -0.4224    4.2684 C.3       1 <0>         0.0000
     11 O1         -0.8490    1.1295    2.4768 O.2       1 <0>         0.0000
     12 F1          1.8063   -1.5615    4.0456 F         1 <0>         0.0000
     13 Br1         3.9908   -3.1562    2.7043 Br        1 <0>         0.0000
     14 H1          1.5400   -1.0210   -1.1338 H         1 <0>         0.0000
     15 H2         -0.1030    0.1618    0.3369 H         1 <0>         0.0000
     16 H3          3.3016   -2.4555   -0.1080 H         1 <0>         0.0000
     17 H4         -2.7427   -0.8382    5.2637 H         1 <0>         0.0000
     18 H5         -2.7897    0.5210    4.0208 H         1 <0>         0.0000
     19 H6         -0.8470    1.6358    5.1191 H         1 <0>         0.0000
     20 H7         -0.7604    0.3027    6.3848 H         1 <0>         0.0000
     21 H8         -0.4006   -1.3832    4.5742 H         1 <0>         0.0000
@<TRIPOS>BOND
     1    1    2 ar
     2    1    3 ar
     3    1   14 1
     4    2    4 ar
     5    2   15 1
     6    3    6 ar
     7    3   16 1
     8    4    5 ar
     9    4    7 1
    10    5    6 ar
    11    5   12 1
    12    6   13 1
    13    7   10 1
    14    7   11 2
    15    8    9 1
    16    8   10 1
    17    8   17 1
    18    8   18 1
    19    9   10 1
    20    9   19 1
    21    9   20 1
    22   10   21 1
