@<TRIPOS>MOLECULE
*****
   21    22     0     0     0
SMALL
NO_CHARGES

@<TRIPOS>ATOM
      1 C1         -2.2344   -3.0453    0.4808 C.ar      1 <0>         0.0000
      2 C2         -3.4739   -1.2863   -0.5444 C.ar      1 <0>         0.0000
      3 C3         -3.4477   -2.5833   -0.0295 C.ar      1 <0>         0.0000
      4 C4         -1.2467   -1.0503   -0.0555 C.ar      1 <0>         0.0000
      5 C5         -0.0072    1.0321   -0.9554 C.3       1 <0>         0.0000
      6 C6         -0.2113    1.2216    0.5184 C.3       1 <0>         0.0000
      7 C7         -0.0274   -0.1891   -0.0430 C.3       1 <0>         0.0000
      8 C8          1.2965   -0.8837    0.2069 C.3       1 <0>         0.0000
      9 N1         -1.1395   -2.2819    0.4715 N.ar      1 <0>         0.0000
     10 N2         -2.3795   -0.5240   -0.5603 N.ar      1 <0>         0.0000
     11 O1          1.6938   -1.7218   -0.8802 O.3       1 <0>         0.0000
     12 Br1        -5.0120   -3.6759   -0.0190 Br        1 <0>         0.0000
     13 H1         -2.1437   -4.0435    0.9052 H         1 <0>         0.0000
     14 H2         -4.3889   -0.8586   -0.9501 H         1 <0>         0.0000
     15 H3         -0.8630    1.1748   -1.6048 H         1 <0>         0.0000
     16 H4          0.9563    1.3114   -1.3749 H         1 <0>         0.0000
     17 H5          0.6033    1.6238    1.1139 H         1 <0>         0.0000
     18 H6         -1.2085    1.4823    0.8571 H         1 <0>         0.0000
     19 H7          1.2273   -1.5423    1.0735 H         1 <0>         0.0000
     20 H8          2.0644   -0.1226    0.4104 H         1 <0>         0.0000
     21 H9          1.6789   -1.1818   -1.6866 H         1 <0>         0.0000
@<TRIPOS>BOND
     1    1    3 ar
     2    1    9 ar
     3    1   13 1
     4    2    3 ar
     5    2   10 ar
     6    2   14 1
     7    3   12 1
     8    4    7 1
     9    4    9 ar
    10    4   10 ar
    11    5    6 1
    12    5    7 1
    13    5   15 1
    14    5   16 1
    15    6    7 1
    16    6   17 1
    17    6   18 1
    18    7    8 1
    19    8   11 1
    20    8   19 1
    21    8   20 1
    22   11   21 1
