@<TRIPOS>MOLECULE
*****
   44    47     0     0     0
SMALL
NO_CHARGES

@<TRIPOS>ATOM
      1 C1         -2.2289    2.4344   -2.9373 C.ar      1 <0>         0.0000
      2 C2         -2.4429    0.2080   -3.8375 C.ar      1 <0>         0.0000
      3 C3         -3.6171    2.5580   -2.8805 C.ar      1 <0>         0.0000
      4 C4         -3.8369    0.3148   -3.7990 C.ar      1 <0>         0.0000
      5 C5         -1.6214    1.2580   -3.4074 C.ar      1 <0>         0.0000
      6 C6         -4.3984    1.4897   -3.3134 C.ar      1 <0>         0.0000
      7 C7         -0.7860   -1.7149    1.0101 C.2       1 <0>         0.0000
      8 C8          0.5389    1.4628   -2.0682 C.2       1 <0>         0.0000
      9 C9         -1.9013    1.3370    0.4171 C.3       1 <0>         0.0000
     10 C10        -2.3730   -0.0484   -0.0626 C.3       1 <0>         0.0000
     11 C11        -0.9040    1.3694    1.5851 C.3       1 <0>         0.0000
     12 C12         0.6194    0.2665   -4.3778 C.3       1 <0>         0.0000
     13 C13         0.6134    1.7581   -4.6084 C.3       1 <0>         0.0000
     14 C14        -0.1718   -0.8073   -1.2929 C.3       1 <0>         0.0000
     15 C15         1.1748    0.7142    0.1604 C.3       1 <0>         0.0000
     16 C16        -1.3114   -1.1482   -0.3059 C.3       1 <0>         0.0000
     17 C17         0.3578    0.4946    1.4458 C.3       1 <0>         0.0000
     18 C18        -0.1199    1.1795   -3.4180 C.3       1 <0>         0.0000
     19 N1          0.0903   -0.9272    1.7037 N.am      1 <0>         0.0000
     20 N2          0.4668    0.4904   -1.1008 N.am      1 <0>         0.0000
     21 O1         -1.1169   -2.8290    1.4169 O.2       1 <0>         0.0000
     22 O2          1.0983    2.5445   -1.8647 O.2       1 <0>         0.0000
     23 F1         -5.7509    1.6013   -3.2617 F         1 <0>         0.0000
     24 H1         -1.6013    3.2595   -2.6117 H         1 <0>         0.0000
     25 H2         -2.0002   -0.7148   -4.2014 H         1 <0>         0.0000
     26 H3         -4.0940    3.4612   -2.5123 H         1 <0>         0.0000
     27 H4         -4.4797   -0.4956   -4.1288 H         1 <0>         0.0000
     28 H5         -1.4820    1.8926   -0.4198 H         1 <0>         0.0000
     29 H6         -2.7930    1.8981    0.7212 H         1 <0>         0.0000
     30 H7         -3.0842   -0.4604    0.6639 H         1 <0>         0.0000
     31 H8         -2.9354    0.0924   -0.9907 H         1 <0>         0.0000
     32 H9         -0.5815    2.4081    1.7254 H         1 <0>         0.0000
     33 H10        -1.4020    1.0669    2.5144 H         1 <0>         0.0000
     34 H11         0.0416   -0.3618   -5.0492 H         1 <0>         0.0000
     35 H12         1.5389   -0.1891   -4.0210 H         1 <0>         0.0000
     36 H13         1.5147    2.3236   -4.3982 H         1 <0>         0.0000
     37 H14         0.0005    2.1405   -5.4185 H         1 <0>         0.0000
     38 H15         0.5923   -1.5948   -1.2256 H         1 <0>         0.0000
     39 H16        -0.5713   -0.8435   -2.3002 H         1 <0>         0.0000
     40 H17         1.5344    1.7426    0.1374 H         1 <0>         0.0000
     41 H18         2.0460    0.0463    0.2006 H         1 <0>         0.0000
     42 H19        -1.8360   -1.9995   -0.7482 H         1 <0>         0.0000
     43 H20         1.0394    0.7922    2.2493 H         1 <0>         0.0000
     44 H21         0.3476   -1.3026    2.6097 H         1 <0>         0.0000
@<TRIPOS>BOND
     1    1    3 ar
     2    1    5 ar
     3    1   24 1
     4    2    4 ar
     5    2    5 ar
     6    2   25 1
     7    3    6 ar
     8    3   26 1
     9    4    6 ar
    10    4   27 1
    11    5   18 1
    12    6   23 1
    13    7   16 1
    14    7   19 am
    15    7   21 2
    16    8   18 1
    17    8   20 am
    18    8   22 2
    19    9   10 1
    20    9   11 1
    21    9   28 1
    22    9   29 1
    23   10   16 1
    24   10   30 1
    25   10   31 1
    26   11   17 1
    27   11   32 1
    28   11   33 1
    29   12   13 1
    30   12   18 1
    31   12   34 1
    32   12   35 1
    33   13   18 1
    34   13   36 1
    35   13   37 1
    36   14   16 1
    37   14   20 1
    38   14   38 1
    39   14   39 1
    40   15   17 1
    41   15   20 1
    42   15   40 1
    43   15   41 1
    44   16   42 1
    45   17   19 1
    46   17   43 1
    47   19   44 1
