@<TRIPOS>MOLECULE
*****
   37    40     0     0     0
SMALL
NO_CHARGES

@<TRIPOS>ATOM
      1 C1         -2.4562   -4.9366    1.4906 C.ar      1 <0>         0.0000
      2 C2         -1.4667   -1.1818   -1.4407 C.ar      1 <0>         0.0000
      3 C3         -1.5304   -4.3630    0.6221 C.ar      1 <0>         0.0000
      4 C4         -0.9970   -2.3813   -0.9333 C.ar      1 <0>         0.0000
      5 C5         -3.7084   -4.3295    1.7851 C.ar      1 <0>         0.0000
      6 C6         -2.7390   -0.6198   -1.0954 C.ar      1 <0>         0.0000
      7 C7         -1.8076   -3.1210   -0.0160 C.ar      1 <0>         0.0000
      8 C8         -3.0489   -2.5551    0.3035 C.ar      1 <0>         0.0000
      9 C9         -3.9907   -3.1227    1.1739 C.ar      1 <0>         0.0000
     10 C10        -3.5262   -1.3275   -0.2144 C.ar      1 <0>         0.0000
     11 C11        -5.2349    1.2594    0.7917 C.2       1 <0>         0.0000
     12 C12        -3.9675    2.9338    1.2335 C.2       1 <0>         0.0000
     13 C13        -5.1585   -2.1881    1.2067 C.2       1 <0>         0.0000
     14 C14        -1.4798    3.0107    1.3588 C.3       1 <0>         0.0000
     15 C15        -2.8839    5.0244    2.0539 C.3       1 <0>         0.0000
     16 C16        -5.6813    0.0086    0.1031 C.3       1 <0>         0.0000
     17 C17        -2.7692    3.8204    1.1109 C.3       1 <0>         0.0000
     18 N1         -5.7924    1.8904    1.7750 N.2       1 <0>         0.0000
     19 N2         -4.9629    2.9877    2.0640 N.2       1 <0>         0.0000
     20 N3         -4.7990   -1.1179    0.3434 N.am      1 <0>         0.0000
     21 O1         -6.2205   -2.2688    1.8025 O.2       1 <0>         0.0000
     22 O2         -4.0727    1.8607    0.3806 O.3       1 <0>         0.0000
     23 H1         -2.2143   -5.8855    1.9620 H         1 <0>         0.0000
     24 H2         -0.8435   -0.6262   -2.1367 H         1 <0>         0.0000
     25 H3         -0.5881   -4.8715    0.4311 H         1 <0>         0.0000
     26 H4         -0.0211   -2.7560   -1.2301 H         1 <0>         0.0000
     27 H5         -4.4105   -4.8024    2.4660 H         1 <0>         0.0000
     28 H6         -3.0413    0.3343   -1.5133 H         1 <0>         0.0000
     29 H7         -1.4534    2.6364    2.3874 H         1 <0>         0.0000
     30 H8         -0.6046    3.6496    1.2055 H         1 <0>         0.0000
     31 H9         -1.4050    2.1551    0.6816 H         1 <0>         0.0000
     32 H10        -2.9195    4.6985    3.0971 H         1 <0>         0.0000
     33 H11        -3.7899    5.6026    1.8553 H         1 <0>         0.0000
     34 H12        -2.0156    5.6775    1.9232 H         1 <0>         0.0000
     35 H13        -6.6628   -0.2557    0.5007 H         1 <0>         0.0000
     36 H14        -5.7690    0.1844   -0.9752 H         1 <0>         0.0000
     37 H15        -2.7465    4.1819    0.0740 H         1 <0>         0.0000
@<TRIPOS>BOND
     1    1    3 ar
     2    1    5 ar
     3    1   23 1
     4    2    4 ar
     5    2    6 ar
     6    2   24 1
     7    3    7 ar
     8    3   25 1
     9    4    7 ar
    10    4   26 1
    11    5    9 ar
    12    5   27 1
    13    6   10 ar
    14    6   28 1
    15    7    8 ar
    16    8    9 ar
    17    8   10 ar
    18    9   13 1
    19   10   20 1
    20   11   16 1
    21   11   18 2
    22   11   22 1
    23   12   17 1
    24   12   19 2
    25   12   22 1
    26   13   20 am
    27   13   21 2
    28   14   17 1
    29   14   29 1
    30   14   30 1
    31   14   31 1
    32   15   17 1
    33   15   32 1
    34   15   33 1
    35   15   34 1
    36   16   20 1
    37   16   35 1
    38   16   36 1
    39   17   37 1
    40   18   19 1
