@<TRIPOS>MOLECULE
*****
   21    22     0     0     0
SMALL
NO_CHARGES

@<TRIPOS>ATOM
      1 C1          2.1333   -1.3196   -0.1724 C.ar      1 <0>         0.0000
      2 C2          1.4146   -0.3204    0.4840 C.ar      1 <0>         0.0000
      3 C3          2.8045   -2.2979    0.5651 C.ar      1 <0>         0.0000
      4 C4          1.3719   -0.2610    1.8855 C.ar      1 <0>         0.0000
      5 C5          2.0555   -1.2473    2.6112 C.ar      1 <0>         0.0000
      6 C6          2.7576   -2.2639    1.9601 C.ar      1 <0>         0.0000
      7 C7          0.6679    0.8712    2.5821 C.2       1 <0>         0.0000
      8 C8         -0.7975    2.8795    1.8922 C.3       1 <0>         0.0000
      9 C9         -1.5786    2.0860    2.8866 C.3       1 <0>         0.0000
     10 C10        -0.6011    1.3606    1.9686 C.3       1 <0>         0.0000
     11 O1          1.1367    1.3826    3.5915 O.2       1 <0>         0.0000
     12 F1          2.0089   -1.2463    3.9503 F         1 <0>         0.0000
     13 Br1         3.6483   -3.6029    2.9838 Br        1 <0>         0.0000
     14 H1          2.1730   -1.3424   -1.2573 H         1 <0>         0.0000
     15 H2          0.9021    0.4431   -0.0933 H         1 <0>         0.0000
     16 H3          3.3592   -3.0869    0.0676 H         1 <0>         0.0000
     17 H4         -1.2998    3.2620    1.0089 H         1 <0>         0.0000
     18 H5          0.0282    3.4773    2.2646 H         1 <0>         0.0000
     19 H6         -1.2774    2.1516    3.9269 H         1 <0>         0.0000
     20 H7         -2.6341    1.9106    2.7033 H         1 <0>         0.0000
     21 H8         -1.0265    0.7668    1.1672 H         1 <0>         0.0000
@<TRIPOS>BOND
     1    1    2 ar
     2    1    3 ar
     3    1   14 1
     4    2    4 ar
     5    2   15 1
     6    3    6 ar
     7    3   16 1
     8    4    5 ar
     9    4    7 1
    10    5    6 ar
    11    5   12 1
    12    6   13 1
    13    7   10 1
    14    7   11 2
    15    8    9 1
    16    8   10 1
    17    8   17 1
    18    8   18 1
    19    9   10 1
    20    9   19 1
    21    9   20 1
    22   10   21 1
