@<TRIPOS>MOLECULE
*****
   21    22     0     0     0
SMALL
NO_CHARGES

@<TRIPOS>ATOM
      1 C1         -3.5001   -1.1697   -0.6702 C.ar      1 <0>         0.0000
      2 C2         -2.2333   -3.1109   -0.1188 C.ar      1 <0>         0.0000
      3 C3         -3.4634   -2.5499   -0.4544 C.ar      1 <0>         0.0000
      4 C4         -1.2484   -1.0375   -0.2556 C.ar      1 <0>         0.0000
      5 C5          0.0452    1.0812   -0.9440 C.3       1 <0>         0.0000
      6 C6         -0.1596    1.1447    0.5388 C.3       1 <0>         0.0000
      7 C7         -0.0161   -0.2150   -0.1430 C.3       1 <0>         0.0000
      8 C8          1.2830   -0.9785    0.0571 C.3       1 <0>         0.0000
      9 N1         -2.4031   -0.4203   -0.5734 N.ar      1 <0>         0.0000
     10 N2         -1.1315   -2.3600   -0.0163 N.ar      1 <0>         0.0000
     11 O1          1.3416   -1.6996    1.2829 O.3       1 <0>         0.0000
     12 Br1        -5.0352   -3.6186   -0.6039 Br        1 <0>         0.0000
     13 H1         -4.4303   -0.6652   -0.9257 H         1 <0>         0.0000
     14 H2         -2.1308   -4.1769    0.0736 H         1 <0>         0.0000
     15 H3         -0.8046    1.3033   -1.5801 H         1 <0>         0.0000
     16 H4          1.0174    1.3494   -1.3483 H         1 <0>         0.0000
     17 H5          0.6670    1.4442    1.1759 H         1 <0>         0.0000
     18 H6         -1.1484    1.4096    0.8979 H         1 <0>         0.0000
     19 H7          2.1139   -0.2676    0.0821 H         1 <0>         0.0000
     20 H8          1.4445   -1.6512   -0.7975 H         1 <0>         0.0000
     21 H9          0.6490   -2.3808    1.2111 H         1 <0>         0.0000
@<TRIPOS>BOND
     1    1    3 ar
     2    1    9 ar
     3    1   13 1
     4    2    3 ar
     5    2   10 ar
     6    2   14 1
     7    3   12 1
     8    4    7 1
     9    4    9 ar
    10    4   10 ar
    11    5    6 1
    12    5    7 1
    13    5   15 1
    14    5   16 1
    15    6    7 1
    16    6   17 1
    17    6   18 1
    18    7    8 1
    19    8   11 1
    20    8   19 1
    21    8   20 1
    22   11   21 1
