@<TRIPOS>MOLECULE
*****
   42    45     0     0     0
SMALL
NO_CHARGES

@<TRIPOS>ATOM
      1 C1         -0.8971   -0.1700   -6.4478 C.ar      1 <0>         0.0000
      2 C2         -0.6419    1.2023   -6.5424 C.ar      1 <0>         0.0000
      3 C3         -0.2306   -0.9333   -5.4824 C.ar      1 <0>         0.0000
      4 C4          2.2810   -2.7197   -0.5972 C.ar      1 <0>         0.0000
      5 C5          0.2747    1.8146   -5.6853 C.ar      1 <0>         0.0000
      6 C6          0.6857   -0.3375   -4.6148 C.ar      1 <0>         0.0000
      7 C7          0.9974   -2.2056   -0.4157 C.ar      1 <0>         0.0000
      8 C8          1.9524    0.0307   -0.3392 C.ar      1 <0>         0.0000
      9 C9          3.4105   -1.8944   -0.6837 C.ar      1 <0>         0.0000
     10 C10         0.9330    1.0355   -4.7285 C.ar      1 <0>         0.0000
     11 C11         3.2265   -0.5029   -0.5893 C.ar      1 <0>         0.0000
     12 C12         0.8668   -0.8257   -0.2798 C.ar      1 <0>         0.0000
     13 C13         3.3350    1.8612   -2.3587 C.2       1 <0>         0.0000
     14 C14         2.9321    3.1506   -2.8009 C.2       1 <0>         0.0000
     15 C15         4.4132    1.5431   -1.3886 C.2       1 <0>         0.0000
     16 C16         4.7915   -2.5133   -0.8125 C.3       1 <0>         0.0000
     17 C17         5.9112   -1.4807   -1.0063 C.3       1 <0>         0.0000
     18 C18         5.6195   -0.2172   -0.1940 C.3       1 <0>         0.0000
     19 C19         3.4060    4.5007   -2.3714 C.3       1 <0>         0.0000
     20 N1          2.6509    0.9376   -3.0463 N.2       1 <0>         0.0000
     21 N2          1.9911    2.9850   -3.7344 N.2       1 <0>         0.0000
     22 N3          1.8637    1.6478   -3.8466 N.pl3     1 <0>         0.0000
     23 N4          4.3559    0.3544   -0.6814 N.am      1 <0>         0.0000
     24 O1          5.3605    2.3250   -1.2708 O.2       1 <0>         0.0000
     25 F1         -0.3675   -0.2986   -0.0652 F         1 <0>         0.0000
     26 H1         -1.6115   -0.6400   -7.1180 H         1 <0>         0.0000
     27 H2         -1.1562    1.8025   -7.2879 H         1 <0>         0.0000
     28 H3         -0.4286   -1.9983   -5.3974 H         1 <0>         0.0000
     29 H4          2.4128   -3.7965   -0.6788 H         1 <0>         0.0000
     30 H5          0.4823    2.8767   -5.7451 H         1 <0>         0.0000
     31 H6          1.2016   -0.9138   -3.8552 H         1 <0>         0.0000
     32 H7          0.1225   -2.8452   -0.3581 H         1 <0>         0.0000
     33 H8          1.8029    1.0967   -0.2109 H         1 <0>         0.0000
     34 H9          4.9870   -3.0892    0.1013 H         1 <0>         0.0000
     35 H10         4.7990   -3.2372   -1.6347 H         1 <0>         0.0000
     36 H11         6.8752   -1.9070   -0.7097 H         1 <0>         0.0000
     37 H12         5.9913   -1.1946   -2.0606 H         1 <0>         0.0000
     38 H13         5.5193   -0.4462    0.8733 H         1 <0>         0.0000
     39 H14         6.3934    0.5389   -0.3137 H         1 <0>         0.0000
     40 H15         4.4539    4.6416   -2.6492 H         1 <0>         0.0000
     41 H16         2.7962    5.2763   -2.8394 H         1 <0>         0.0000
     42 H17         3.3509    4.6061   -1.2841 H         1 <0>         0.0000
@<TRIPOS>BOND
     1    1    3 ar
     2    1    2 ar
     3    1   26 1
     4    2    5 ar
     5    2   27 1
     6    3    6 ar
     7    3   28 1
     8    4    7 ar
     9    4    9 ar
    10    4   29 1
    11    5   10 ar
    12    5   30 1
    13    6   10 ar
    14    6   31 1
    15    7   12 ar
    16    7   32 1
    17    8   11 ar
    18    8   12 ar
    19    8   33 1
    20    9   11 ar
    21    9   16 1
    22   10   22 1
    23   11   23 1
    24   12   25 1
    25   13   14 1
    26   13   15 1
    27   13   20 2
    28   14   19 1
    29   14   21 2
    30   15   23 am
    31   15   24 2
    32   16   17 1
    33   16   34 1
    34   16   35 1
    35   17   18 1
    36   17   36 1
    37   17   37 1
    38   18   23 1
    39   18   38 1
    40   18   39 1
    41   19   40 1
    42   19   41 1
    43   19   42 1
    44   20   22 1
    45   21   22 1
