@<TRIPOS>MOLECULE
*****
   21    22     0     0     0
SMALL
NO_CHARGES

@<TRIPOS>ATOM
      1 C1         -0.5811   -0.2698    1.8608 C.ar      1 <0>         0.0000
      2 C2         -0.4224   -0.8848    3.0995 C.ar      1 <0>         0.0000
      3 C3          1.7414   -0.7653    1.4353 C.ar      1 <0>         0.0000
      4 C4          0.5315   -0.2151    1.0283 C.ar      1 <0>         0.0000
      5 C5          0.8321   -1.4065    3.4604 C.ar      1 <0>         0.0000
      6 C6          0.4691   -1.5530    6.0260 C.2       1 <0>         0.0000
      7 C7          1.0391   -3.6643    4.7163 C.3       1 <0>         0.0000
      8 C8          2.3078   -2.9295    4.9805 C.3       1 <0>         0.0000
      9 C9          1.0206   -2.1275    4.7647 C.3       1 <0>         0.0000
     10 N1          1.8850   -1.3486    2.6316 N.ar      1 <0>         0.0000
     11 O1          0.4182   -2.1421    7.0920 O.2       1 <0>         0.0000
     12 O2          0.0489   -0.2638    5.9036 O.3       1 <0>         0.0000
     13 F1          0.4376    0.3711   -0.1900 F         1 <0>         0.0000
     14 H1         -1.5302    0.1506    1.5416 H         1 <0>         0.0000
     15 H2         -1.2609   -0.9546    3.7837 H         1 <0>         0.0000
     16 H3          2.6093   -0.7299    0.7795 H         1 <0>         0.0000
     17 H4          0.8903   -4.0949    3.7311 H         1 <0>         0.0000
     18 H5          0.5544   -4.1719    5.5434 H         1 <0>         0.0000
     19 H6          2.6925   -2.9371    5.9942 H         1 <0>         0.0000
     20 H7          3.0343   -2.8369    4.1823 H         1 <0>         0.0000
     21 H8         -0.2467    0.0008    6.7961 H         1 <0>         0.0000
@<TRIPOS>BOND
     1    1    2 ar
     2    1    4 ar
     3    1   14 1
     4    2    5 ar
     5    2   15 1
     6    3    4 ar
     7    3   10 ar
     8    3   16 1
     9    4   13 1
    10    5    9 1
    11    5   10 ar
    12    6    9 1
    13    6   11 2
    14    6   12 1
    15    7    8 1
    16    7    9 1
    17    7   17 1
    18    7   18 1
    19    8    9 1
    20    8   19 1
    21    8   20 1
    22   12   21 1
