@<TRIPOS>MOLECULE
*****
   18    18     0     0     0
SMALL
NO_CHARGES

@<TRIPOS>ATOM
      1 C1          2.7059   -2.3518    0.3851 C.ar      1 <0>         0.0000
      2 C2          1.4048   -2.0313    0.7720 C.ar      1 <0>         0.0000
      3 C3          2.1993   -1.5245    3.0161 C.ar      1 <0>         0.0000
      4 C4          3.4995   -1.8158    2.6013 C.ar      1 <0>         0.0000
      5 C5          3.7619   -2.2313    1.2889 C.ar      1 <0>         0.0000
      6 C6          1.1763   -1.6219    2.0834 C.ar      1 <0>         0.0000
      7 C7          5.7466   -1.8382    0.0718 C.3       1 <0>         0.0000
      8 N1          4.5722   -1.6746    3.6052 N.pl3     1 <0>         0.0000
      9 O1          4.2547   -1.8612    4.7842 O.3       1 <0>         0.0000
     10 O2          5.6954   -1.3607    3.2120 O.2       1 <0>         0.0000
     11 O3          5.0427   -2.6438    0.9293 O.3       1 <0>         0.0000
     12 F1         -0.0827   -1.3211    2.4661 F         1 <0>         0.0000
     13 F2          5.5998   -0.5305    0.3656 F         1 <0>         0.0000
     14 F3          5.2976   -1.9901   -1.2082 F         1 <0>         0.0000
     15 Cl1         7.4517   -2.2995    0.1443 Cl        1 <0>         0.0000
     16 H1          2.9132   -2.7031   -0.6195 H         1 <0>         0.0000
     17 H2          0.5744   -2.1088    0.0776 H         1 <0>         0.0000
     18 H3          2.0020   -1.2268    4.0393 H         1 <0>         0.0000
@<TRIPOS>BOND
     1    1    2 ar
     2    1    5 ar
     3    1   16 1
     4    2    6 ar
     5    2   17 1
     6    3    4 ar
     7    3    6 ar
     8    3   18 1
     9    4    5 ar
    10    4    8 1
    11    5   11 1
    12    6   12 1
    13    7   11 1
    14    7   13 1
    15    7   14 1
    16    7   15 1
    17    8    9 1
    18    8   10 2
