@<TRIPOS>MOLECULE
*****
   21    22     0     0     0
SMALL
NO_CHARGES

@<TRIPOS>ATOM
      1 C1          2.1916   -0.7909    0.0221 C.ar      1 <0>         0.0000
      2 C2          1.3333   -1.5429    2.5769 C.ar      1 <0>         0.0000
      3 C3          1.0877   -0.1313    0.5901 C.ar      1 <0>         0.0000
      4 C4          2.8614   -1.7846    0.7175 C.ar      1 <0>         0.0000
      5 C5          0.6851   -0.5315    1.8724 C.ar      1 <0>         0.0000
      6 C6          2.4304   -2.1619    1.9909 C.ar      1 <0>         0.0000
      7 C7          0.4147    0.9968   -0.1383 C.2       1 <0>         0.0000
      8 C8          0.7053    2.1814   -2.4099 C.3       1 <0>         0.0000
      9 C9         -0.7179    1.7387   -2.3247 C.3       1 <0>         0.0000
     10 C10         0.3535    0.9101   -1.6265 C.3       1 <0>         0.0000
     11 O1         -0.0392    1.9581    0.4707 O.2       1 <0>         0.0000
     12 F1          3.9334   -2.3968    0.1730 F         1 <0>         0.0000
     13 F2         -0.3859    0.0350    2.4555 F         1 <0>         0.0000
     14 F3          3.0834   -3.1351    2.6488 F         1 <0>         0.0000
     15 H1          2.5597   -0.5111   -0.9595 H         1 <0>         0.0000
     16 H2          0.9892   -1.8428    3.5610 H         1 <0>         0.0000
     17 H3          1.2469    2.0458   -3.3410 H         1 <0>         0.0000
     18 H4          1.0029    3.0344   -1.8086 H         1 <0>         0.0000
     19 H5         -1.3771    2.2953   -1.6669 H         1 <0>         0.0000
     20 H6         -1.1792    1.2919   -3.1997 H         1 <0>         0.0000
     21 H7          0.6157   -0.0381   -2.0826 H         1 <0>         0.0000
@<TRIPOS>BOND
     1    1    3 ar
     2    1    4 ar
     3    1   15 1
     4    2    5 ar
     5    2    6 ar
     6    2   16 1
     7    3    5 ar
     8    3    7 1
     9    4    6 ar
    10    4   12 1
    11    5   13 1
    12    6   14 1
    13    7   10 1
    14    7   11 2
    15    8    9 1
    16    8   10 1
    17    8   17 1
    18    8   18 1
    19    9   10 1
    20    9   19 1
    21    9   20 1
    22   10   21 1
