@<TRIPOS>MOLECULE
*****
   16    16     0     0     0
SMALL
NO_CHARGES

@<TRIPOS>ATOM
      1 C1          1.8473   -0.9261   -0.1080 C.ar      1 <0>         0.0000
      2 C2          0.7737   -0.2863    0.5123 C.ar      1 <0>         0.0000
      3 C3          2.4239   -1.9935    2.0060 C.ar      1 <0>         0.0000
      4 C4          2.6651   -1.7592    0.6536 C.ar      1 <0>         0.0000
      5 C5          0.5367   -0.4977    1.8674 C.ar      1 <0>         0.0000
      6 C6          1.3476   -1.3507    2.6196 C.ar      1 <0>         0.0000
      7 C7          4.9550   -1.9447   -0.0562 C.3       1 <0>         0.0000
      8 O1          3.6960   -2.4760    0.0195 O.3       1 <0>         0.0000
      9 F1         -0.5047    0.1261    2.4505 F         1 <0>         0.0000
     10 Cl1         4.9916   -0.3704   -0.9691 Cl        1 <0>         0.0000
     11 Cl2         5.9373   -3.1555   -0.9272 Cl        1 <0>         0.0000
     12 Cl3         5.6811   -1.6432    1.5838 Cl        1 <0>         0.0000
     13 Br1         0.9770   -1.6398    4.4633 Br        1 <0>         0.0000
     14 H1          2.0449   -0.7873   -1.1644 H         1 <0>         0.0000
     15 H2          0.1118    0.3727   -0.0405 H         1 <0>         0.0000
     16 H3          3.0589   -2.6692    2.5661 H         1 <0>         0.0000
@<TRIPOS>BOND
     1    1    2 ar
     2    1    4 ar
     3    1   14 1
     4    2    5 ar
     5    2   15 1
     6    3    4 ar
     7    3    6 ar
     8    3   16 1
     9    4    8 1
    10    5    6 ar
    11    5    9 1
    12    6   13 1
    13    7    8 1
    14    7   10 1
    15    7   11 1
    16    7   12 1
