@<TRIPOS>MOLECULE
*****
   49    52     0     0     0
SMALL
NO_CHARGES

@<TRIPOS>ATOM
      1 C1         -0.6032   -9.7468   -2.1593 C.2       1 <0>         0.0000
      2 C2         -1.1961   -7.6621   -1.0881 C.2       1 <0>         0.0000
      3 C3         -0.2051   -2.1917    1.3171 C.2       1 <0>         0.0000
      4 C4         -2.6059   -4.6484    0.5770 C.3       1 <0>         0.0000
      5 C5         -1.6310   -3.7282    2.7900 C.3       1 <0>         0.0000
      6 C6         -2.6505   -5.8877   -0.3204 C.3       1 <0>         0.0000
      7 C7         -0.5075    0.1511    0.6620 C.3       1 <0>         0.0000
      8 C8         -0.8102   -0.4256    3.0277 C.3       1 <0>         0.0000
      9 C9         -1.8858    0.8297    0.6747 C.3       1 <0>         0.0000
     10 C10        -2.1822    0.2764    2.9921 C.3       1 <0>         0.0000
     11 C11        -0.1788   -5.7213    0.0946 C.3       1 <0>         0.0000
     12 C12        -0.2036   -3.2545    2.4379 C.3       1 <0>         0.0000
     13 C13        -1.8480   -4.9507    1.8767 C.3       1 <0>         0.0000
     14 C14        -0.4050   -5.4404    1.5868 C.3       1 <0>         0.0000
     15 C15         0.0295  -10.9715   -2.7428 C.3       1 <0>         0.0000
     16 C16        -1.5991    2.5723    2.3758 C.3       1 <0>         0.0000
     17 N1         -1.8699   -9.4781   -2.2118 N.2       1 <0>         0.0000
     18 N2         -2.2266   -8.2934   -1.6120 N.2       1 <0>         0.0000
     19 N3         -1.3104   -6.4853   -0.4225 N.pl3     1 <0>         0.0000
     20 N4         -0.4603   -0.8982    1.6867 N.am      1 <0>         0.0000
     21 N5         -2.2816    1.3381    1.9923 N.3       1 <0>         0.0000
     22 O1         -0.0039   -2.5094    0.1425 O.2       1 <0>         0.0000
     23 O2          0.4998   -4.4214    2.0456 O.3       1 <0>         0.0000
     24 S1          0.3435   -8.5058   -1.3188 S.3       1 <0>         0.0000
     25 H1         -2.1336   -3.8149    0.0507 H         1 <0>         0.0000
     26 H2         -3.6349   -4.3479    0.8017 H         1 <0>         0.0000
     27 H3         -1.6612   -4.0271    3.8421 H         1 <0>         0.0000
     28 H4         -2.3904   -2.9569    2.6362 H         1 <0>         0.0000
     29 H5         -3.3303   -6.6411    0.0925 H         1 <0>         0.0000
     30 H6         -3.0255   -5.6398   -1.3207 H         1 <0>         0.0000
     31 H7         -0.3037   -0.3124   -0.3027 H         1 <0>         0.0000
     32 H8          0.2875    0.8797    0.8683 H         1 <0>         0.0000
     33 H9         -0.0338    0.2697    3.3744 H         1 <0>         0.0000
     34 H10        -0.8458   -1.2513    3.7361 H         1 <0>         0.0000
     35 H11        -1.9024    1.6550   -0.0445 H         1 <0>         0.0000
     36 H12        -2.6367    0.0968    0.3541 H         1 <0>         0.0000
     37 H13        -2.9484   -0.4763    2.7644 H         1 <0>         0.0000
     38 H14        -2.4092    0.6912    3.9800 H         1 <0>         0.0000
     39 H15        -0.0582   -4.7714   -0.4333 H         1 <0>         0.0000
     40 H16         0.7420   -6.2906   -0.0371 H         1 <0>         0.0000
     41 H17         0.3244   -2.8612    3.3108 H         1 <0>         0.0000
     42 H18        -2.3946   -5.7297    2.4174 H         1 <0>         0.0000
     43 H19        -0.1837   -6.3465    2.1616 H         1 <0>         0.0000
     44 H20         0.7747  -10.7145   -3.5034 H         1 <0>         0.0000
     45 H21         0.5286  -11.5711   -1.9738 H         1 <0>         0.0000
     46 H22        -0.7532  -11.5752   -3.2069 H         1 <0>         0.0000
     47 H23        -1.7958    3.3390    1.6198 H         1 <0>         0.0000
     48 H24        -0.5047    2.4882    2.4908 H         1 <0>         0.0000
     49 H25        -2.0085    2.9283    3.3267 H         1 <0>         0.0000
@<TRIPOS>BOND
     1    1   15 1
     2    1   17 2
     3    1   24 1
     4    2   18 2
     5    2   19 1
     6    2   24 1
     7    3   12 1
     8    3   20 am
     9    3   22 2
    10    4    6 1
    11    4   13 1
    12    4   25 1
    13    4   26 1
    14    5   12 1
    15    5   13 1
    16    5   27 1
    17    5   28 1
    18    6   19 1
    19    6   29 1
    20    6   30 1
    21    7    9 1
    22    7   20 1
    23    7   31 1
    24    7   32 1
    25    8   10 1
    26    8   20 1
    27    8   33 1
    28    8   34 1
    29    9   21 1
    30    9   35 1
    31    9   36 1
    32   10   21 1
    33   10   37 1
    34   10   38 1
    35   11   14 1
    36   11   19 1
    37   11   39 1
    38   11   40 1
    39   12   23 1
    40   12   41 1
    41   13   14 1
    42   13   42 1
    43   14   23 1
    44   14   43 1
    45   15   44 1
    46   15   45 1
    47   15   46 1
    48   16   21 1
    49   16   47 1
    50   16   48 1
    51   16   49 1
    52   17   18 1
