@<TRIPOS>MOLECULE
*****
   34    35     0     0     0
SMALL
NO_CHARGES

@<TRIPOS>ATOM
      1 C1          0.9336   -1.6418    0.4972 C.2       1 <0>         0.0000
      2 C2         -0.2657    1.3262   -2.4000 C.3       1 <0>         0.0000
      3 C3          0.4805    0.0612   -2.8068 C.3       1 <0>         0.0000
      4 C4         -1.1621    0.9983   -1.2086 C.3       1 <0>         0.0000
      5 C5          0.4157    1.4655    0.7713 C.3       1 <0>         0.0000
      6 C6         -1.5606   -0.0743    0.9996 C.3       1 <0>         0.0000
      7 C7          1.2606   -0.4782   -1.6146 C.3       1 <0>         0.0000
      8 C8         -0.4234    2.5768    1.4121 C.3       1 <0>         0.0000
      9 C9         -2.3445    1.0968    1.6061 C.3       1 <0>         0.0000
     10 C10        -0.4473    0.4114    0.0365 C.3       1 <0>         0.0000
     11 C11         1.7515   -2.8119   -0.0494 C.3       1 <0>         0.0000
     12 N1         -1.4210    1.9927    2.3114 N.3       1 <0>         0.0000
     13 N2          0.4252   -0.7298   -0.4191 N.am      1 <0>         0.0000
     14 O1          0.7408   -1.5810    1.7116 O.2       1 <0>         0.0000
     15 H1          0.4511    2.1167   -2.1441 H         1 <0>         0.0000
     16 H2         -0.8748    1.7086   -3.2269 H         1 <0>         0.0000
     17 H3         -0.2339   -0.6973   -3.1509 H         1 <0>         0.0000
     18 H4          1.1818    0.2501   -3.6279 H         1 <0>         0.0000
     19 H5         -1.7148    1.8890   -0.9072 H         1 <0>         0.0000
     20 H6         -1.9112    0.2663   -1.5356 H         1 <0>         0.0000
     21 H7          1.1455    1.9132    0.0877 H         1 <0>         0.0000
     22 H8          0.9669    0.9489    1.5611 H         1 <0>         0.0000
     23 H9         -1.1198   -0.6312    1.8208 H         1 <0>         0.0000
     24 H10        -2.2411   -0.7428    0.4596 H         1 <0>         0.0000
     25 H11         1.7525   -1.4047   -1.8996 H         1 <0>         0.0000
     26 H12         2.0580    0.2370   -1.3596 H         1 <0>         0.0000
     27 H13         0.2346    3.2263    2.0001 H         1 <0>         0.0000
     28 H14        -0.8763    3.2093    0.6254 H         1 <0>         0.0000
     29 H15        -2.9387    1.6215    0.8364 H         1 <0>         0.0000
     30 H16        -3.0564    0.6955    2.3354 H         1 <0>         0.0000
     31 H17         2.7873   -2.5148   -0.2452 H         1 <0>         0.0000
     32 H18         1.3357   -3.2372   -0.9670 H         1 <0>         0.0000
     33 H19         1.7633   -3.5739    0.7305 H         1 <0>         0.0000
     34 H20        -1.9453    2.7349    2.7689 H         1 <0>         0.0000
@<TRIPOS>BOND
     1    1   11 1
     2    1   13 am
     3    1   14 2
     4    2    3 1
     5    2    4 1
     6    2   15 1
     7    2   16 1
     8    3    7 1
     9    3   17 1
    10    3   18 1
    11    4   10 1
    12    4   19 1
    13    4   20 1
    14    5    8 1
    15    5   10 1
    16    5   21 1
    17    5   22 1
    18    6    9 1
    19    6   10 1
    20    6   23 1
    21    6   24 1
    22    7   13 1
    23    7   25 1
    24    7   26 1
    25    8   12 1
    26    8   27 1
    27    8   28 1
    28    9   12 1
    29    9   29 1
    30    9   30 1
    31   10   13 1
    32   11   31 1
    33   11   32 1
    34   11   33 1
    35   12   34 1
