@<TRIPOS>MOLECULE
*****
   36    38     0     0     0
SMALL
NO_CHARGES

@<TRIPOS>ATOM
      1 C1         -5.6764    3.4129   -0.8310 C.ar      1 <0>         0.0000
      2 C2         -6.2047    2.8007   -1.9705 C.ar      1 <0>         0.0000
      3 C3         -5.3481    2.6390    0.2830 C.ar      1 <0>         0.0000
      4 C4         -6.4085    1.4194   -1.9791 C.ar      1 <0>         0.0000
      5 C5         -5.5356    1.2472    0.3058 C.ar      1 <0>         0.0000
      6 C6         -6.0830    0.6634   -0.8510 C.ar      1 <0>         0.0000
      7 C7         -4.2539   -0.7674    1.3781 C.2       1 <0>         0.0000
      8 C8         -0.3173   -0.4509    1.0449 C.3       1 <0>         0.0000
      9 C9         -1.2482    0.7625    1.1779 C.3       1 <0>         0.0000
     10 C10        -1.0910   -1.7597    1.2605 C.3       1 <0>         0.0000
     11 C11        -5.2183    1.0456    2.9041 C.3       1 <0>         0.0000
     12 C12        -6.3549    0.1629    2.4791 C.3       1 <0>         0.0000
     13 C13        -2.4830    0.6240    0.2738 C.3       1 <0>         0.0000
     14 C14        -2.3196   -1.8161    0.3453 C.3       1 <0>         0.0000
     15 C15        -5.2088    0.4165    1.5120 C.3       1 <0>         0.0000
     16 N1         -3.1783   -0.6399    0.5320 N.am      1 <0>         0.0000
     17 O1         -4.4662   -1.8099    2.0024 O.2       1 <0>         0.0000
     18 Cl1        -6.4035   -1.0622   -0.9016 Cl        1 <0>         0.0000
     19 H1         -5.5146    4.4872   -0.8103 H         1 <0>         0.0000
     20 H2         -6.4615    3.3889   -2.8472 H         1 <0>         0.0000
     21 H3         -4.9188    3.1217    1.1560 H         1 <0>         0.0000
     22 H4         -6.8267    0.9251   -2.8503 H         1 <0>         0.0000
     23 H5          0.5138   -0.3728    1.7548 H         1 <0>         0.0000
     24 H6          0.1263   -0.4543    0.0393 H         1 <0>         0.0000
     25 H7         -1.5861    0.8580    2.2180 H         1 <0>         0.0000
     26 H8         -0.7178    1.6880    0.9230 H         1 <0>         0.0000
     27 H9         -0.4474   -2.6253    1.0651 H         1 <0>         0.0000
     28 H10        -1.4291   -1.8336    2.3007 H         1 <0>         0.0000
     29 H11        -5.3926    2.1130    2.9915 H         1 <0>         0.0000
     30 H12        -4.5070    0.6406    3.6172 H         1 <0>         0.0000
     31 H13        -6.4125   -0.8389    2.8877 H         1 <0>         0.0000
     32 H14        -7.2970    0.6403    2.2295 H         1 <0>         0.0000
     33 H15        -3.1569    1.4611    0.4233 H         1 <0>         0.0000
     34 H16        -2.1801    0.6389   -0.7816 H         1 <0>         0.0000
     35 H17        -2.0043   -1.8253   -0.7066 H         1 <0>         0.0000
     36 H18        -2.9164   -2.7063    0.5372 H         1 <0>         0.0000
@<TRIPOS>BOND
     1    1    2 ar
     2    1    3 ar
     3    1   19 1
     4    2    4 ar
     5    2   20 1
     6    3    5 ar
     7    3   21 1
     8    4    6 ar
     9    4   22 1
    10    5    6 ar
    11    5   15 1
    12    6   18 1
    13    7   15 1
    14    7   16 am
    15    7   17 2
    16    8   10 1
    17    8    9 1
    18    8   23 1
    19    8   24 1
    20    9   13 1
    21    9   25 1
    22    9   26 1
    23   10   14 1
    24   10   27 1
    25   10   28 1
    26   11   12 1
    27   11   15 1
    28   11   29 1
    29   11   30 1
    30   12   15 1
    31   12   31 1
    32   12   32 1
    33   13   16 1
    34   13   33 1
    35   13   34 1
    36   14   16 1
    37   14   35 1
    38   14   36 1
