@<TRIPOS>MOLECULE
*****
   40    42     0     0     0
SMALL
NO_CHARGES

@<TRIPOS>ATOM
      1 C1          5.0069   -3.0525   -0.0162 C.ar      1 <0>         0.0000
      2 C2          5.8864   -2.1268   -0.6038 C.ar      1 <0>         0.0000
      3 C3          3.6471   -2.7959    0.0140 C.ar      1 <0>         0.0000
      4 C4          5.3134   -0.9744   -1.1285 C.ar      1 <0>         0.0000
      5 C5          3.1684   -1.5865   -0.5630 C.ar      1 <0>         0.0000
      6 C6         -0.1087    0.7109    0.9730 C.2       1 <0>         0.0000
      7 C7         -2.3452    1.1658   -0.8365 C.3       1 <0>         0.0000
      8 C8         -0.9589    0.9344   -1.4285 C.3       1 <0>         0.0000
      9 C9         -0.4832   -1.3582   -0.3540 C.3       1 <0>         0.0000
     10 C10        -2.2217    1.9759    0.4470 C.3       1 <0>         0.0000
     11 C11         0.8069   -2.0767    0.0499 C.3       1 <0>         0.0000
     12 C12         1.3816    0.0644   -0.9524 C.3       1 <0>         0.0000
     13 C13        -0.0789    0.1413   -0.4564 C.3       1 <0>         0.0000
     14 C14        -1.2354    2.0016    2.7070 C.3       1 <0>         0.0000
     15 C15         6.1689    0.0965   -1.7809 C.3       1 <0>         0.0000
     16 N1          4.0086   -0.6935   -1.1211 N.ar      1 <0>         0.0000
     17 N2          1.8424   -1.2772   -0.5928 N.pl3     1 <0>         0.0000
     18 N3         -1.2043    1.4443    1.3580 N.am      1 <0>         0.0000
     19 O1          0.8004    0.4370    1.7626 O.2       1 <0>         0.0000
     20 F1          7.4875   -0.2296   -1.7638 F         1 <0>         0.0000
     21 F2          5.8268    0.2921   -3.0773 F         1 <0>         0.0000
     22 F3          6.0473    1.2897   -1.1533 F         1 <0>         0.0000
     23 H1          5.3933   -3.9687    0.4228 H         1 <0>         0.0000
     24 H2          6.9554   -2.2954   -0.6427 H         1 <0>         0.0000
     25 H3          2.9639   -3.4962    0.4806 H         1 <0>         0.0000
     26 H4         -2.9883    1.7086   -1.5369 H         1 <0>         0.0000
     27 H5         -2.8317    0.2064   -0.6278 H         1 <0>         0.0000
     28 H6         -1.0192    0.3986   -2.3824 H         1 <0>         0.0000
     29 H7         -0.4876    1.9035   -1.6397 H         1 <0>         0.0000
     30 H8         -0.8093   -1.7017   -1.3421 H         1 <0>         0.0000
     31 H9         -1.2948   -1.5412    0.3542 H         1 <0>         0.0000
     32 H10        -1.9782    3.0225    0.2059 H         1 <0>         0.0000
     33 H11        -3.1772    1.9894    0.9837 H         1 <0>         0.0000
     34 H12         0.9343   -2.0821    1.1399 H         1 <0>         0.0000
     35 H13         0.8230   -3.1105   -0.3132 H         1 <0>         0.0000
     36 H14         1.4263    0.2039   -2.0394 H         1 <0>         0.0000
     37 H15         2.0167    0.8244   -0.4932 H         1 <0>         0.0000
     38 H16        -1.0791    3.0882    2.6820 H         1 <0>         0.0000
     39 H17        -0.4458    1.5431    3.2992 H         1 <0>         0.0000
     40 H18        -2.2087    1.8009    3.1685 H         1 <0>         0.0000
@<TRIPOS>BOND
     1    1    2 ar
     2    1    3 ar
     3    1   23 1
     4    2    4 ar
     5    2   24 1
     6    3    5 ar
     7    3   25 1
     8    4   15 1
     9    4   16 ar
    10    5   16 ar
    11    5   17 1
    12    6   13 1
    13    6   18 am
    14    6   19 2
    15    7    8 1
    16    7   10 1
    17    7   26 1
    18    7   27 1
    19    8   13 1
    20    8   28 1
    21    8   29 1
    22    9   11 1
    23    9   13 1
    24    9   30 1
    25    9   31 1
    26   10   18 1
    27   10   32 1
    28   10   33 1
    29   11   17 1
    30   11   34 1
    31   11   35 1
    32   12   13 1
    33   12   17 1
    34   12   36 1
    35   12   37 1
    36   14   18 1
    37   14   38 1
    38   14   39 1
    39   14   40 1
    40   15   20 1
    41   15   21 1
    42   15   22 1
