@<TRIPOS>MOLECULE
*****
   44    47     0     0     0
SMALL
NO_CHARGES

@<TRIPOS>ATOM
      1 C1         -1.5518    3.8425   -2.3862 C.ar      1 <0>         0.0000
      2 C2         -3.6116    2.9524   -1.5110 C.ar      1 <0>         0.0000
      3 C3         -1.9928    5.1428   -2.1401 C.ar      1 <0>         0.0000
      4 C4         -4.0767    4.2485   -1.2626 C.ar      1 <0>         0.0000
      5 C5         -2.3493    2.7268   -2.0767 C.ar      1 <0>         0.0000
      6 C6         -3.2551    5.3224   -1.5810 C.ar      1 <0>         0.0000
      7 C7         -0.4192   -1.1553    0.1961 C.2       1 <0>         0.0000
      8 C8         -0.3524    1.1323   -2.0657 C.2       1 <0>         0.0000
      9 C9          1.2527    0.5766    2.5332 C.3       1 <0>         0.0000
     10 C10        -0.1544   -0.0300    2.4924 C.3       1 <0>         0.0000
     11 C11         2.2783   -0.0760    1.6003 C.3       1 <0>         0.0000
     12 C12        -2.7124    0.1181   -2.3499 C.3       1 <0>         0.0000
     13 C13        -2.2938    0.6934   -3.6734 C.3       1 <0>         0.0000
     14 C14        -0.8616    1.3374    0.3741 C.3       1 <0>         0.0000
     15 C15         1.4730    1.2561   -0.4775 C.3       1 <0>         0.0000
     16 C16        -0.8775   -0.0318    1.1265 C.3       1 <0>         0.0000
     17 C17         1.8909   -0.1343    0.1110 C.3       1 <0>         0.0000
     18 C18        -1.8219    1.3548   -2.3901 C.3       1 <0>         0.0000
     19 N1          0.8991   -1.1734   -0.1640 N.am      1 <0>         0.0000
     20 N2          0.0516    1.3754   -0.7672 N.am      1 <0>         0.0000
     21 O1         -1.2072   -2.0087   -0.2184 O.2       1 <0>         0.0000
     22 O2          0.4562    0.8000   -2.9350 O.2       1 <0>         0.0000
     23 F1         -3.6946    6.5860   -1.3381 F         1 <0>         0.0000
     24 H1         -0.5727    3.6900   -2.8325 H         1 <0>         0.0000
     25 H2         -4.2485    2.1136   -1.2479 H         1 <0>         0.0000
     26 H3         -1.3803    6.0071   -2.3790 H         1 <0>         0.0000
     27 H4         -5.0543    4.4272   -0.8252 H         1 <0>         0.0000
     28 H5          1.1925    1.6494    2.3178 H         1 <0>         0.0000
     29 H6          1.6271    0.5092    3.5611 H         1 <0>         0.0000
     30 H7         -0.1241   -1.0615    2.8644 H         1 <0>         0.0000
     31 H8         -0.7839    0.5285    3.1958 H         1 <0>         0.0000
     32 H9          3.2216    0.4788    1.6793 H         1 <0>         0.0000
     33 H10         2.4857   -1.1003    1.9306 H         1 <0>         0.0000
     34 H11        -3.7440    0.2405   -2.0354 H         1 <0>         0.0000
     35 H12        -2.2565   -0.8074   -2.0151 H         1 <0>         0.0000
     36 H13        -1.5375    0.1738   -4.2513 H         1 <0>         0.0000
     37 H14        -3.0332    1.2437   -4.2468 H         1 <0>         0.0000
     38 H15        -1.8628    1.5510    0.0155 H         1 <0>         0.0000
     39 H16        -0.5963    2.1471    1.0620 H         1 <0>         0.0000
     40 H17         1.7515    2.0532    0.2189 H         1 <0>         0.0000
     41 H18         2.0006    1.4222   -1.4144 H         1 <0>         0.0000
     42 H19        -1.9217   -0.2808    1.3245 H         1 <0>         0.0000
     43 H20         2.7847   -0.4543   -0.4296 H         1 <0>         0.0000
     44 H21         1.1058   -1.8429   -0.8966 H         1 <0>         0.0000
@<TRIPOS>BOND
     1    1    3 ar
     2    1    5 ar
     3    1   24 1
     4    2    4 ar
     5    2    5 ar
     6    2   25 1
     7    3    6 ar
     8    3   26 1
     9    4    6 ar
    10    4   27 1
    11    5   18 1
    12    6   23 1
    13    7   16 1
    14    7   19 am
    15    7   21 2
    16    8   18 1
    17    8   20 am
    18    8   22 2
    19    9   10 1
    20    9   11 1
    21    9   28 1
    22    9   29 1
    23   10   16 1
    24   10   30 1
    25   10   31 1
    26   11   17 1
    27   11   32 1
    28   11   33 1
    29   12   13 1
    30   12   18 1
    31   12   34 1
    32   12   35 1
    33   13   18 1
    34   13   36 1
    35   13   37 1
    36   14   16 1
    37   14   20 1
    38   14   38 1
    39   14   39 1
    40   15   17 1
    41   15   20 1
    42   15   40 1
    43   15   41 1
    44   16   42 1
    45   17   19 1
    46   17   43 1
    47   19   44 1
