@<TRIPOS>MOLECULE
*****
   44    47     0     0     0
SMALL
NO_CHARGES

@<TRIPOS>ATOM
      1 C1         -2.4718   -1.2662   -2.6347 C.ar      1 <0>         0.0000
      2 C2         -4.0392   -0.1951   -1.1467 C.ar      1 <0>         0.0000
      3 C3         -3.0983   -2.4936   -2.4300 C.ar      1 <0>         0.0000
      4 C4         -4.6854   -1.4162   -0.9336 C.ar      1 <0>         0.0000
      5 C5         -2.9300   -0.1025   -1.9957 C.ar      1 <0>         0.0000
      6 C6         -4.1967   -2.5450   -1.5777 C.ar      1 <0>         0.0000
      7 C7         -0.8767   -1.3973    0.5543 C.2       1 <0>         0.0000
      8 C8         -0.7117    1.1256   -1.9350 C.2       1 <0>         0.0000
      9 C9          0.7543    0.4537    2.7403 C.3       1 <0>         0.0000
     10 C10        -0.6802   -0.0897    2.7075 C.3       1 <0>         0.0000
     11 C11         1.7679   -0.2779    1.8512 C.3       1 <0>         0.0000
     12 C12        -2.5530    1.9779   -3.4918 C.3       1 <0>         0.0000
     13 C13        -2.8968    2.5314   -2.1290 C.3       1 <0>         0.0000
     14 C14        -1.2722    1.1702    0.5089 C.3       1 <0>         0.0000
     15 C15         1.0755    1.0142   -0.2949 C.3       1 <0>         0.0000
     16 C16        -1.3557   -0.1609    1.3169 C.3       1 <0>         0.0000
     17 C17         1.4223   -0.3658    0.3503 C.3       1 <0>         0.0000
     18 C18        -2.2015    1.1887   -2.2514 C.3       1 <0>         0.0000
     19 N1          0.3993   -1.3692    0.0602 N.am      1 <0>         0.0000
     20 N2         -0.3368    1.1681   -0.6103 N.am      1 <0>         0.0000
     21 O1         -1.5927   -2.3887    0.4246 O.2       1 <0>         0.0000
     22 O2          0.1203    1.0402   -2.8413 O.2       1 <0>         0.0000
     23 F1         -4.8117   -3.7378   -1.3696 F         1 <0>         0.0000
     24 H1         -1.6090   -1.2029   -3.2924 H         1 <0>         0.0000
     25 H2         -4.4113    0.6905   -0.6387 H         1 <0>         0.0000
     26 H3         -2.7434   -3.4019   -2.9065 H         1 <0>         0.0000
     27 H4         -5.5418   -1.5005   -0.2717 H         1 <0>         0.0000
     28 H5          0.7458    1.5176    2.4776 H         1 <0>         0.0000
     29 H6          1.1130    0.4156    3.7753 H         1 <0>         0.0000
     30 H7         -0.7107   -1.0914    3.1526 H         1 <0>         0.0000
     31 H8         -1.3001    0.5484    3.3493 H         1 <0>         0.0000
     32 H9          2.7345    0.2339    1.9413 H         1 <0>         0.0000
     33 H10         1.9191   -1.2997    2.2195 H         1 <0>         0.0000
     34 H11        -3.3661    1.5922   -4.0985 H         1 <0>         0.0000
     35 H12        -1.7291    2.4199   -4.0418 H         1 <0>         0.0000
     36 H13        -2.3093    3.3667   -1.7578 H         1 <0>         0.0000
     37 H14        -3.9406    2.5492   -1.8295 H         1 <0>         0.0000
     38 H15        -2.2568    1.4078    0.1212 H         1 <0>         0.0000
     39 H16        -0.9977    1.9900    1.1838 H         1 <0>         0.0000
     40 H17         1.3840    1.8259    0.3727 H         1 <0>         0.0000
     41 H18         1.6148    1.1256   -1.2332 H         1 <0>         0.0000
     42 H19        -2.4129   -0.3721    1.4865 H         1 <0>         0.0000
     43 H20         2.3215   -0.7309   -0.1524 H         1 <0>         0.0000
     44 H21         0.6815   -2.2289   -0.3953 H         1 <0>         0.0000
@<TRIPOS>BOND
     1    1    3 ar
     2    1    5 ar
     3    1   24 1
     4    2    4 ar
     5    2    5 ar
     6    2   25 1
     7    3    6 ar
     8    3   26 1
     9    4    6 ar
    10    4   27 1
    11    5   18 1
    12    6   23 1
    13    7   16 1
    14    7   19 am
    15    7   21 2
    16    8   18 1
    17    8   20 am
    18    8   22 2
    19    9   10 1
    20    9   11 1
    21    9   28 1
    22    9   29 1
    23   10   16 1
    24   10   30 1
    25   10   31 1
    26   11   17 1
    27   11   32 1
    28   11   33 1
    29   12   13 1
    30   12   18 1
    31   12   34 1
    32   12   35 1
    33   13   18 1
    34   13   36 1
    35   13   37 1
    36   14   16 1
    37   14   20 1
    38   14   38 1
    39   14   39 1
    40   15   17 1
    41   15   20 1
    42   15   40 1
    43   15   41 1
    44   16   42 1
    45   17   19 1
    46   17   43 1
    47   19   44 1
