@<TRIPOS>MOLECULE
*****
   36    38     0     0     0
SMALL
NO_CHARGES

@<TRIPOS>ATOM
      1 C1         -0.1263    4.1310    2.8303 C.ar      1 <0>         0.0000
      2 C2         -0.8819    2.9547    2.8724 C.ar      1 <0>         0.0000
      3 C3          1.2688    4.0814    2.8866 C.ar      1 <0>         0.0000
      4 C4          1.1448    1.6472    3.0386 C.ar      1 <0>         0.0000
      5 C5         -0.2559    1.7055    2.9727 C.ar      1 <0>         0.0000
      6 C6          1.8707    2.8304    2.9927 C.ar      1 <0>         0.0000
      7 C7         -0.4828   -0.6193    2.0211 C.2       1 <0>         0.0000
      8 C8          1.3767    1.4155   -2.6687 C.3       1 <0>         0.0000
      9 C9          0.1058    0.6628   -3.0268 C.3       1 <0>         0.0000
     10 C10         1.1195   -0.5346   -0.9491 C.3       1 <0>         0.0000
     11 C11        -0.2235    1.5842   -0.6149 C.3       1 <0>         0.0000
     12 C12        -0.0118   -1.3202   -0.2704 C.3       1 <0>         0.0000
     13 C13        -1.3074    0.7334    0.0651 C.3       1 <0>         0.0000
     14 C14         0.5783    0.7349   -1.5886 C.3       1 <0>         0.0000
     15 C15        -1.0617    0.4193    2.9869 C.3       1 <0>         0.0000
     16 N1         -0.7221   -0.4588    0.6818 N.am      1 <0>         0.0000
     17 O1          0.1967   -1.5500    2.4651 O.2       1 <0>         0.0000
     18 F1          3.2266    2.7645    3.0491 F         1 <0>         0.0000
     19 H1         -0.6254    5.0929    2.7496 H         1 <0>         0.0000
     20 H2         -1.9667    3.0103    2.8218 H         1 <0>         0.0000
     21 H3          1.8806    4.9774    2.8516 H         1 <0>         0.0000
     22 H4          1.6631    0.6953    3.1132 H         1 <0>         0.0000
     23 H5          2.3272    0.9744   -2.9571 H         1 <0>         0.0000
     24 H6          1.3549    2.5012   -2.7153 H         1 <0>         0.0000
     25 H7         -0.7652    1.2460   -3.3148 H         1 <0>         0.0000
     26 H8          0.2066   -0.2812   -3.5561 H         1 <0>         0.0000
     27 H9          1.8738   -0.2800   -0.1939 H         1 <0>         0.0000
     28 H10         1.6085   -1.1674   -1.6987 H         1 <0>         0.0000
     29 H11        -0.6942    2.4284   -1.1321 H         1 <0>         0.0000
     30 H12         0.4378    1.9993    0.1545 H         1 <0>         0.0000
     31 H13        -0.7326   -1.6654   -1.0223 H         1 <0>         0.0000
     32 H14         0.3686   -2.1827    0.2747 H         1 <0>         0.0000
     33 H15        -1.8479    1.3179    0.8062 H         1 <0>         0.0000
     34 H16        -2.0365    0.4002   -0.6850 H         1 <0>         0.0000
     35 H17        -1.0059   -0.0474    3.9734 H         1 <0>         0.0000
     36 H18        -2.1143    0.6305    2.7801 H         1 <0>         0.0000
@<TRIPOS>BOND
     1    1    2 ar
     2    1    3 ar
     3    1   19 1
     4    2    5 ar
     5    2   20 1
     6    3    6 ar
     7    3   21 1
     8    4    5 ar
     9    4    6 ar
    10    4   22 1
    11    5   15 1
    12    6   18 1
    13    7   15 1
    14    7   16 am
    15    7   17 2
    16    8    9 1
    17    8   14 1
    18    8   23 1
    19    8   24 1
    20    9   14 1
    21    9   25 1
    22    9   26 1
    23   10   12 1
    24   10   14 1
    25   10   27 1
    26   10   28 1
    27   11   13 1
    28   11   14 1
    29   11   29 1
    30   11   30 1
    31   12   16 1
    32   12   31 1
    33   12   32 1
    34   13   16 1
    35   13   33 1
    36   13   34 1
    37   15   35 1
    38   15   36 1
