@<TRIPOS>MOLECULE
*****
   51    54     0     0     0
SMALL
NO_CHARGES

@<TRIPOS>ATOM
      1 C1          1.3979    0.5723   -5.3135 C.1       1 <0>         0.0000
      2 C2          0.1376   -1.2202   -6.3595 C.ar      1 <0>         0.0000
      3 C3          0.5377   -0.5615   -5.1841 C.ar      1 <0>         0.0000
      4 C4         -0.7884   -2.2552   -6.3330 C.ar      1 <0>         0.0000
      5 C5         -1.3243   -2.5850   -5.0658 C.ar      1 <0>         0.0000
      6 C6         -0.0102   -1.0149   -3.9450 C.ar      1 <0>         0.0000
      7 C7          0.3190   -0.8809    0.9427 C.2       1 <0>         0.0000
      8 C8         -0.0983    1.9945    0.9300 C.3       1 <0>         0.0000
      9 C9         -2.2107   -0.7368    4.5120 C.3       1 <0>         0.0000
     10 C10        -1.4694   -1.8762    5.1818 C.3       1 <0>         0.0000
     11 C11        -0.4897    1.2092   -0.3173 C.3       1 <0>         0.0000
     12 C12         1.7229    0.0748   -0.9105 C.3       1 <0>         0.0000
     13 C13        -0.4408    1.1770    2.1672 C.3       1 <0>         0.0000
     14 C14         1.5638    0.2336   -2.4282 C.3       1 <0>         0.0000
     15 C15        -0.3074   -1.0221   -1.5038 C.3       1 <0>         0.0000
     16 C16        -1.1874   -1.5396    3.7362 C.3       1 <0>         0.0000
     17 C17         0.2727   -0.1258   -0.3958 C.3       1 <0>         0.0000
     18 C18        -1.2196   -2.9698   -7.5905 C.3       1 <0>         0.0000
     19 C19        -2.3767   -3.6572   -4.9332 C.3       1 <0>         0.0000
     20 C20         0.1496   -0.9332    3.3621 C.3       1 <0>         0.0000
     21 N1          2.0774    1.5090   -5.4707 N.1       1 <0>         0.0000
     22 N2         -0.9425   -1.9924   -3.9329 N.ar      1 <0>         0.0000
     23 N3          0.3309   -0.5095   -2.7267 N.pl3     1 <0>         0.0000
     24 N4          0.1128   -0.1798    2.1026 N.am      1 <0>         0.0000
     25 O1          0.6089   -2.0819    0.9618 O.2       1 <0>         0.0000
     26 H1          0.5585   -0.8868   -7.3047 H         1 <0>         0.0000
     27 H2          0.9728    2.2248    0.9220 H         1 <0>         0.0000
     28 H3         -0.6332    2.9489    0.9743 H         1 <0>         0.0000
     29 H4         -3.2620   -0.8747    4.2763 H         1 <0>         0.0000
     30 H5         -1.9469    0.2748    4.8097 H         1 <0>         0.0000
     31 H6         -0.7119   -1.6208    5.9186 H         1 <0>         0.0000
     32 H7         -2.0135   -2.7902    5.3990 H         1 <0>         0.0000
     33 H8         -1.5676    1.0049   -0.2846 H         1 <0>         0.0000
     34 H9         -0.3135    1.7948   -1.2251 H         1 <0>         0.0000
     35 H10         2.3036   -0.8223   -0.6814 H         1 <0>         0.0000
     36 H11         2.2253    0.9338   -0.4593 H         1 <0>         0.0000
     37 H12        -0.0396    1.6565    3.0668 H         1 <0>         0.0000
     38 H13        -1.5314    1.1260    2.2912 H         1 <0>         0.0000
     39 H14         1.4732    1.2839   -2.7202 H         1 <0>         0.0000
     40 H15         2.4164   -0.1842   -2.9717 H         1 <0>         0.0000
     41 H16        -0.0490   -2.0697   -1.3299 H         1 <0>         0.0000
     42 H17        -1.3939   -0.9478   -1.5835 H         1 <0>         0.0000
     43 H18        -1.5724   -2.2353    2.9951 H         1 <0>         0.0000
     44 H19        -0.9949   -4.0418   -7.5444 H         1 <0>         0.0000
     45 H20        -2.2981   -2.8758   -7.7624 H         1 <0>         0.0000
     46 H21        -0.7073   -2.5617   -8.4660 H         1 <0>         0.0000
     47 H22        -2.0081   -4.6195   -5.3069 H         1 <0>         0.0000
     48 H23        -2.6600   -3.7695   -3.8860 H         1 <0>         0.0000
     49 H24        -3.2685   -3.4095   -5.5207 H         1 <0>         0.0000
     50 H25         0.8949   -1.7221    3.2514 H         1 <0>         0.0000
     51 H26         0.4859   -0.2496    4.1504 H         1 <0>         0.0000
@<TRIPOS>BOND
     1    1    3 1
     2    1   21 3
     3    2    3 ar
     4    2    4 ar
     5    2   26 1
     6    3    6 ar
     7    4    5 ar
     8    4   18 1
     9    5   19 1
    10    5   22 ar
    11    6   22 ar
    12    6   23 1
    13    7   17 1
    14    7   24 am
    15    7   25 2
    16    8   11 1
    17    8   13 1
    18    8   27 1
    19    8   28 1
    20    9   10 1
    21    9   16 1
    22    9   29 1
    23    9   30 1
    24   10   16 1
    25   10   31 1
    26   10   32 1
    27   11   17 1
    28   11   33 1
    29   11   34 1
    30   12   14 1
    31   12   17 1
    32   12   35 1
    33   12   36 1
    34   13   24 1
    35   13   37 1
    36   13   38 1
    37   14   23 1
    38   14   39 1
    39   14   40 1
    40   15   17 1
    41   15   23 1
    42   15   41 1
    43   15   42 1
    44   16   20 1
    45   16   43 1
    46   18   44 1
    47   18   45 1
    48   18   46 1
    49   19   47 1
    50   19   48 1
    51   19   49 1
    52   20   24 1
    53   20   50 1
    54   20   51 1
