@<TRIPOS>MOLECULE
*****
   49    52     0     0     0
SMALL
NO_CHARGES

@<TRIPOS>ATOM
      1 C1          2.1671   -5.0438   -3.6630 C.2       1 <0>         0.0000
      2 C2          1.1345   -3.0171   -2.8465 C.2       1 <0>         0.0000
      3 C3         -4.4686   -0.2011    0.2140 C.2       1 <0>         0.0000
      4 C4          0.0594    0.3199   -1.6069 C.3       1 <0>         0.0000
      5 C5         -2.3855    0.7904   -0.9031 C.3       1 <0>         0.0000
      6 C6          0.9014   -0.6393   -2.4465 C.3       1 <0>         0.0000
      7 C7         -6.4384   -1.1345    1.3279 C.3       1 <0>         0.0000
      8 C8         -6.0501   -1.7441   -1.0077 C.3       1 <0>         0.0000
      9 C9         -7.8886   -0.8056    0.9803 C.3       1 <0>         0.0000
     10 C10        -7.5084   -1.4041   -1.3159 C.3       1 <0>         0.0000
     11 C11        -0.8720   -2.2325   -1.6141 C.3       1 <0>         0.0000
     12 C12        -3.6226   -0.0855   -1.0639 C.3       1 <0>         0.0000
     13 C13        -1.4291    0.2381   -1.9736 C.3       1 <0>         0.0000
     14 C14        -1.8970   -1.2321   -2.1494 C.3       1 <0>         0.0000
     15 C15         2.5840   -6.4291   -4.0468 C.3       1 <0>         0.0000
     16 C16        -9.7579   -1.3757   -0.4407 C.3       1 <0>         0.0000
     17 N1          2.8035   -3.9653   -3.9968 N.2       1 <0>         0.0000
     18 N2          2.2309   -2.8015   -3.5413 N.2       1 <0>         0.0000
     19 N3          0.4058   -2.0171   -2.2839 N.pl3     1 <0>         0.0000
     20 N4         -5.5908   -0.9740    0.1465 N.am      1 <0>         0.0000
     21 N5         -8.3523   -1.6230   -0.1425 N.3       1 <0>         0.0000
     22 O1         -4.1365    0.4059    1.2359 O.2       1 <0>         0.0000
     23 O2         -3.1185   -1.3890   -1.4145 O.3       1 <0>         0.0000
     24 S1          0.7177   -4.7300   -2.6913 S.3       1 <0>         0.0000
     25 H1          0.1947    0.0888   -0.5445 H         1 <0>         0.0000
     26 H2          0.4331    1.3379   -1.7541 H         1 <0>         0.0000
     27 H3         -2.6084    1.8519   -1.0323 H         1 <0>         0.0000
     28 H4         -1.9837    0.6545    0.1035 H         1 <0>         0.0000
     29 H5          0.8689   -0.3630   -3.5086 H         1 <0>         0.0000
     30 H6          1.9531   -0.6079   -2.1474 H         1 <0>         0.0000
     31 H7         -6.0625   -0.4749    2.1089 H         1 <0>         0.0000
     32 H8         -6.3717   -2.1734    1.6765 H         1 <0>         0.0000
     33 H9         -5.9675   -2.8135   -0.7752 H         1 <0>         0.0000
     34 H10        -5.4206   -1.5507   -1.8727 H         1 <0>         0.0000
     35 H11        -8.5215   -1.0122    1.8501 H         1 <0>         0.0000
     36 H12        -7.9697    0.2759    0.7556 H         1 <0>         0.0000
     37 H13        -7.5679   -0.3550   -1.6698 H         1 <0>         0.0000
     38 H14        -7.8608   -2.0489   -2.1285 H         1 <0>         0.0000
     39 H15        -0.7836   -2.1206   -0.5257 H         1 <0>         0.0000
     40 H16        -1.2241   -3.2471   -1.8078 H         1 <0>         0.0000
     41 H17        -4.2523    0.2941   -1.8847 H         1 <0>         0.0000
     42 H18        -1.5863    0.7655   -2.9209 H         1 <0>         0.0000
     43 H19        -2.0841   -1.4558   -3.2078 H         1 <0>         0.0000
     44 H20         2.7741   -7.0499   -3.1647 H         1 <0>         0.0000
     45 H21         1.8157   -6.9269   -4.6482 H         1 <0>         0.0000
     46 H22         3.5019   -6.3616   -4.6343 H         1 <0>         0.0000
     47 H23       -10.3659   -1.5943    0.4429 H         1 <0>         0.0000
     48 H24       -10.0857   -2.0363   -1.2498 H         1 <0>         0.0000
     49 H25        -9.9576   -0.3310   -0.7461 H         1 <0>         0.0000
@<TRIPOS>BOND
     1    1   15 1
     2    1   17 2
     3    1   24 1
     4    2   18 2
     5    2   19 1
     6    2   24 1
     7    3   12 1
     8    3   20 am
     9    3   22 2
    10    4    6 1
    11    4   13 1
    12    4   25 1
    13    4   26 1
    14    5   12 1
    15    5   13 1
    16    5   27 1
    17    5   28 1
    18    6   19 1
    19    6   29 1
    20    6   30 1
    21    7    9 1
    22    7   20 1
    23    7   31 1
    24    7   32 1
    25    8   10 1
    26    8   20 1
    27    8   33 1
    28    8   34 1
    29    9   21 1
    30    9   35 1
    31    9   36 1
    32   10   21 1
    33   10   37 1
    34   10   38 1
    35   11   14 1
    36   11   19 1
    37   11   39 1
    38   11   40 1
    39   12   23 1
    40   12   41 1
    41   13   14 1
    42   13   42 1
    43   14   23 1
    44   14   43 1
    45   15   44 1
    46   15   45 1
    47   15   46 1
    48   16   21 1
    49   16   47 1
    50   16   48 1
    51   16   49 1
    52   17   18 1
