@<TRIPOS>MOLECULE
*****
   16    16     0     0     0
SMALL
NO_CHARGES

@<TRIPOS>ATOM
      1 C1          1.9732   -0.8971   -0.1631 C.ar      1 <0>         0.0000
      2 C2          0.8574   -0.4168    0.5218 C.ar      1 <0>         0.0000
      3 C3          2.9586   -1.6174    0.5241 C.ar      1 <0>         0.0000
      4 C4          0.6711   -0.6343    1.8976 C.ar      1 <0>         0.0000
      5 C5          1.6556   -1.3684    2.5968 C.ar      1 <0>         0.0000
      6 C6          2.7543   -1.8662    1.8771 C.ar      1 <0>         0.0000
      7 C7         -0.5664   -0.0267    2.5241 C.2       1 <0>         0.0000
      8 O1         -1.3640    0.5980    1.8558 O.2       1 <0>         0.0000
      9 O2          1.4922   -1.6072    3.9337 O.3       1 <0>         0.0000
     10 O3         -0.7596   -0.1897    3.8491 O.3       1 <0>         0.0000
     11 I1          4.5773   -2.3754    3.1740 I         1 <0>         0.0000
     12 H1          2.0837   -0.7112   -1.2273 H         1 <0>         0.0000
     13 H2          0.0941    0.1583    0.0080 H         1 <0>         0.0000
     14 H3          3.8440   -1.9875    0.0181 H         1 <0>         0.0000
     15 H4          2.3351   -1.9510    4.3002 H         1 <0>         0.0000
     16 H5         -0.0302   -0.7063    4.2464 H         1 <0>         0.0000
@<TRIPOS>BOND
     1    1    2 ar
     2    1    3 ar
     3    1   12 1
     4    2    4 ar
     5    2   13 1
     6    3    6 ar
     7    3   14 1
     8    4    5 ar
     9    4    7 1
    10    5    6 ar
    11    5    9 1
    12    6   11 1
    13    7    8 2
    14    7   10 1
    15    9   15 1
    16   10   16 1
