@<TRIPOS>MOLECULE
*****
   36    38     0     0     0
SMALL
NO_CHARGES

@<TRIPOS>ATOM
      1 C1         -1.9187   -4.5519    2.7933 C.ar      1 <0>         0.0000
      2 C2         -1.4833   -3.2316    2.9246 C.ar      1 <0>         0.0000
      3 C3         -1.0214   -5.5737    2.4626 C.ar      1 <0>         0.0000
      4 C4          0.7721   -3.9211    2.3950 C.ar      1 <0>         0.0000
      5 C5         -0.1329   -2.9042    2.7253 C.ar      1 <0>         0.0000
      6 C6          0.3110   -5.2283    2.2716 C.ar      1 <0>         0.0000
      7 C7         -0.6120   -0.4548    2.2473 C.2       1 <0>         0.0000
      8 C8          0.6231    1.4991   -2.8678 C.3       1 <0>         0.0000
      9 C9         -0.4630    0.4419   -2.9774 C.3       1 <0>         0.0000
     10 C10         1.0131   -0.2181   -0.9391 C.3       1 <0>         0.0000
     11 C11        -0.7516    1.5634   -0.6450 C.3       1 <0>         0.0000
     12 C12         0.1741   -1.1456   -0.0486 C.3       1 <0>         0.0000
     13 C13        -1.5444    0.5902    0.2366 C.3       1 <0>         0.0000
     14 C14         0.1241    0.8038   -1.6284 C.3       1 <0>         0.0000
     15 C15         0.3420   -1.4712    2.8825 C.3       1 <0>         0.0000
     16 N1         -0.6399   -0.3655    0.8822 N.am      1 <0>         0.0000
     17 O1         -1.3414    0.2316    2.9701 O.2       1 <0>         0.0000
     18 F1          1.2036   -6.2022    1.9474 F         1 <0>         0.0000
     19 H1         -2.9667   -4.7928    2.9503 H         1 <0>         0.0000
     20 H2         -2.1896   -2.4475    3.1832 H         1 <0>         0.0000
     21 H3         -1.3365   -6.6069    2.3540 H         1 <0>         0.0000
     22 H4          1.8267   -3.7128    2.2341 H         1 <0>         0.0000
     23 H5          1.6154    1.2477   -3.2336 H         1 <0>         0.0000
     24 H6          0.3396    2.5371   -3.0211 H         1 <0>         0.0000
     25 H7         -1.4731    0.7725   -3.2046 H         1 <0>         0.0000
     26 H8         -0.1967   -0.5158   -3.4171 H         1 <0>         0.0000
     27 H9          1.7568    0.2981   -0.3174 H         1 <0>         0.0000
     28 H10         1.5598   -0.8178   -1.6761 H         1 <0>         0.0000
     29 H11        -1.4469    2.2236   -1.1760 H         1 <0>         0.0000
     30 H12        -0.1263    2.1961   -0.0021 H         1 <0>         0.0000
     31 H13        -0.4965   -1.7490   -0.6761 H         1 <0>         0.0000
     32 H14         0.8091   -1.8415    0.4939 H         1 <0>         0.0000
     33 H15        -2.0932    1.1099    1.0206 H         1 <0>         0.0000
     34 H16        -2.2618    0.0304   -0.3795 H         1 <0>         0.0000
     35 H17         0.3693   -1.2059    3.9422 H         1 <0>         0.0000
     36 H18         1.3588   -1.3637    2.4939 H         1 <0>         0.0000
@<TRIPOS>BOND
     1    1    2 ar
     2    1    3 ar
     3    1   19 1
     4    2    5 ar
     5    2   20 1
     6    3    6 ar
     7    3   21 1
     8    4    5 ar
     9    4    6 ar
    10    4   22 1
    11    5   15 1
    12    6   18 1
    13    7   15 1
    14    7   16 am
    15    7   17 2
    16    8    9 1
    17    8   14 1
    18    8   23 1
    19    8   24 1
    20    9   14 1
    21    9   25 1
    22    9   26 1
    23   10   12 1
    24   10   14 1
    25   10   27 1
    26   10   28 1
    27   11   13 1
    28   11   14 1
    29   11   29 1
    30   11   30 1
    31   12   16 1
    32   12   31 1
    33   12   32 1
    34   13   16 1
    35   13   33 1
    36   13   34 1
    37   15   35 1
    38   15   36 1
