@<TRIPOS>MOLECULE
*****
   16    16     0     0     0
SMALL
NO_CHARGES

@<TRIPOS>ATOM
      1 C1          1.7122   -0.8413   -0.3105 C.ar      1 <0>         0.0000
      2 C2          0.7133   -0.1997    0.4198 C.ar      1 <0>         0.0000
      3 C3          2.7018   -1.5696    0.3614 C.ar      1 <0>         0.0000
      4 C4          0.6600   -0.2491    1.8256 C.ar      1 <0>         0.0000
      5 C5          1.6576   -0.9806    2.5259 C.ar      1 <0>         0.0000
      6 C6          2.6698   -1.5888    1.7504 C.ar      1 <0>         0.0000
      7 C7         -0.4459    0.4313    2.5582 C.2       1 <0>         0.0000
      8 O1         -0.6372    0.4246    3.7572 O.2       1 <0>         0.0000
      9 O2          1.6335   -1.0403    3.8702 O.3       1 <0>         0.0000
     10 O3         -1.2833    1.1003    1.7050 O.3       1 <0>         0.0000
     11 I1          3.7859   -3.2876    2.8116 I         1 <0>         0.0000
     12 H1          1.7261   -0.7789   -1.3945 H         1 <0>         0.0000
     13 H2         -0.0615    0.3523   -0.0991 H         1 <0>         0.0000
     14 H3          3.4836   -2.0900   -0.1821 H         1 <0>         0.0000
     15 H4          2.3195   -1.6774    4.1572 H         1 <0>         0.0000
     16 H5         -1.9709    1.4919    2.2762 H         1 <0>         0.0000
@<TRIPOS>BOND
     1    1    2 ar
     2    1    3 ar
     3    1   12 1
     4    2    4 ar
     5    2   13 1
     6    3    6 ar
     7    3   14 1
     8    4    5 ar
     9    4    7 1
    10    5    6 ar
    11    5    9 1
    12    6   11 1
    13    7    8 2
    14    7   10 1
    15    9   15 1
    16   10   16 1
