@<TRIPOS>MOLECULE
*****
   51    54     0     0     0
SMALL
NO_CHARGES

@<TRIPOS>ATOM
      1 C1         -1.8607    2.2823   -3.1198 C.1       1 <0>         0.0000
      2 C2         -3.3851    0.9032   -4.4081 C.ar      1 <0>         0.0000
      3 C3         -2.2644    0.9852   -3.5632 C.ar      1 <0>         0.0000
      4 C4         -3.7796   -0.3004   -4.9773 C.ar      1 <0>         0.0000
      5 C5         -2.9726   -1.4258   -4.6860 C.ar      1 <0>         0.0000
      6 C6         -1.5582   -0.2236   -3.2711 C.ar      1 <0>         0.0000
      7 C7         -0.2652   -0.5321    0.7452 C.2       1 <0>         0.0000
      8 C8          1.2238    1.9526    1.0683 C.3       1 <0>         0.0000
      9 C9         -0.2795   -2.3541    3.8375 C.3       1 <0>         0.0000
     10 C10        -1.4845   -2.0512    4.7034 C.3       1 <0>         0.0000
     11 C11         1.8118    0.8413    0.2033 C.3       1 <0>         0.0000
     12 C12         1.2477   -1.2527   -1.1511 C.3       1 <0>         0.0000
     13 C13         0.4864    1.3372    2.2502 C.3       1 <0>         0.0000
     14 C14         0.1745   -1.5961   -2.1850 C.3       1 <0>         0.0000
     15 C15        -0.1540    0.6993   -1.4176 C.3       1 <0>         0.0000
     16 C16        -0.7276   -0.9223    4.0368 C.3       1 <0>         0.0000
     17 C17         0.6976   -0.0509   -0.3546 C.3       1 <0>         0.0000
     18 C18        -4.9846   -0.3962   -5.8810 C.3       1 <0>         0.0000
     19 C19        -3.2805   -2.7692   -5.2986 C.3       1 <0>         0.0000
     20 C20        -1.3755   -0.1801    2.8847 C.3       1 <0>         0.0000
     21 N1         -1.5537    3.3638   -2.8024 N.1       1 <0>         0.0000
     22 N2         -1.9189   -1.3797   -3.8696 N.ar      1 <0>         0.0000
     23 N3         -0.4976   -0.3068   -2.4212 N.pl3     1 <0>         0.0000
     24 N4         -0.4249    0.2587    1.8541 N.am      1 <0>         0.0000
     25 O1         -0.9307   -1.5609    0.5790 O.2       1 <0>         0.0000
     26 H1         -3.9337    1.8163   -4.6247 H         1 <0>         0.0000
     27 H2          2.0089    2.6146    1.4480 H         1 <0>         0.0000
     28 H3          0.5397    2.5701    0.4760 H         1 <0>         0.0000
     29 H4          0.6335   -2.6765    4.3302 H         1 <0>         0.0000
     30 H5         -0.4565   -2.7922    2.8606 H         1 <0>         0.0000
     31 H6         -2.4648   -2.3035    4.3082 H         1 <0>         0.0000
     32 H7         -1.3907   -2.1656    5.7794 H         1 <0>         0.0000
     33 H8          2.3945    1.2547   -0.6273 H         1 <0>         0.0000
     34 H9          2.4997    0.2317    0.8042 H         1 <0>         0.0000
     35 H10         1.4753   -2.1039   -0.5066 H         1 <0>         0.0000
     36 H11         2.1719   -0.9416   -1.6510 H         1 <0>         0.0000
     37 H12         1.2167    0.9464    2.9737 H         1 <0>         0.0000
     38 H13        -0.1047    2.0981    2.7720 H         1 <0>         0.0000
     39 H14         0.5894   -1.9818   -3.1199 H         1 <0>         0.0000
     40 H15        -0.5385   -2.3242   -1.7948 H         1 <0>         0.0000
     41 H16        -1.0554    1.1394   -0.9842 H         1 <0>         0.0000
     42 H17         0.4319    1.5157   -1.8549 H         1 <0>         0.0000
     43 H18        -0.1131   -0.3137    4.6971 H         1 <0>         0.0000
     44 H19        -4.7130   -0.7371   -6.8870 H         1 <0>         0.0000
     45 H20        -5.7268   -1.1035   -5.4929 H         1 <0>         0.0000
     46 H21        -5.4747    0.5761   -5.9816 H         1 <0>         0.0000
     47 H22        -3.2808   -2.7146   -6.3933 H         1 <0>         0.0000
     48 H23        -2.5378   -3.5004   -4.9775 H         1 <0>         0.0000
     49 H24        -4.2752   -3.1188   -4.9980 H         1 <0>         0.0000
     50 H25        -1.8975    0.7103    3.2563 H         1 <0>         0.0000
     51 H26        -2.1070   -0.8215    2.3932 H         1 <0>         0.0000
@<TRIPOS>BOND
     1    1    3 1
     2    1   21 3
     3    2    3 ar
     4    2    4 ar
     5    2   26 1
     6    3    6 ar
     7    4    5 ar
     8    4   18 1
     9    5   19 1
    10    5   22 ar
    11    6   22 ar
    12    6   23 1
    13    7   17 1
    14    7   24 am
    15    7   25 2
    16    8   11 1
    17    8   13 1
    18    8   27 1
    19    8   28 1
    20    9   10 1
    21    9   16 1
    22    9   29 1
    23    9   30 1
    24   10   16 1
    25   10   31 1
    26   10   32 1
    27   11   17 1
    28   11   33 1
    29   11   34 1
    30   12   14 1
    31   12   17 1
    32   12   35 1
    33   12   36 1
    34   13   24 1
    35   13   37 1
    36   13   38 1
    37   14   23 1
    38   14   39 1
    39   14   40 1
    40   15   17 1
    41   15   23 1
    42   15   41 1
    43   15   42 1
    44   16   20 1
    45   16   43 1
    46   18   44 1
    47   18   45 1
    48   18   46 1
    49   19   47 1
    50   19   48 1
    51   19   49 1
    52   20   24 1
    53   20   50 1
    54   20   51 1
