@<TRIPOS>MOLECULE
*****
   14    14     0     0     0
SMALL
NO_CHARGES

@<TRIPOS>ATOM
      1 C1          2.3861   -0.9885   -0.1905 C.ar      1 <0>         0.0000
      2 C2          1.4079   -0.3230    0.5454 C.ar      1 <0>         0.0000
      3 C3          2.3437   -1.2467    2.5936 C.ar      1 <0>         0.0000
      4 C4          3.3449   -1.7863    0.4435 C.ar      1 <0>         0.0000
      5 C5          1.3844   -0.4702    1.9346 C.ar      1 <0>         0.0000
      6 C6          3.3149   -1.9163    1.8436 C.ar      1 <0>         0.0000
      7 N1          4.2656   -2.5338   -0.4400 N.pl3     1 <0>         0.0000
      8 O1          4.4599   -2.0643   -1.5673 O.3       1 <0>         0.0000
      9 O2          4.7465   -3.5862   -0.0202 O.2       1 <0>         0.0000
     10 Br1         0.0296    0.4005    2.9603 Br        1 <0>         0.0000
     11 I1          5.1320   -2.5475    2.9999 I         1 <0>         0.0000
     12 H1          2.4115   -0.9127   -1.2721 H         1 <0>         0.0000
     13 H2          0.6688    0.2909    0.0424 H         1 <0>         0.0000
     14 H3          2.3256   -1.3421    3.6731 H         1 <0>         0.0000
@<TRIPOS>BOND
     1    1    2 ar
     2    1    4 ar
     3    1   12 1
     4    2    5 ar
     5    2   13 1
     6    3    5 ar
     7    3    6 ar
     8    3   14 1
     9    4    6 ar
    10    4    7 1
    11    5   10 1
    12    6   11 1
    13    7    8 1
    14    7    9 2
