@<TRIPOS>MOLECULE
*****
   51    54     0     0     0
SMALL
NO_CHARGES

@<TRIPOS>ATOM
      1 C1          1.6827    2.3522   -3.3891 C.1       1 <0>         0.0000
      2 C2          0.3805    4.3763   -3.7121 C.ar      1 <0>         0.0000
      3 C3          0.4305    3.0346   -3.2980 C.ar      1 <0>         0.0000
      4 C4         -0.8202    5.0722   -3.7730 C.ar      1 <0>         0.0000
      5 C5         -1.9845    4.3454   -3.4303 C.ar      1 <0>         0.0000
      6 C6         -0.7915    2.4128   -2.8972 C.ar      1 <0>         0.0000
      7 C7         -0.5819   -0.0055    0.5546 C.2       1 <0>         0.0000
      8 C8         -0.1471   -2.8663    0.2476 C.3       1 <0>         0.0000
      9 C9          0.6813    1.2698    4.5731 C.3       1 <0>         0.0000
     10 C10         1.4079    1.2490    3.2448 C.3       1 <0>         0.0000
     11 C11         0.3931   -1.9238   -0.8233 C.3       1 <0>         0.0000
     12 C12        -1.8268   -0.7836   -1.4603 C.3       1 <0>         0.0000
     13 C13        -0.0123   -2.2093    1.6148 C.3       1 <0>         0.0000
     14 C14        -2.1785    0.6037   -1.9949 C.3       1 <0>         0.0000
     15 C15         0.2380    0.4228   -1.7857 C.3       1 <0>         0.0000
     16 C16         0.5911    0.0511    3.6793 C.3       1 <0>         0.0000
     17 C17        -0.4084   -0.6177   -0.8463 C.3       1 <0>         0.0000
     18 C18        -0.8821    6.5155   -4.2099 C.3       1 <0>         0.0000
     19 C19        -3.3452    4.9901   -3.5202 C.3       1 <0>         0.0000
     20 C20        -0.7163   -0.2517    2.9741 C.3       1 <0>         0.0000
     21 N1          2.7172    1.8236   -3.5087 N.1       1 <0>         0.0000
     22 N2         -1.9599    3.0793   -3.0099 N.ar      1 <0>         0.0000
     23 N3         -0.8771    1.1396   -2.4162 N.pl3     1 <0>         0.0000
     24 N4         -0.5436   -0.8431    1.6398 N.am      1 <0>         0.0000
     25 O1         -0.8295    1.2005    0.6705 O.2       1 <0>         0.0000
     26 H1          1.3087    4.8599   -4.0060 H         1 <0>         0.0000
     27 H2         -1.1976   -3.1042    0.0471 H         1 <0>         0.0000
     28 H3          0.4045   -3.8122    0.2538 H         1 <0>         0.0000
     29 H4          1.2665    1.1938    5.4850 H         1 <0>         0.0000
     30 H5         -0.1994    1.9011    4.6556 H         1 <0>         0.0000
     31 H6          1.0047    1.8528    2.4385 H         1 <0>         0.0000
     32 H7          2.4904    1.1596    3.2571 H         1 <0>         0.0000
     33 H8          1.4486   -1.7034   -0.6151 H         1 <0>         0.0000
     34 H9          0.3572   -2.3879   -1.8151 H         1 <0>         0.0000
     35 H10        -2.5671   -1.1444   -0.7422 H         1 <0>         0.0000
     36 H11        -1.7693   -1.5071   -2.2816 H         1 <0>         0.0000
     37 H12        -0.5484   -2.7889    2.3749 H         1 <0>         0.0000
     38 H13         1.0467   -2.1948    1.9108 H         1 <0>         0.0000
     39 H14        -2.8716    0.5721   -2.8388 H         1 <0>         0.0000
     40 H15        -2.6145    1.2386   -1.2182 H         1 <0>         0.0000
     41 H16         0.8789    1.1118   -1.2319 H         1 <0>         0.0000
     42 H17         0.8507   -0.0863   -2.5363 H         1 <0>         0.0000
     43 H18         1.1536   -0.8189    4.0122 H         1 <0>         0.0000
     44 H19        -1.5022    6.6441   -5.1047 H         1 <0>         0.0000
     45 H20        -1.3088    7.1567   -3.4297 H         1 <0>         0.0000
     46 H21         0.1167    6.8960   -4.4412 H         1 <0>         0.0000
     47 H22        -3.5495    5.3437   -4.5376 H         1 <0>         0.0000
     48 H23        -4.1137    4.2722   -3.2312 H         1 <0>         0.0000
     49 H24        -3.4105    5.8639   -2.8614 H         1 <0>         0.0000
     50 H25        -1.2911    0.6653    2.8454 H         1 <0>         0.0000
     51 H26        -1.3151   -0.9493    3.5727 H         1 <0>         0.0000
@<TRIPOS>BOND
     1    1    3 1
     2    1   21 3
     3    2    3 ar
     4    2    4 ar
     5    2   26 1
     6    3    6 ar
     7    4    5 ar
     8    4   18 1
     9    5   19 1
    10    5   22 ar
    11    6   22 ar
    12    6   23 1
    13    7   17 1
    14    7   24 am
    15    7   25 2
    16    8   11 1
    17    8   13 1
    18    8   27 1
    19    8   28 1
    20    9   10 1
    21    9   16 1
    22    9   29 1
    23    9   30 1
    24   10   16 1
    25   10   31 1
    26   10   32 1
    27   11   17 1
    28   11   33 1
    29   11   34 1
    30   12   14 1
    31   12   17 1
    32   12   35 1
    33   12   36 1
    34   13   24 1
    35   13   37 1
    36   13   38 1
    37   14   23 1
    38   14   39 1
    39   14   40 1
    40   15   17 1
    41   15   23 1
    42   15   41 1
    43   15   42 1
    44   16   20 1
    45   16   43 1
    46   18   44 1
    47   18   45 1
    48   18   46 1
    49   19   47 1
    50   19   48 1
    51   19   49 1
    52   20   24 1
    53   20   50 1
    54   20   51 1
