@<TRIPOS>MOLECULE
*****
   18    18     0     0     0
SMALL
NO_CHARGES

@<TRIPOS>ATOM
      1 C1          2.8456   -0.2634    3.5990 C.1       1 <0>         0.0000
      2 C2          0.2265   -0.4197    0.9733 C.ar      1 <0>         0.0000
      3 C3          1.3879   -0.0684    1.6522 C.ar      1 <0>         0.0000
      4 C4         -0.6317   -1.3224    1.5803 C.ar      1 <0>         0.0000
      5 C5          1.6520   -0.6227    2.8997 C.ar      1 <0>         0.0000
      6 C6          0.7299   -1.5161    3.4206 C.ar      1 <0>         0.0000
      7 C7          0.9229   -2.1464    4.7205 C.2       1 <0>         0.0000
      8 C8          0.4649   -4.1061    5.9973 C.3       1 <0>         0.0000
      9 N1          3.8147    0.0282    4.1669 N.1       1 <0>         0.0000
     10 N2         -0.4092   -1.8816    2.7908 N.ar      1 <0>         0.0000
     11 O1          1.5321   -1.6278    5.6632 O.2       1 <0>         0.0000
     12 O2          0.3441   -3.3841    4.7669 O.3       1 <0>         0.0000
     13 H1         -0.0008    0.0007    0.0004 H         1 <0>         0.0000
     14 H2          2.0764    0.6387    1.1959 H         1 <0>         0.0000
     15 H3         -1.5518   -1.6281    1.0933 H         1 <0>         0.0000
     16 H4         -0.0365   -5.0726    5.9042 H         1 <0>         0.0000
     17 H5          0.0142   -3.5263    6.8068 H         1 <0>         0.0000
     18 H6          1.5239   -4.2667    6.2127 H         1 <0>         0.0000
@<TRIPOS>BOND
     1    1    5 1
     2    1    9 3
     3    2    3 ar
     4    2    4 ar
     5    2   13 1
     6    3    5 ar
     7    3   14 1
     8    4   10 ar
     9    4   15 1
    10    5    6 ar
    11    6    7 1
    12    6   10 ar
    13    7   11 2
    14    7   12 1
    15    8   12 1
    16    8   16 1
    17    8   17 1
    18    8   18 1
