@<TRIPOS>MOLECULE
*****
   56    58     0     0     0
SMALL
NO_CHARGES

@<TRIPOS>ATOM
      1 C1          3.7252   -0.8082   -0.5080 C.ar      1 <0>         0.0000
      2 C2          2.6480   -0.9649    0.3634 C.ar      1 <0>         0.0000
      3 C3         -3.1675    1.3869    0.0858 C.ar      1 <0>         0.0000
      4 C4         -1.9592    2.6194    1.7440 C.ar      1 <0>         0.0000
      5 C5          1.1234   -0.4137   -1.4480 C.ar      1 <0>         0.0000
      6 C6         -2.2000    0.3853    0.0885 C.ar      1 <0>         0.0000
      7 C7          3.5338   -0.4433   -1.8439 C.ar      1 <0>         0.0000
      8 C8         -3.0864    2.4987    0.9335 C.ar      1 <0>         0.0000
      9 C9         -0.9519    1.6475    1.7565 C.ar      1 <0>         0.0000
     10 C10         2.2244   -0.2472   -2.3069 C.ar      1 <0>         0.0000
     11 C11         1.3495   -0.7708   -0.1059 C.ar      1 <0>         0.0000
     12 C12        -1.0856    0.4872    0.9564 C.ar      1 <0>         0.0000
     13 C13        -0.2722   -0.1380   -1.9024 C.2       1 <0>         0.0000
     14 C14        -2.3594   -0.7375   -0.9169 C.3       1 <0>         0.0000
     15 C15        -4.1769    3.5408    0.9516 C.3       1 <0>         0.0000
     16 C16         5.0823    3.6738   -2.2579 C.3       1 <0>         0.0000
     17 C17         4.2321    2.5365   -4.3469 C.3       1 <0>         0.0000
     18 C18         1.3304    2.2617    1.9723 C.3       1 <0>         0.0000
     19 C19         1.5058   -0.8820   -4.4804 C.3       1 <0>         0.0000
     20 C20         5.3463    1.1825   -2.4944 C.3       1 <0>         0.0000
     21 C21         4.7280   -0.2069   -2.7432 C.3       1 <0>         0.0000
     22 C22         4.4603    2.3938   -2.8351 C.3       1 <0>         0.0000
     23 O1         -0.6567    0.8296   -2.5212 O.2       1 <0>         0.0000
     24 O2          0.7681   -0.7456    2.4528 O.2       1 <0>         0.0000
     25 O3         -0.7395   -2.1614    1.0215 O.2       1 <0>         0.0000
     26 O4         -1.0730   -1.1292   -1.4312 O.3       1 <0>         0.0000
     27 O5          5.6834   -1.2393   -2.4434 O.3       1 <0>         0.0000
     28 O6          0.0973    1.8857    2.5994 O.3       1 <0>         0.0000
     29 O7          2.0368    0.1332   -3.6145 O.3       1 <0>         0.0000
     30 S1          0.0425   -0.9319    1.1913 S.o2      1 <0>         0.0000
     31 H1          4.7373   -0.9784   -0.1548 H         1 <0>         0.0000
     32 H2          2.8071   -1.2088    1.4080 H         1 <0>         0.0000
     33 H3         -3.9951    1.3098   -0.6156 H         1 <0>         0.0000
     34 H4         -1.8216    3.4815    2.3910 H         1 <0>         0.0000
     35 H5         -2.7446   -1.6465   -0.4544 H         1 <0>         0.0000
     36 H6         -3.0153   -0.4192   -1.7300 H         1 <0>         0.0000
     37 H7         -4.9751    3.2458    1.6432 H         1 <0>         0.0000
     38 H8         -3.7978    4.5121    1.2799 H         1 <0>         0.0000
     39 H9         -4.6276    3.6630   -0.0375 H         1 <0>         0.0000
     40 H10         6.0731    3.8593   -2.6909 H         1 <0>         0.0000
     41 H11         4.4567    4.5461   -2.4757 H         1 <0>         0.0000
     42 H12         5.2000    3.6065   -1.1705 H         1 <0>         0.0000
     43 H13         5.1862    2.6724   -4.8721 H         1 <0>         0.0000
     44 H14         3.7257    1.6628   -4.7634 H         1 <0>         0.0000
     45 H15         3.6065    3.4093   -4.5619 H         1 <0>         0.0000
     46 H16         2.0689    2.3213    2.7726 H         1 <0>         0.0000
     47 H17         1.2240    3.2392    1.4848 H         1 <0>         0.0000
     48 H18         1.6594    1.5222    1.2380 H         1 <0>         0.0000
     49 H19         1.4202   -0.4228   -5.4663 H         1 <0>         0.0000
     50 H20         0.5161   -1.2146   -4.1522 H         1 <0>         0.0000
     51 H21         2.1850   -1.7419   -4.5237 H         1 <0>         0.0000
     52 H22         6.2733    1.2524   -3.0840 H         1 <0>         0.0000
     53 H23         5.6416    1.2219   -1.4388 H         1 <0>         0.0000
     54 H24         4.4110   -0.2892   -3.7875 H         1 <0>         0.0000
     55 H25         3.4833    2.2518   -2.3567 H         1 <0>         0.0000
     56 H26         6.5008   -1.0300   -2.9224 H         1 <0>         0.0000
@<TRIPOS>BOND
     1    1    2 ar
     2    1    7 ar
     3    1   31 1
     4    2   11 ar
     5    2   32 1
     6    3    6 ar
     7    3    8 ar
     8    3   33 1
     9    4    8 ar
    10    4    9 ar
    11    4   34 1
    12    5   10 ar
    13    5   11 ar
    14    5   13 1
    15    6   12 ar
    16    6   14 1
    17    7   10 ar
    18    7   21 1
    19    8   15 1
    20    9   12 ar
    21    9   28 1
    22   10   29 1
    23   11   30 1
    24   12   30 1
    25   13   23 2
    26   13   26 1
    27   14   26 1
    28   14   35 1
    29   14   36 1
    30   15   37 1
    31   15   38 1
    32   15   39 1
    33   16   22 1
    34   16   40 1
    35   16   41 1
    36   16   42 1
    37   17   22 1
    38   17   43 1
    39   17   44 1
    40   17   45 1
    41   18   28 1
    42   18   46 1
    43   18   47 1
    44   18   48 1
    45   19   29 1
    46   19   49 1
    47   19   50 1
    48   19   51 1
    49   20   21 1
    50   20   22 1
    51   20   52 1
    52   20   53 1
    53   21   27 1
    54   21   54 1
    55   22   55 1
    56   24   30 2
    57   25   30 2
    58   27   56 1
