@<TRIPOS>MOLECULE
*****
   20    21     0     0     0
SMALL
NO_CHARGES

@<TRIPOS>ATOM
      1 C1          1.8851   -1.0363   -0.1124 C.ar      1 <0>         0.0000
      2 C2          2.8783   -1.6520    2.0022 C.ar      1 <0>         0.0000
      3 C3          0.8066   -0.4630    0.5610 C.ar      1 <0>         0.0000
      4 C4          1.7997   -1.0786    2.6757 C.ar      1 <0>         0.0000
      5 C5          2.9210   -1.6309    0.6081 C.ar      1 <0>         0.0000
      6 C6          0.7638   -0.4841    1.9551 C.ar      1 <0>         0.0000
      7 C7          4.7330   -1.6607   -2.3539 C.3       1 <0>         0.0000
      8 C8          5.9543   -1.9520   -1.5317 C.3       1 <0>         0.0000
      9 C9          4.7458   -1.3348   -0.8879 C.3       1 <0>         0.0000
     10 O1          3.9732   -2.1915   -0.0485 O.3       1 <0>         0.0000
     11 I1         -0.8427    0.3696    2.9581 I         1 <0>         0.0000
     12 H1          1.9129   -1.0164   -1.1986 H         1 <0>         0.0000
     13 H2          3.6821   -2.1149    2.5684 H         1 <0>         0.0000
     14 H3          0.0094   -0.0060   -0.0196 H         1 <0>         0.0000
     15 H4          1.7854   -1.1066    3.7623 H         1 <0>         0.0000
     16 H5          4.7811   -0.8360   -3.0541 H         1 <0>         0.0000
     17 H6          4.1379   -2.5013   -2.6886 H         1 <0>         0.0000
     18 H7          6.1807   -2.9882   -1.3134 H         1 <0>         0.0000
     19 H8          6.8236   -1.3232   -1.6795 H         1 <0>         0.0000
     20 H9          4.8098   -0.2900   -0.6081 H         1 <0>         0.0000
@<TRIPOS>BOND
     1    1    3 ar
     2    1    5 ar
     3    1   12 1
     4    2    4 ar
     5    2    5 ar
     6    2   13 1
     7    3    6 ar
     8    3   14 1
     9    4    6 ar
    10    4   15 1
    11    5   10 1
    12    6   11 1
    13    7    8 1
    14    7    9 1
    15    7   16 1
    16    7   17 1
    17    8    9 1
    18    8   18 1
    19    8   19 1
    20    9   10 1
    21    9   20 1
