@<TRIPOS>MOLECULE
*****
   75    79     0     0     0
SMALL
NO_CHARGES

@<TRIPOS>ATOM
      1 C1          3.3930   -0.2024   -4.5862 C.ar      1 <0>         0.0000
      2 C2          5.9319  -18.7066   -1.1823 C.ar      1 <0>         0.0000
      3 C3          3.8616   -0.7555   -3.3888 C.ar      1 <0>         0.0000
      4 C4          2.1408    0.4203   -4.6102 C.ar      1 <0>         0.0000
      5 C5          7.0028  -17.8448   -0.9242 C.ar      1 <0>         0.0000
      6 C6          4.6189  -18.2462   -1.0324 C.ar      1 <0>         0.0000
      7 C7          3.0826   -0.6949   -2.2332 C.ar      1 <0>         0.0000
      8 C8          1.3672    0.4885   -3.4488 C.ar      1 <0>         0.0000
      9 C9          1.6923   -3.3436    0.3374 C.ar      1 <0>         0.0000
     10 C10         0.8116   -2.9870   -1.8698 C.ar      1 <0>         0.0000
     11 C11        -0.9251   -1.7549    1.5277 C.ar      1 <0>         0.0000
     12 C12         6.7587  -16.5303   -0.5162 C.ar      1 <0>         0.0000
     13 C13         4.3747  -16.9340   -0.6211 C.ar      1 <0>         0.0000
     14 C14         2.0345   -4.6584    0.0033 C.ar      1 <0>         0.0000
     15 C15         1.1359   -4.2920   -2.2164 C.ar      1 <0>         0.0000
     16 C16        -1.5668   -1.5990    2.7558 C.ar      1 <0>         0.0000
     17 C17        -0.1216    0.2852    3.2358 C.ar      1 <0>         0.0000
     18 C18         1.0943   -2.4770   -0.5875 C.ar      1 <0>         0.0000
     19 C19         1.8172   -0.0794   -2.2434 C.ar      1 <0>         0.0000
     20 C20         0.1056   -0.8944    1.1192 C.ar      1 <0>         0.0000
     21 C21         0.5182    0.1341    2.0032 C.ar      1 <0>         0.0000
     22 C22         5.4453  -16.0650   -0.3547 C.ar      1 <0>         0.0000
     23 C23         1.7587   -5.1381   -1.2842 C.ar      1 <0>         0.0000
     24 C24        -1.1631   -0.5685    3.6129 C.ar      1 <0>         0.0000
     25 C25         0.7556   -1.0803   -0.2064 C.2       1 <0>         0.0000
     26 C26         0.9974   -0.0054   -1.0070 C.2       1 <0>         0.0000
     27 C27         1.6644    1.0439    1.6242 C.3       1 <0>         0.0000
     28 C28         0.4678    1.3605   -0.6083 C.3       1 <0>         0.0000
     29 C29         1.3139    2.0318    0.4923 C.3       1 <0>         0.0000
     30 C30         5.1804  -14.6463    0.0548 C.3       1 <0>         0.0000
     31 C31         3.5739   -9.6714   -0.6551 C.3       1 <0>         0.0000
     32 C32         2.8955   -8.6233   -1.5444 C.3       1 <0>         0.0000
     33 C33         3.7992  -11.0001   -1.3883 C.3       1 <0>         0.0000
     34 C34         2.6778   -7.3064   -0.8141 C.3       1 <0>         0.0000
     35 C35         4.4656  -12.0449   -0.4959 C.3       1 <0>         0.0000
     36 O1          3.1848  -14.0894   -1.6912 O.2       1 <0>         0.0000
     37 O2         -1.7449   -0.3550    4.8410 O.3       1 <0>         0.0000
     38 O3          2.0450   -6.4035   -1.7225 O.3       1 <0>         0.0000
     39 S1          4.6127  -13.6423   -1.4111 S.o       1 <0>         0.0000
     40 H1          3.9977   -0.2531   -5.4881 H         1 <0>         0.0000
     41 H2          6.1191  -19.7294   -1.4990 H         1 <0>         0.0000
     42 H3          4.8368   -1.2350   -3.3559 H         1 <0>         0.0000
     43 H4          1.7646    0.8517   -5.5347 H         1 <0>         0.0000
     44 H5          8.0254  -18.1951   -1.0389 H         1 <0>         0.0000
     45 H6          3.7833  -18.9097   -1.2396 H         1 <0>         0.0000
     46 H7          3.4495   -1.1320   -1.3095 H         1 <0>         0.0000
     47 H8          0.3900    0.9638   -3.4860 H         1 <0>         0.0000
     48 H9          1.9032   -2.9847    1.3413 H         1 <0>         0.0000
     49 H10         0.3307   -2.3471   -2.6027 H         1 <0>         0.0000
     50 H11        -1.2326   -2.5599    0.8663 H         1 <0>         0.0000
     51 H12         7.5951  -15.8632   -0.3172 H         1 <0>         0.0000
     52 H13         3.3565  -16.5679   -0.5271 H         1 <0>         0.0000
     53 H14         2.5058   -5.2886    0.7490 H         1 <0>         0.0000
     54 H15         0.9135   -4.6820   -3.2055 H         1 <0>         0.0000
     55 H16        -2.3716   -2.2737    3.0443 H         1 <0>         0.0000
     56 H17         0.1875    1.0644    3.9275 H         1 <0>         0.0000
     57 H18         2.0118    1.5956    2.5032 H         1 <0>         0.0000
     58 H19         2.5004    0.4213    1.2861 H         1 <0>         0.0000
     59 H20         0.4295    2.0222   -1.4778 H         1 <0>         0.0000
     60 H21        -0.5571    1.2537   -0.2373 H         1 <0>         0.0000
     61 H22         0.7508    2.8835    0.8926 H         1 <0>         0.0000
     62 H23         2.2445    2.4291    0.0704 H         1 <0>         0.0000
     63 H24         4.3614  -14.5700    0.7765 H         1 <0>         0.0000
     64 H25         6.0748  -14.1622    0.4582 H         1 <0>         0.0000
     65 H26         4.5357   -9.2823   -0.2941 H         1 <0>         0.0000
     66 H27         2.9584   -9.8512    0.2365 H         1 <0>         0.0000
     67 H28         3.5040   -8.4347   -2.4364 H         1 <0>         0.0000
     68 H29         1.9271   -8.9982   -1.8944 H         1 <0>         0.0000
     69 H30         2.8412  -11.3987   -1.7383 H         1 <0>         0.0000
     70 H31         4.4163  -10.8273   -2.2790 H         1 <0>         0.0000
     71 H32         3.6365   -6.8867   -0.4779 H         1 <0>         0.0000
     72 H33         2.0419   -7.4536    0.0702 H         1 <0>         0.0000
     73 H34         5.4757  -11.7432   -0.1950 H         1 <0>         0.0000
     74 H35         3.8644  -12.2421    0.3986 H         1 <0>         0.0000
     75 H36        -2.4486   -1.0098    4.9730 H         1 <0>         0.0000
@<TRIPOS>BOND
     1    1    4 ar
     2    1    3 ar
     3    1   40 1
     4    2    6 ar
     5    2    5 ar
     6    2   41 1
     7    3    7 ar
     8    3   42 1
     9    4    8 ar
    10    4   43 1
    11    5   12 ar
    12    5   44 1
    13    6   13 ar
    14    6   45 1
    15    7   19 ar
    16    7   46 1
    17    8   19 ar
    18    8   47 1
    19    9   14 ar
    20    9   18 ar
    21    9   48 1
    22   10   15 ar
    23   10   18 ar
    24   10   49 1
    25   11   16 ar
    26   11   20 ar
    27   11   50 1
    28   12   22 ar
    29   12   51 1
    30   13   22 ar
    31   13   52 1
    32   14   23 ar
    33   14   53 1
    34   15   23 ar
    35   15   54 1
    36   16   24 ar
    37   16   55 1
    38   17   21 ar
    39   17   24 ar
    40   17   56 1
    41   18   25 1
    42   19   26 1
    43   20   21 ar
    44   20   25 1
    45   21   27 1
    46   22   30 1
    47   23   38 1
    48   24   37 1
    49   25   26 2
    50   26   28 1
    51   27   29 1
    52   27   57 1
    53   27   58 1
    54   28   29 1
    55   28   59 1
    56   28   60 1
    57   29   61 1
    58   29   62 1
    59   30   39 1
    60   30   63 1
    61   30   64 1
    62   31   32 1
    63   31   33 1
    64   31   65 1
    65   31   66 1
    66   32   34 1
    67   32   67 1
    68   32   68 1
    69   33   35 1
    70   33   69 1
    71   33   70 1
    72   34   38 1
    73   34   71 1
    74   34   72 1
    75   35   39 1
    76   35   73 1
    77   35   74 1
    78   36   39 2
    79   37   75 1
