@<TRIPOS>MOLECULE
*****
   42    42     0     0     0
SMALL
NO_CHARGES

@<TRIPOS>ATOM
      1 C1         -3.2890   -1.7872    2.8884 C.3       1 <0>         0.0000
      2 C2         -1.8947   -1.4252    2.3281 C.3       1 <0>         0.0000
      3 C3         -3.0639   -3.0246    3.7932 C.3       1 <0>         0.0000
      4 C4         -0.9056   -2.0361    3.3235 C.3       1 <0>         0.0000
      5 C5          0.5477   -2.2138    2.8427 C.3       1 <0>         0.0000
      6 C6          1.6525   -1.7608    3.8197 C.3       1 <0>         0.0000
      7 C7          1.4164   -4.2735   10.0768 C.3       1 <0>         0.0000
      8 C8          0.6678   -3.8308    8.8113 C.3       1 <0>         0.0000
      9 C9          0.4432   -4.6066   11.2130 C.3       1 <0>         0.0000
     10 C10         2.0788   -2.7222    4.9376 C.3       1 <0>         0.0000
     11 C11         1.6627   -3.5013    7.6955 C.3       1 <0>         0.0000
     12 C12         1.1554   -5.0664   12.4692 C.3       1 <0>         0.0000
     13 N1         -1.5944   -3.3521    3.6447 N.4       1 <0>         0.0000
     14 O1         -0.0648   -4.1072    5.7490 O.2       1 <0>         0.0000
     15 O2          0.1131   -1.6753    6.4399 O.2       1 <0>         0.0000
     16 F1          0.2760   -5.3497   13.4554 F         1 <0>         0.0000
     17 F2          2.0049   -4.1184   12.9406 F         1 <0>         0.0000
     18 F3          1.8916   -6.1856   12.2466 F         1 <0>         0.0000
     19 S1          0.7902   -2.9640    6.2040 S.o2      1 <0>         0.0000
     20 H1         -3.6974   -0.9677    3.4824 H         1 <0>         0.0000
     21 H2         -4.0014   -1.9996    2.0899 H         1 <0>         0.0000
     22 H3         -1.7405   -1.8641    1.3354 H         1 <0>         0.0000
     23 H4         -1.7439   -0.3479    2.2366 H         1 <0>         0.0000
     24 H5         -3.2319   -2.8088    4.8486 H         1 <0>         0.0000
     25 H6         -3.6487   -3.9021    3.5170 H         1 <0>         0.0000
     26 H7         -0.9349   -1.4769    4.2627 H         1 <0>         0.0000
     27 H8          0.7234   -3.2507    2.5287 H         1 <0>         0.0000
     28 H9          0.6603   -1.6121    1.9364 H         1 <0>         0.0000
     29 H10         1.3851   -0.7965    4.2621 H         1 <0>         0.0000
     30 H11         2.5596   -1.5871    3.2320 H         1 <0>         0.0000
     31 H12         2.0965   -3.4795   10.4026 H         1 <0>         0.0000
     32 H13         2.0310   -5.1525    9.8552 H         1 <0>         0.0000
     33 H14        -0.0044   -4.6258    8.4744 H         1 <0>         0.0000
     34 H15         0.0576   -2.9477    9.0257 H         1 <0>         0.0000
     35 H16        -0.1584   -3.7342   11.4844 H         1 <0>         0.0000
     36 H17        -0.2432   -5.4072   10.9217 H         1 <0>         0.0000
     37 H18         2.3315   -3.7205    4.5707 H         1 <0>         0.0000
     38 H19         2.9435   -2.3073    5.4641 H         1 <0>         0.0000
     39 H20         2.3249   -2.6740    7.9675 H         1 <0>         0.0000
     40 H21         2.2598   -4.3707    7.4042 H         1 <0>         0.0000
     41 H22        -1.1657   -3.7845    4.4983 H         1 <0>         0.0000
     42 H23        -1.4546   -4.0026    2.8658 H         1 <0>         0.0000
@<TRIPOS>BOND
     1    1    2 1
     2    1    3 1
     3    1   20 1
     4    1   21 1
     5    2    4 1
     6    2   22 1
     7    2   23 1
     8    3   13 1
     9    3   24 1
    10    3   25 1
    11    4    5 1
    12    4   13 1
    13    4   26 1
    14    5    6 1
    15    5   27 1
    16    5   28 1
    17    6   10 1
    18    6   29 1
    19    6   30 1
    20    7    8 1
    21    7    9 1
    22    7   31 1
    23    7   32 1
    24    8   11 1
    25    8   33 1
    26    8   34 1
    27    9   12 1
    28    9   35 1
    29    9   36 1
    30   10   19 1
    31   10   37 1
    32   10   38 1
    33   11   19 1
    34   11   39 1
    35   11   40 1
    36   12   16 1
    37   12   17 1
    38   12   18 1
    39   13   41 1
    40   13   42 1
    41   14   19 2
    42   15   19 2
