@<TRIPOS>MOLECULE
*****
   51    54     0     0     0
SMALL
NO_CHARGES

@<TRIPOS>ATOM
      1 C1          7.2180    3.1928    0.8997 C.ar      1 <0>         0.0000
      2 C2          6.4685    3.1560   -0.2833 C.ar      1 <0>         0.0000
      3 C3          6.6884    2.6406    2.0688 C.ar      1 <0>         0.0000
      4 C4          5.2005    2.5724   -0.2942 C.ar      1 <0>         0.0000
      5 C5          5.4159    2.0564    2.0532 C.ar      1 <0>         0.0000
      6 C6          1.4034    1.9141   -1.9528 C.ar      1 <0>         0.0000
      7 C7         -0.7669    2.9856   -2.0981 C.ar      1 <0>         0.0000
      8 C8          0.8894    0.9797   -1.0439 C.ar      1 <0>         0.0000
      9 C9          4.6582    2.0190    0.8763 C.ar      1 <0>         0.0000
     10 C10        -1.3056    2.0580   -1.2060 C.ar      1 <0>         0.0000
     11 C11        -0.4651    1.0510   -0.6879 C.ar      1 <0>         0.0000
     12 C12         0.5784    2.9036   -2.4691 C.ar      1 <0>         0.0000
     13 C13        -0.8176   -3.9985    0.8693 C.3       1 <0>         0.0000
     14 C14        -0.6311   -3.0517    2.0635 C.3       1 <0>         0.0000
     15 C15        -0.1263   -3.4573   -0.3901 C.3       1 <0>         0.0000
     16 C16        -1.0703   -1.6195    1.7239 C.3       1 <0>         0.0000
     17 C17        -0.5930   -2.0289   -0.7053 C.3       1 <0>         0.0000
     18 C18         1.1044   -0.7470    0.7508 C.3       1 <0>         0.0000
     19 C19         1.7909   -0.0973   -0.4621 C.3       1 <0>         0.0000
     20 C20        -0.3695   -1.0679    0.4771 C.3       1 <0>         0.0000
     21 C21        -2.7542    2.1107   -0.7905 C.3       1 <0>         0.0000
     22 C22         3.2727    1.4088    0.8648 C.3       1 <0>         0.0000
     23 N1          3.1413    0.4281   -0.2190 N.3       1 <0>         0.0000
     24 O1         -1.0588    0.1804    0.1911 O.3       1 <0>         0.0000
     25 Cl1         1.2359    4.0807   -3.6055 Cl        1 <0>         0.0000
     26 H1          8.2058    3.6466    0.9076 H         1 <0>         0.0000
     27 H2          6.8743    3.5848   -1.1964 H         1 <0>         0.0000
     28 H3          7.2639    2.6608    2.9910 H         1 <0>         0.0000
     29 H4          4.6220    2.5355   -1.2127 H         1 <0>         0.0000
     30 H5          5.0094    1.6264    2.9667 H         1 <0>         0.0000
     31 H6          2.4514    1.8586   -2.2249 H         1 <0>         0.0000
     32 H7         -1.3958    3.7699   -2.5090 H         1 <0>         0.0000
     33 H8         -1.8909   -4.1114    0.6650 H         1 <0>         0.0000
     34 H9         -0.4369   -4.9968    1.1141 H         1 <0>         0.0000
     35 H10        -1.2057   -3.4112    2.9245 H         1 <0>         0.0000
     36 H11         0.4211   -3.0572    2.3749 H         1 <0>         0.0000
     37 H12         0.9625   -3.4756   -0.2511 H         1 <0>         0.0000
     38 H13        -0.3366   -4.1070   -1.2471 H         1 <0>         0.0000
     39 H14        -2.1497   -1.6027    1.5297 H         1 <0>         0.0000
     40 H15        -0.8892   -0.9441    2.5674 H         1 <0>         0.0000
     41 H16        -0.1072   -1.6505   -1.6094 H         1 <0>         0.0000
     42 H17        -1.6699   -2.0361   -0.9124 H         1 <0>         0.0000
     43 H18         1.6515   -1.6484    1.0408 H         1 <0>         0.0000
     44 H19         1.1319   -0.0629    1.6045 H         1 <0>         0.0000
     45 H20         1.9263   -0.8707   -1.2291 H         1 <0>         0.0000
     46 H21        -3.2676    1.1761   -1.0400 H         1 <0>         0.0000
     47 H22        -2.8491    2.2400    0.2928 H         1 <0>         0.0000
     48 H23        -3.2724    2.9361   -1.2853 H         1 <0>         0.0000
     49 H24         3.0596    0.9945    1.8627 H         1 <0>         0.0000
     50 H25         2.5269    2.1920    0.6861 H         1 <0>         0.0000
     51 H26         3.7887   -0.3416   -0.0634 H         1 <0>         0.0000
@<TRIPOS>BOND
     1    1    3 ar
     2    1    2 ar
     3    1   26 1
     4    2    4 ar
     5    2   27 1
     6    3    5 ar
     7    3   28 1
     8    4    9 ar
     9    4   29 1
    10    5    9 ar
    11    5   30 1
    12    6    8 ar
    13    6   12 ar
    14    6   31 1
    15    7   10 ar
    16    7   12 ar
    17    7   32 1
    18    8   11 ar
    19    8   19 1
    20    9   22 1
    21   10   11 ar
    22   10   21 1
    23   11   24 1
    24   12   25 1
    25   13   15 1
    26   13   14 1
    27   13   33 1
    28   13   34 1
    29   14   16 1
    30   14   35 1
    31   14   36 1
    32   15   17 1
    33   15   37 1
    34   15   38 1
    35   16   20 1
    36   16   39 1
    37   16   40 1
    38   17   20 1
    39   17   41 1
    40   17   42 1
    41   18   19 1
    42   18   20 1
    43   18   43 1
    44   18   44 1
    45   19   23 1
    46   19   45 1
    47   20   24 1
    48   21   46 1
    49   21   47 1
    50   21   48 1
    51   22   23 1
    52   22   49 1
    53   22   50 1
    54   23   51 1
