@<TRIPOS>MOLECULE
*****
   41    42     0     0     0
SMALL
NO_CHARGES

@<TRIPOS>ATOM
      1 C1          4.4126   -2.6990   -6.0842 C.2       1 <0>         0.0000
      2 C2          5.1804   -1.7942   -8.1078 C.2       1 <0>         0.0000
      3 C3          3.8066   -3.4996   -4.9703 C.2       1 <0>         0.0000
      4 C4         -0.1929   -1.9566   -0.6175 C.3       1 <0>         0.0000
      5 C5          0.3794   -1.2009   -1.8247 C.3       1 <0>         0.0000
      6 C6         -0.0618   -3.4751   -0.7997 C.3       1 <0>         0.0000
      7 C7          1.8309   -1.6133   -2.1087 C.3       1 <0>         0.0000
      8 C8          1.3903   -3.8835   -1.0860 C.3       1 <0>         0.0000
      9 C9          1.9662   -3.1324   -2.2967 C.3       1 <0>         0.0000
     10 C10         8.0372   -1.0159  -10.9587 C.3       1 <0>         0.0000
     11 C11         7.8722   -2.8731   -9.2190 C.3       1 <0>         0.0000
     12 C12         3.4214   -3.5587   -2.5407 C.3       1 <0>         0.0000
     13 C13         7.4428   -1.4676   -9.6239 C.3       1 <0>         0.0000
     14 N1          5.0451   -1.5640   -5.9130 N.2       1 <0>         0.0000
     15 N2          5.4883   -1.0314   -7.0941 N.2       1 <0>         0.0000
     16 N3          4.0086   -2.9704   -3.7409 N.am      1 <0>         0.0000
     17 O1          3.1969   -4.5432   -5.2108 O.2       1 <0>         0.0000
     18 O2          5.1512   -2.6047  -10.6305 O.2       1 <0>         0.0000
     19 S1          4.2951   -3.2419   -7.7319 S.3       1 <0>         0.0000
     20 S2          5.5791   -1.3872   -9.8324 S.o       1 <0>         0.0000
     21 H1         -1.2429   -1.6826   -0.4611 H         1 <0>         0.0000
     22 H2          0.3496   -1.6531    0.2889 H         1 <0>         0.0000
     23 H3         -0.2344   -1.4153   -2.7102 H         1 <0>         0.0000
     24 H4          0.3230   -0.1187   -1.6590 H         1 <0>         0.0000
     25 H5         -0.4294   -3.9988    0.0904 H         1 <0>         0.0000
     26 H6         -0.6965   -3.7954   -1.6371 H         1 <0>         0.0000
     27 H7          2.1993   -1.0882   -2.9980 H         1 <0>         0.0000
     28 H8          2.4669   -1.2990   -1.2672 H         1 <0>         0.0000
     29 H9          2.0072   -3.6672   -0.2012 H         1 <0>         0.0000
     30 H10         1.4517   -4.9655   -1.2554 H         1 <0>         0.0000
     31 H11         1.3907   -3.4247   -3.1852 H         1 <0>         0.0000
     32 H12         7.7657   -1.7103  -11.7596 H         1 <0>         0.0000
     33 H13         7.6998   -0.0126  -11.2376 H         1 <0>         0.0000
     34 H14         9.1290   -0.9963  -10.8825 H         1 <0>         0.0000
     35 H15         7.4591   -3.6118   -9.9124 H         1 <0>         0.0000
     36 H16         7.5481   -3.1238   -8.2058 H         1 <0>         0.0000
     37 H17         8.9643   -2.9441   -9.2516 H         1 <0>         0.0000
     38 H18         3.4752   -4.6452   -2.6478 H         1 <0>         0.0000
     39 H19         4.0482   -3.2715   -1.6895 H         1 <0>         0.0000
     40 H20         7.6441   -0.7361   -8.8342 H         1 <0>         0.0000
     41 H21         4.4830   -2.0756   -3.6970 H         1 <0>         0.0000
@<TRIPOS>BOND
     1    1    3 1
     2    1   14 2
     3    1   19 1
     4    2   15 2
     5    2   19 1
     6    2   20 1
     7    3   16 am
     8    3   17 2
     9    4    6 1
    10    4    5 1
    11    4   21 1
    12    4   22 1
    13    5    7 1
    14    5   23 1
    15    5   24 1
    16    6    8 1
    17    6   25 1
    18    6   26 1
    19    7    9 1
    20    7   27 1
    21    7   28 1
    22    8    9 1
    23    8   29 1
    24    8   30 1
    25    9   12 1
    26    9   31 1
    27   10   13 1
    28   10   32 1
    29   10   33 1
    30   10   34 1
    31   11   13 1
    32   11   35 1
    33   11   36 1
    34   11   37 1
    35   12   16 1
    36   12   38 1
    37   12   39 1
    38   13   20 1
    39   13   40 1
    40   14   15 1
    41   16   41 1
    42   18   20 2
