@<TRIPOS>MOLECULE
*****
   33    34     0     0     0
SMALL
NO_CHARGES

@<TRIPOS>ATOM
      1 C1         -1.0941   -3.8284    1.7231 C.ar      1 <0>         0.0000
      2 C2         -0.8317   -2.4995    1.3768 C.ar      1 <0>         0.0000
      3 C3          0.8798   -3.2785   -0.1518 C.ar      1 <0>         0.0000
      4 C4         -0.3876   -4.8948    1.1523 C.ar      1 <0>         0.0000
      5 C5          0.6185   -4.5966    0.1971 C.ar      1 <0>         0.0000
      6 C6          0.1613   -2.2202    0.4310 C.ar      1 <0>         0.0000
      7 C7          0.3259   -7.2347    1.2525 C.2       1 <0>         0.0000
      8 C8         -0.6201   -6.3085    1.5257 C.2       1 <0>         0.0000
      9 C9         -1.9917   -6.1714    3.6684 C.2       1 <0>         0.0000
     10 C10         1.3604   -5.7412   -0.4564 C.3       1 <0>         0.0000
     11 C11         1.6067   -6.8800    0.5391 C.3       1 <0>         0.0000
     12 C12        -3.1795   -6.4340    1.4335 C.3       1 <0>         0.0000
     13 C13        -0.1865    0.1412    0.5810 C.3       1 <0>         0.0000
     14 C14        -1.9020   -6.7204    2.2340 C.3       1 <0>         0.0000
     15 O1         -3.0169   -5.8099    4.2012 O.2       1 <0>         0.0000
     16 O2         -0.8187   -6.1669    4.3562 O.3       1 <0>         0.0000
     17 O3          0.5079   -0.9663    0.0124 O.3       1 <0>         0.0000
     18 H1         -1.8617   -4.0098    2.4678 H         1 <0>         0.0000
     19 H2         -1.3998   -1.7079    1.8515 H         1 <0>         0.0000
     20 H3          1.6471   -3.0388   -0.8834 H         1 <0>         0.0000
     21 H4          0.1680   -8.2705    1.5488 H         1 <0>         0.0000
     22 H5          0.7495   -6.1260   -1.2856 H         1 <0>         0.0000
     23 H6          2.3023   -5.3907   -0.8887 H         1 <0>         0.0000
     24 H7          2.3683   -6.5769    1.2738 H         1 <0>         0.0000
     25 H8          2.0078   -7.7571    0.0210 H         1 <0>         0.0000
     26 H9         -3.3130   -5.3669    1.2484 H         1 <0>         0.0000
     27 H10        -4.0541   -6.7922    1.9806 H         1 <0>         0.0000
     28 H11        -3.1278   -6.9445    0.4675 H         1 <0>         0.0000
     29 H12         0.2408    1.0309    0.1168 H         1 <0>         0.0000
     30 H13        -0.0383    0.1899    1.6665 H         1 <0>         0.0000
     31 H14        -1.2597    0.0951    0.3597 H         1 <0>         0.0000
     32 H15        -1.8391   -7.8074    2.3785 H         1 <0>         0.0000
     33 H16        -0.0987   -6.4177    3.7452 H         1 <0>         0.0000
@<TRIPOS>BOND
     1    1    2 ar
     2    1    4 ar
     3    1   18 1
     4    2    6 ar
     5    2   19 1
     6    3    5 ar
     7    3    6 ar
     8    3   20 1
     9    4    5 ar
    10    4    8 1
    11    5   10 1
    12    6   17 1
    13    7    8 2
    14    7   11 1
    15    7   21 1
    16    8   14 1
    17    9   14 1
    18    9   15 2
    19    9   16 1
    20   10   11 1
    21   10   22 1
    22   10   23 1
    23   11   24 1
    24   11   25 1
    25   12   14 1
    26   12   26 1
    27   12   27 1
    28   12   28 1
    29   13   17 1
    30   13   29 1
    31   13   30 1
    32   13   31 1
    33   14   32 1
    34   16   33 1
