@<TRIPOS>MOLECULE
*****
   46    47     0     0     0
SMALL
NO_CHARGES

@<TRIPOS>ATOM
      1 C1         -3.5204    3.0911   -3.5323 C.ar      1 <0>         0.0000
      2 C2         -2.2844    3.6555   -3.2025 C.ar      1 <0>         0.0000
      3 C3         -3.6955    1.7072   -3.4267 C.ar      1 <0>         0.0000
      4 C4         -1.2354    2.8419   -2.7650 C.ar      1 <0>         0.0000
      5 C5         -2.6435    0.8985   -2.9889 C.ar      1 <0>         0.0000
      6 C6         -1.4008    1.4536   -2.6479 C.ar      1 <0>         0.0000
      7 C7         -0.3408    1.6850    0.1497 C.2       1 <0>         0.0000
      8 C8         -1.5021   -0.5385   -0.1431 C.3       1 <0>         0.0000
      9 C9         -0.9225   -1.1487    1.1280 C.3       1 <0>         0.0000
     10 C10        -0.3437    0.3414   -0.6127 C.3       1 <0>         0.0000
     11 C11         2.1318    4.3578    0.0010 C.3       1 <0>         0.0000
     12 C12         1.0657   -2.2875    2.9530 C.3       1 <0>         0.0000
     13 C13         2.8442   -1.6795    1.2912 C.3       1 <0>         0.0000
     14 C14         1.5729    0.1439    2.4672 C.3       1 <0>         0.0000
     15 C15        -0.2761    0.5821   -2.1332 C.3       1 <0>         0.0000
     16 C16         0.8624    3.6980    0.5059 C.3       1 <0>         0.0000
     17 C17         1.4795   -1.2750    1.8717 C.3       1 <0>         0.0000
     18 N1          0.4852   -1.4071    0.7735 N.3       1 <0>         0.0000
     19 O1         -1.1785    2.0366    0.9587 O.2       1 <0>         0.0000
     20 O2          0.8327   -0.3959   -0.2540 O.3       1 <0>         0.0000
     21 O3          0.7374    2.4242   -0.1768 O.3       1 <0>         0.0000
     22 H1         -4.3372    3.7218   -3.8739 H         1 <0>         0.0000
     23 H2         -2.1359    4.7291   -3.2895 H         1 <0>         0.0000
     24 H3         -4.6500    1.2579   -3.6895 H         1 <0>         0.0000
     25 H4         -0.2751    3.2847   -2.5137 H         1 <0>         0.0000
     26 H5         -2.7871   -0.1772   -2.9177 H         1 <0>         0.0000
     27 H6         -1.6886   -1.3141   -0.8904 H         1 <0>         0.0000
     28 H7         -2.4156    0.0264    0.0371 H         1 <0>         0.0000
     29 H8         -1.0446   -0.4500    1.9639 H         1 <0>         0.0000
     30 H9         -1.3973   -2.0978    1.3881 H         1 <0>         0.0000
     31 H10         3.0056    3.7344    0.2118 H         1 <0>         0.0000
     32 H11         2.0825    4.5290   -1.0787 H         1 <0>         0.0000
     33 H12         2.2682    5.3244    0.4966 H         1 <0>         0.0000
     34 H13         0.1392   -1.9956    3.4569 H         1 <0>         0.0000
     35 H14         0.9268   -3.2816    2.5164 H         1 <0>         0.0000
     36 H15         1.8501   -2.3528    3.7129 H         1 <0>         0.0000
     37 H16         3.1413   -0.9951    0.4930 H         1 <0>         0.0000
     38 H17         2.7946   -2.6904    0.8755 H         1 <0>         0.0000
     39 H18         3.6119   -1.6572    2.0721 H         1 <0>         0.0000
     40 H19         1.9022    0.8553    1.7062 H         1 <0>         0.0000
     41 H20         0.6193    0.4890    2.8772 H         1 <0>         0.0000
     42 H21         2.3038    0.1545    3.2824 H         1 <0>         0.0000
     43 H22        -0.2925   -0.4026   -2.6094 H         1 <0>         0.0000
     44 H23         0.6916    1.0384   -2.3537 H         1 <0>         0.0000
     45 H24        -0.0292    4.2951    0.2934 H         1 <0>         0.0000
     46 H25         0.8944    3.5130    1.5833 H         1 <0>         0.0000
@<TRIPOS>BOND
     1    1    3 ar
     2    1    2 ar
     3    1   22 1
     4    2    4 ar
     5    2   23 1
     6    3    5 ar
     7    3   24 1
     8    4    6 ar
     9    4   25 1
    10    5    6 ar
    11    5   26 1
    12    6   15 1
    13    7   10 1
    14    7   19 2
    15    7   21 1
    16    8    9 1
    17    8   10 1
    18    8   27 1
    19    8   28 1
    20    9   18 1
    21    9   29 1
    22    9   30 1
    23   10   15 1
    24   10   20 1
    25   11   16 1
    26   11   31 1
    27   11   32 1
    28   11   33 1
    29   12   17 1
    30   12   34 1
    31   12   35 1
    32   12   36 1
    33   13   17 1
    34   13   37 1
    35   13   38 1
    36   13   39 1
    37   14   17 1
    38   14   40 1
    39   14   41 1
    40   14   42 1
    41   15   43 1
    42   15   44 1
    43   16   21 1
    44   16   45 1
    45   16   46 1
    46   17   18 1
    47   18   20 1
