@<TRIPOS>MOLECULE
*****
   27    28     0     0     0
SMALL
NO_CHARGES

@<TRIPOS>ATOM
      1 C1          1.8157   -1.0694   -0.1025 C.ar      1 <0>         0.0000
      2 C2          0.4596    3.0539    5.8042 C.ar      1 <0>         0.0000
      3 C3          2.9786   -1.3537    0.6207 C.ar      1 <0>         0.0000
      4 C4         -0.3086    1.9373    6.1498 C.ar      1 <0>         0.0000
      5 C5          0.6200   -0.7796    0.5577 C.ar      1 <0>         0.0000
      6 C6          1.6135    2.9123    5.0308 C.ar      1 <0>         0.0000
      7 C7          2.9353   -1.3493    2.0154 C.ar      1 <0>         0.0000
      8 C8          0.0899    0.6721    5.7166 C.ar      1 <0>         0.0000
      9 C9          0.5702   -0.7818    1.9577 C.ar      1 <0>         0.0000
     10 C10         2.0213    1.6430    4.6006 C.ar      1 <0>         0.0000
     11 C11         1.7390   -1.0754    2.6791 C.ar      1 <0>         0.0000
     12 C12         1.2506    0.5241    4.9567 C.ar      1 <0>         0.0000
     13 O1          0.6728   -2.0459    4.9278 O.2       1 <0>         0.0000
     14 O2          3.1259   -1.3773    4.8980 O.2       1 <0>         0.0000
     15 O3         -0.5683   -0.4872    2.6501 O.3       1 <0>         0.0000
     16 O4          3.1300    1.4534    3.8279 O.3       1 <0>         0.0000
     17 S1          1.7383   -1.1401    4.4772 S.o2      1 <0>         0.0000
     18 H1          1.8357   -1.0672   -1.1892 H         1 <0>         0.0000
     19 H2          0.1597    4.0454    6.1330 H         1 <0>         0.0000
     20 H3          3.9084   -1.5731    0.1047 H         1 <0>         0.0000
     21 H4         -1.2085    2.0510    6.7465 H         1 <0>         0.0000
     22 H5         -0.2800   -0.5527   -0.0116 H         1 <0>         0.0000
     23 H6          2.2032    3.7867    4.7600 H         1 <0>         0.0000
     24 H7          3.8190   -1.5502    2.6124 H         1 <0>         0.0000
     25 H8         -0.4867   -0.2169    5.9510 H         1 <0>         0.0000
     26 H9         -1.2893   -0.3150    2.0240 H         1 <0>         0.0000
     27 H10         3.5616    2.3081    3.6706 H         1 <0>         0.0000
@<TRIPOS>BOND
     1    1    3 ar
     2    1    5 ar
     3    1   18 1
     4    2    4 ar
     5    2    6 ar
     6    2   19 1
     7    3    7 ar
     8    3   20 1
     9    4    8 ar
    10    4   21 1
    11    5    9 ar
    12    5   22 1
    13    6   10 ar
    14    6   23 1
    15    7   11 ar
    16    7   24 1
    17    8   12 ar
    18    8   25 1
    19    9   11 ar
    20    9   15 1
    21   10   12 ar
    22   10   16 1
    23   11   17 1
    24   12   17 1
    25   13   17 2
    26   14   17 2
    27   15   26 1
    28   16   27 1
