@<TRIPOS>MOLECULE
*****
   29    30     0     0     0
SMALL
NO_CHARGES

@<TRIPOS>ATOM
      1 C1          7.3446    3.6349   -1.5519 C.ar      1 <0>         0.0000
      2 C2          6.8923    3.9022   -0.2597 C.ar      1 <0>         0.0000
      3 C3          6.4744    3.0918   -2.4970 C.ar      1 <0>         0.0000
      4 C4          5.5698    3.6264    0.0873 C.ar      1 <0>         0.0000
      5 C5          5.1518    2.8161   -2.1500 C.ar      1 <0>         0.0000
      6 C6          4.6995    3.0834   -0.8578 C.ar      1 <0>         0.0000
      7 C7          0.8595   -0.5761   -0.3646 C.3       1 <0>         0.0000
      8 C8          1.2772   -0.0492   -1.7356 C.3       1 <0>         0.0000
      9 C9          1.9981   -0.4824    0.6484 C.3       1 <0>         0.0000
     10 C10         1.8340    1.3679   -1.6464 C.3       1 <0>         0.0000
     11 C11         2.5549    0.9347    0.7374 C.3       1 <0>         0.0000
     12 C12         2.9750    1.4610   -0.6344 C.3       1 <0>         0.0000
     13 O1          3.4005    2.8144   -0.5171 O.3       1 <0>         0.0000
     14 H1          8.3746    3.8491   -1.8215 H         1 <0>         0.0000
     15 H2          7.5707    4.3249    0.4758 H         1 <0>         0.0000
     16 H3          6.8263    2.8837   -3.5033 H         1 <0>         0.0000
     17 H4          5.2225    3.8384    1.0949 H         1 <0>         0.0000
     18 H5          4.4785    2.3944   -2.8913 H         1 <0>         0.0000
     19 H6          0.5301   -1.6173   -0.4541 H         1 <0>         0.0000
     20 H7          0.0000   -0.0000    0.0001 H         1 <0>         0.0000
     21 H8          2.0377   -0.7130   -2.1648 H         1 <0>         0.0000
     22 H9          0.4174   -0.0658   -2.4146 H         1 <0>         0.0000
     23 H10         1.6426   -0.8026    1.6343 H         1 <0>         0.0000
     24 H11         2.8009   -1.1715    0.3584 H         1 <0>         0.0000
     25 H12         2.1833    1.6969   -2.6326 H         1 <0>         0.0000
     26 H13         1.0345    2.0666   -1.3668 H         1 <0>         0.0000
     27 H14         1.8026    1.6035    1.1761 H         1 <0>         0.0000
     28 H15         3.4104    0.9619    1.4230 H         1 <0>         0.0000
     29 H16         3.8350    0.8745   -0.9984 H         1 <0>         0.0000
@<TRIPOS>BOND
     1    1    3 ar
     2    1    2 ar
     3    1   14 1
     4    2    4 ar
     5    2   15 1
     6    3    5 ar
     7    3   16 1
     8    4    6 ar
     9    4   17 1
    10    5    6 ar
    11    5   18 1
    12    6   13 1
    13    7    9 1
    14    7    8 1
    15    7   19 1
    16    7   20 1
    17    8   10 1
    18    8   21 1
    19    8   22 1
    20    9   11 1
    21    9   23 1
    22    9   24 1
    23   10   12 1
    24   10   25 1
    25   10   26 1
    26   11   12 1
    27   11   27 1
    28   11   28 1
    29   12   13 1
    30   12   29 1
