@<TRIPOS>MOLECULE
*****
   34    37     0     0     0
SMALL
NO_CHARGES

@<TRIPOS>ATOM
      1 C1         -0.1890    3.4911   -0.8370 C.ar      1 <0>         0.0000
      2 C2         -0.6586    3.6184    0.4865 C.ar      1 <0>         0.0000
      3 C3          0.1598    2.2431   -1.3643 C.ar      1 <0>         0.0000
      4 C4          2.8025   -2.3154   -3.9562 C.ar      1 <0>         0.0000
      5 C5          0.9766   -3.7233   -4.6779 C.ar      1 <0>         0.0000
      6 C6          3.2382   -2.2037   -5.2765 C.ar      1 <0>         0.0000
      7 C7          1.4123   -3.6116   -5.9982 C.ar      1 <0>         0.0000
      8 C8         -0.7905    2.5015    1.3146 C.ar      1 <0>         0.0000
      9 C9          0.0269    1.1435   -0.5407 C.ar      1 <0>         0.0000
     10 C10         1.6716   -3.0752   -3.6569 C.ar      1 <0>         0.0000
     11 C11         2.5431   -2.8518   -6.2975 C.ar      1 <0>         0.0000
     12 C12        -0.4420    1.2816    0.7770 C.ar      1 <0>         0.0000
     13 C13         0.3275   -0.2394   -0.8691 C.2       1 <0>         0.0000
     14 C14         0.8232   -2.1665   -1.5427 C.2       1 <0>         0.0000
     15 C15         0.3663   -2.3524   -0.1306 C.2       1 <0>         0.0000
     16 C16         1.2235   -3.1900   -2.2991 C.2       1 <0>         0.0000
     17 N1          0.7711   -0.8352   -1.9246 N.2       1 <0>         0.0000
     18 N2          0.0492   -1.0420    0.2623 N.am      1 <0>         0.0000
     19 N3          2.9867   -2.7381   -7.6416 N.pl3     1 <0>         0.0000
     20 O1          2.3471   -3.3290   -8.5452 O.3       1 <0>         0.0000
     21 O2          0.2881   -3.3767    0.5188 O.2       1 <0>         0.0000
     22 O3          4.0065   -2.0501   -7.8892 O.2       1 <0>         0.0000
     23 O4          0.4809   -0.2457    2.6688 O.2       1 <0>         0.0000
     24 O5         -1.9150   -0.5718    1.8537 O.2       1 <0>         0.0000
     25 S1         -0.5214   -0.2597    1.6265 S.o2      1 <0>         0.0000
     26 H1         -0.0973    4.3796   -1.4566 H         1 <0>         0.0000
     27 H2         -0.9211    4.6028    0.8655 H         1 <0>         0.0000
     28 H3          0.5189    2.1558   -2.3835 H         1 <0>         0.0000
     29 H4          3.3547   -1.8044   -3.1711 H         1 <0>         0.0000
     30 H5          0.0934   -4.3192   -4.4602 H         1 <0>         0.0000
     31 H6          4.1211   -1.6084   -5.4961 H         1 <0>         0.0000
     32 H7          0.8613   -4.1219   -6.7845 H         1 <0>         0.0000
     33 H8         -1.1515    2.6005    2.3314 H         1 <0>         0.0000
     34 H9          1.1815   -4.1879   -1.8620 H         1 <0>         0.0000
@<TRIPOS>BOND
     1    1    2 ar
     2    1    3 ar
     3    1   26 1
     4    2    8 ar
     5    2   27 1
     6    3    9 ar
     7    3   28 1
     8    4    6 ar
     9    4   10 ar
    10    4   29 1
    11    5    7 ar
    12    5   10 ar
    13    5   30 1
    14    6   11 ar
    15    6   31 1
    16    7   11 ar
    17    7   32 1
    18    8   12 ar
    19    8   33 1
    20    9   12 ar
    21    9   13 1
    22   10   16 1
    23   11   19 1
    24   12   25 1
    25   13   17 2
    26   13   18 1
    27   14   15 1
    28   14   16 2
    29   14   17 1
    30   15   18 am
    31   15   21 2
    32   16   34 1
    33   18   25 1
    34   19   20 1
    35   19   22 2
    36   23   25 2
    37   24   25 2
