@<TRIPOS>MOLECULE
*****
   51    54     0     0     0
SMALL
NO_CHARGES

@<TRIPOS>ATOM
      1 C1         -7.7972   -8.4659    7.2538 C.ar      1 <0>         0.0000
      2 C2         -1.4395   -2.4506    3.0682 C.ar      1 <0>         0.0000
      3 C3         -8.6103   -7.8889    6.2691 C.ar      1 <0>         0.0000
      4 C4         -6.4124   -8.4331    7.0844 C.ar      1 <0>         0.0000
      5 C5         -0.0783   -2.7577    2.9498 C.ar      1 <0>         0.0000
      6 C6         -2.3610   -3.0447    2.2046 C.ar      1 <0>         0.0000
      7 C7         -8.0490   -7.2968    5.1403 C.ar      1 <0>         0.0000
      8 C8         -5.8400   -7.8270    5.9603 C.ar      1 <0>         0.0000
      9 C9          0.3601   -3.6435    1.9626 C.ar      1 <0>         0.0000
     10 C10        -1.9444   -3.9355    1.2018 C.ar      1 <0>         0.0000
     11 C11        -6.6494   -7.2482    4.9643 C.ar      1 <0>         0.0000
     12 C12        -0.5664   -4.2186    1.0904 C.ar      1 <0>         0.0000
     13 C13        -2.3382   -5.2893   -0.7631 C.2       1 <0>         0.0000
     14 C14        -2.8601   -4.6322    0.2872 C.2       1 <0>         0.0000
     15 C15        -6.5470   -5.2921    3.4984 C.3       1 <0>         0.0000
     16 C16        -4.6821   -6.8245    3.5554 C.3       1 <0>         0.0000
     17 C17        -6.1789   -4.9071    2.0704 C.3       1 <0>         0.0000
     18 C18        -4.3299   -6.4265    2.1259 C.3       1 <0>         0.0000
     19 C19        -0.8576   -5.2615   -1.0643 C.3       1 <0>         0.0000
     20 C20        -0.5147   -4.0822   -1.9885 C.3       1 <0>         0.0000
     21 C21        -0.3848   -6.5874   -1.6585 C.3       1 <0>         0.0000
     22 C22        -4.3525   -4.5981    0.5217 C.3       1 <0>         0.0000
     23 N1         -6.1148   -6.6648    3.7923 N.pl3     1 <0>         0.0000
     24 N2         -4.7418   -5.0504    1.8568 N.3       1 <0>         0.0000
     25 O1         -0.0973   -5.1172    0.1698 O.3       1 <0>         0.0000
     26 H1         -8.2373   -8.9338    8.1300 H         1 <0>         0.0000
     27 H2         -1.7800   -1.7621    3.8365 H         1 <0>         0.0000
     28 H3         -9.6924   -7.9161    6.3726 H         1 <0>         0.0000
     29 H4         -5.7619   -8.8720    7.8373 H         1 <0>         0.0000
     30 H5          0.6447   -2.3053    3.6238 H         1 <0>         0.0000
     31 H6         -3.4195   -2.8430    2.3232 H         1 <0>         0.0000
     32 H7         -8.7007   -6.8931    4.3710 H         1 <0>         0.0000
     33 H8         -4.7598   -7.7988    5.8752 H         1 <0>         0.0000
     34 H9          1.4106   -3.8958    1.8509 H         1 <0>         0.0000
     35 H10        -2.9779   -5.8322   -1.4558 H         1 <0>         0.0000
     36 H11        -6.0731   -4.5823    4.1980 H         1 <0>         0.0000
     37 H12        -7.6273   -5.2108    3.6227 H         1 <0>         0.0000
     38 H13        -4.4145   -7.8747    3.6994 H         1 <0>         0.0000
     39 H14        -4.0809   -6.2162    4.2532 H         1 <0>         0.0000
     40 H15        -6.7597   -5.5324    1.3649 H         1 <0>         0.0000
     41 H16        -6.4592   -3.8612    1.8995 H         1 <0>         0.0000
     42 H17        -3.2477   -6.5060    1.9939 H         1 <0>         0.0000
     43 H18        -4.8092   -7.1340    1.4221 H         1 <0>         0.0000
     44 H19         0.5591   -4.0682   -2.2024 H         1 <0>         0.0000
     45 H20        -0.7931   -3.1351   -1.5175 H         1 <0>         0.0000
     46 H21        -1.0615   -4.1673   -2.9332 H         1 <0>         0.0000
     47 H22         0.6976   -6.5656   -1.8137 H         1 <0>         0.0000
     48 H23        -0.8711   -6.7663   -2.6225 H         1 <0>         0.0000
     49 H24        -0.6245   -7.4148   -0.9849 H         1 <0>         0.0000
     50 H25        -4.8449   -5.1918   -0.2710 H         1 <0>         0.0000
     51 H26        -4.7107   -3.5659    0.4099 H         1 <0>         0.0000
@<TRIPOS>BOND
     1    1    4 ar
     2    1    3 ar
     3    1   26 1
     4    2    5 ar
     5    2    6 ar
     6    2   27 1
     7    3    7 ar
     8    3   28 1
     9    4    8 ar
    10    4   29 1
    11    5    9 ar
    12    5   30 1
    13    6   10 ar
    14    6   31 1
    15    7   11 ar
    16    7   32 1
    17    8   11 ar
    18    8   33 1
    19    9   12 ar
    20    9   34 1
    21   10   12 ar
    22   10   14 1
    23   11   23 1
    24   12   25 1
    25   13   14 2
    26   13   19 1
    27   13   35 1
    28   14   22 1
    29   15   17 1
    30   15   23 1
    31   15   36 1
    32   15   37 1
    33   16   18 1
    34   16   23 1
    35   16   38 1
    36   16   39 1
    37   17   24 1
    38   17   40 1
    39   17   41 1
    40   18   24 1
    41   18   42 1
    42   18   43 1
    43   19   20 1
    44   19   21 1
    45   19   25 1
    46   20   44 1
    47   20   45 1
    48   20   46 1
    49   21   47 1
    50   21   48 1
    51   21   49 1
    52   22   24 1
    53   22   50 1
    54   22   51 1
