@<TRIPOS>MOLECULE
*****
   38    39     0     0     0
SMALL
NO_CHARGES

@<TRIPOS>ATOM
      1 C1         -2.6208    1.3814    3.1018 C.ar      1 <0>         0.0000
      2 C2         -2.9494    2.0422    4.2823 C.ar      1 <0>         0.0000
      3 C3         -0.7995    1.4772    5.1805 C.ar      1 <0>         0.0000
      4 C4         -1.3919    0.7186    2.9244 C.ar      1 <0>         0.0000
      5 C5         -2.0364    2.1025    5.3458 C.ar      1 <0>         0.0000
      6 C6         -0.4895    0.7837    4.0037 C.ar      1 <0>         0.0000
      7 C7         -1.2378   -0.0328    1.5741 C.2       1 <0>         0.0000
      8 C8         -3.4652    2.3283    7.5253 C.3       1 <0>         0.0000
      9 C9         -2.0129    2.2776    7.9589 C.3       1 <0>         0.0000
     10 C10        -2.3743    2.8429    6.6049 C.3       1 <0>         0.0000
     11 C11         0.1969   -3.8108    3.7835 C.3       1 <0>         0.0000
     12 C12         1.6363   -2.8933    5.6313 C.3       1 <0>         0.0000
     13 C13        -0.7561   -2.1231    5.3748 C.3       1 <0>         0.0000
     14 C14         0.5180   -2.5661    4.6300 C.3       1 <0>         0.0000
     15 N1          1.0144   -1.5749    3.6334 N.pl3     1 <0>         0.0000
     16 O1         -1.7370    0.5512    0.5914 O.co2     1 <0>         0.0000
     17 O2         -0.7020   -1.1867    1.6137 O.co2     1 <0>         0.0000
     18 O3          1.9057    0.6465    2.8608 O.2       1 <0>         0.0000
     19 O4          1.7140    0.1769    5.3499 O.2       1 <0>         0.0000
     20 S1          1.1772    0.0429    3.9801 S.o2      1 <0>         0.0000
     21 H1         -3.3108    1.3607    2.2640 H         1 <0>         0.0000
     22 H2         -3.9230    2.5191    4.3862 H         1 <0>         0.0000
     23 H3         -0.0606    1.5102    5.9744 H         1 <0>         0.0000
     24 H4         -3.9389    1.3899    7.2512 H         1 <0>         0.0000
     25 H5         -4.1236    3.0501    8.0023 H         1 <0>         0.0000
     26 H6         -1.6809    2.9644    8.7329 H         1 <0>         0.0000
     27 H7         -1.5304    1.3049    7.9807 H         1 <0>         0.0000
     28 H8         -2.3171    3.9280    6.5253 H         1 <0>         0.0000
     29 H9         -0.5897   -3.5903    3.0553 H         1 <0>         0.0000
     30 H10         1.0872   -4.1376    3.2367 H         1 <0>         0.0000
     31 H11        -0.1377   -4.6297    4.4304 H         1 <0>         0.0000
     32 H12         1.8988   -2.0125    6.2198 H         1 <0>         0.0000
     33 H13         2.5311   -3.2256    5.0953 H         1 <0>         0.0000
     34 H14         1.3131   -3.6942    6.3081 H         1 <0>         0.0000
     35 H15        -0.5581   -1.2722    6.0312 H         1 <0>         0.0000
     36 H16        -1.5406   -1.8390    4.6678 H         1 <0>         0.0000
     37 H17        -1.1274   -2.9480    5.9947 H         1 <0>         0.0000
     38 H18         0.4322   -1.5844    2.7567 H         1 <0>         0.0000
@<TRIPOS>BOND
     1    1    2 ar
     2    1    4 ar
     3    1   21 1
     4    2    5 ar
     5    2   22 1
     6    3    5 ar
     7    3    6 ar
     8    3   23 1
     9    4    6 ar
    10    4    7 1
    11    5   10 1
    12    6   20 1
    13    7   16 1
    14    7   17 2
    15    8    9 1
    16    8   10 1
    17    8   24 1
    18    8   25 1
    19    9   10 1
    20    9   26 1
    21    9   27 1
    22   10   28 1
    23   11   14 1
    24   11   29 1
    25   11   30 1
    26   11   31 1
    27   12   14 1
    28   12   32 1
    29   12   33 1
    30   12   34 1
    31   13   14 1
    32   13   35 1
    33   13   36 1
    34   13   37 1
    35   14   15 1
    36   15   20 1
    37   15   38 1
    38   18   20 2
    39   19   20 2
