@<TRIPOS>MOLECULE
*****
   49    51     0     0     0
SMALL
NO_CHARGES

@<TRIPOS>ATOM
      1 C1         -2.8453    1.9096    1.8608 C.ar      1 <0>         0.0000
      2 C2          3.3940   -0.4646   -0.2558 C.ar      1 <0>         0.0000
      3 C3         -1.8746    0.9236    1.6565 C.ar      1 <0>         0.0000
      4 C4          2.1299   -0.5921    0.3269 C.ar      1 <0>         0.0000
      5 C5         -3.4604    1.7710   -0.4612 C.ar      1 <0>         0.0000
      6 C6          1.1424   -0.6565   -1.8959 C.ar      1 <0>         0.0000
      7 C7         -2.5004    0.7896   -0.6959 C.ar      1 <0>         0.0000
      8 C8         -3.6585    2.3401    0.8093 C.ar      1 <0>         0.0000
      9 C9          3.5573   -0.4442   -1.6431 C.ar      1 <0>         0.0000
     10 C10         2.4192   -0.5757   -2.4625 C.ar      1 <0>         0.0000
     11 C11         1.0112   -0.6581   -0.4952 C.ar      1 <0>         0.0000
     12 C12        -1.7032    0.3680    0.3913 C.ar      1 <0>         0.0000
     13 C13        -0.1035   -0.6397   -2.7303 C.2       1 <0>         0.0000
     14 C14        -2.2681    0.2726   -2.0976 C.3       1 <0>         0.0000
     15 C15        -4.7107    3.4036    1.0105 C.3       1 <0>         0.0000
     16 C16         5.3784    2.0092   -1.0904 C.3       1 <0>         0.0000
     17 C17         4.3994    1.9765   -3.4243 C.3       1 <0>         0.0000
     18 C18         2.5972   -1.8539   -4.4473 C.3       1 <0>         0.0000
     19 C19         4.9266   -0.2422   -2.2561 C.3       1 <0>         0.0000
     20 C20         5.3097    1.2537   -2.4233 C.3       1 <0>         0.0000
     21 O1         -0.4276   -1.3970   -3.6129 O.2       1 <0>         0.0000
     22 O2         -0.2485   -1.3988    1.6916 O.2       1 <0>         0.0000
     23 O3         -1.2365   -2.0467   -0.5804 O.2       1 <0>         0.0000
     24 O4         -0.8435    0.4127   -2.2846 O.3       1 <0>         0.0000
     25 O5          5.8673   -0.9267   -1.4143 O.3       1 <0>         0.0000
     26 O6          2.5576   -0.5481   -3.8316 O.3       1 <0>         0.0000
     27 S1         -0.5832   -1.0619    0.2987 S.o2      1 <0>         0.0000
     28 H1         -2.9712    2.3355    2.8530 H         1 <0>         0.0000
     29 H2          4.2760   -0.4098    0.3724 H         1 <0>         0.0000
     30 H3         -1.2696    0.5616    2.4810 H         1 <0>         0.0000
     31 H4          2.0119   -0.6651    1.4024 H         1 <0>         0.0000
     32 H5         -4.0665    2.1179   -1.2963 H         1 <0>         0.0000
     33 H6         -2.5463   -0.7763   -2.2167 H         1 <0>         0.0000
     34 H7         -2.7931    0.8825   -2.8358 H         1 <0>         0.0000
     35 H8         -4.4788    4.2994    0.4234 H         1 <0>         0.0000
     36 H9         -5.6953    3.0490    0.6874 H         1 <0>         0.0000
     37 H10        -4.7849    3.6994    2.0599 H         1 <0>         0.0000
     38 H11         4.3808    2.1423   -0.6597 H         1 <0>         0.0000
     39 H12         5.9975    1.4823   -0.3583 H         1 <0>         0.0000
     40 H13         5.8070    3.0051   -1.2448 H         1 <0>         0.0000
     41 H14         3.3783    2.0620   -3.0393 H         1 <0>         0.0000
     42 H15         4.7723    2.9899   -3.6062 H         1 <0>         0.0000
     43 H16         4.3464    1.4508   -4.3816 H         1 <0>         0.0000
     44 H17         2.7502   -1.6756   -5.5130 H         1 <0>         0.0000
     45 H18         1.6531   -2.3797   -4.2886 H         1 <0>         0.0000
     46 H19         3.4319   -2.4406   -4.0449 H         1 <0>         0.0000
     47 H20         4.9319   -0.6919   -3.2557 H         1 <0>         0.0000
     48 H21         6.3233    1.2367   -2.8546 H         1 <0>         0.0000
     49 H22         6.7550   -0.7504   -1.7644 H         1 <0>         0.0000
@<TRIPOS>BOND
     1    1    3 ar
     2    1    8 ar
     3    1   28 1
     4    2    4 ar
     5    2    9 ar
     6    2   29 1
     7    3   12 ar
     8    3   30 1
     9    4   11 ar
    10    4   31 1
    11    5    7 ar
    12    5    8 ar
    13    5   32 1
    14    6   10 ar
    15    6   11 ar
    16    6   13 1
    17    7   12 ar
    18    7   14 1
    19    8   15 1
    20    9   10 ar
    21    9   19 1
    22   10   26 1
    23   11   27 1
    24   12   27 1
    25   13   21 2
    26   13   24 1
    27   14   24 1
    28   14   33 1
    29   14   34 1
    30   15   35 1
    31   15   36 1
    32   15   37 1
    33   16   20 1
    34   16   38 1
    35   16   39 1
    36   16   40 1
    37   17   20 1
    38   17   41 1
    39   17   42 1
    40   17   43 1
    41   18   26 1
    42   18   44 1
    43   18   45 1
    44   18   46 1
    45   19   20 1
    46   19   25 1
    47   19   47 1
    48   20   48 1
    49   22   27 2
    50   23   27 2
    51   25   49 1
