@<TRIPOS>MOLECULE
*****
   52    53     0     0     0
SMALL
NO_CHARGES

@<TRIPOS>ATOM
      1 C1         -0.0347    1.0286   -3.5763 C.ar      1 <0>         0.0000
      2 C2         -1.3230    1.3550   -3.1153 C.ar      1 <0>         0.0000
      3 C3          0.8793    0.4610   -2.6996 C.ar      1 <0>         0.0000
      4 C4         -1.6882    1.1291   -1.7909 C.ar      1 <0>         0.0000
      5 C5          0.5285    0.2148   -1.3584 C.ar      1 <0>         0.0000
      6 C6         -0.7599    0.5638   -0.9082 C.ar      1 <0>         0.0000
      7 C7          1.4740   -0.4493   -0.4469 C.2       1 <0>         0.0000
      8 C8         -0.1186    0.2324    1.3691 C.3       1 <0>         0.0000
      9 C9          0.9114   -0.8385    0.9329 C.3       1 <0>         0.0000
     10 C10         0.0205    3.9929    2.4463 C.3       1 <0>         0.0000
     11 C11         4.4057   -1.4320    4.1763 C.3       1 <0>         0.0000
     12 C12        -0.7395   -5.3451    1.3533 C.3       1 <0>         0.0000
     13 C13         0.4714    1.6079    1.6977 C.3       1 <0>         0.0000
     14 C14         2.0824   -0.9457    1.9280 C.3       1 <0>         0.0000
     15 C15         0.1659   -2.1946    0.7659 C.3       1 <0>         0.0000
     16 C16        -0.5986    2.6570    2.0226 C.3       1 <0>         0.0000
     17 C17         1.6728   -1.4232    3.3232 C.3       1 <0>         0.0000
     18 C18         1.0748   -3.3568    0.3733 C.3       1 <0>         0.0000
     19 O1          2.6213   -0.7433   -0.7716 O.2       1 <0>         0.0000
     20 O2          2.8122    0.6772    4.4885 O.2       1 <0>         0.0000
     21 O3          2.3705   -1.4144    5.8941 O.2       1 <0>         0.0000
     22 O4         -0.8659   -4.4129   -1.1323 O.2       1 <0>         0.0000
     23 O5          1.1230   -5.8802   -0.4625 O.2       1 <0>         0.0000
     24 O6         -1.1656    0.3480    0.3737 O.3       1 <0>         0.0000
     25 S1          2.7762   -0.7909    4.6246 S.o2      1 <0>         0.0000
     26 S2          0.1412   -4.8317   -0.1431 S.o2      1 <0>         0.0000
     27 H1          0.2373    1.2130   -4.6112 H         1 <0>         0.0000
     28 H2         -2.0453    1.7961   -3.7974 H         1 <0>         0.0000
     29 H3          1.8774    0.1814   -3.0233 H         1 <0>         0.0000
     30 H4         -2.6761    1.3856   -1.4203 H         1 <0>         0.0000
     31 H5         -0.6655   -0.1291    2.2451 H         1 <0>         0.0000
     32 H6          0.6493    3.8738    3.3354 H         1 <0>         0.0000
     33 H7         -0.7539    4.7314    2.6781 H         1 <0>         0.0000
     34 H8          0.6477    4.4072    1.6486 H         1 <0>         0.0000
     35 H9          5.0877   -1.0740    4.9498 H         1 <0>         0.0000
     36 H10         4.3720   -2.5227    4.1775 H         1 <0>         0.0000
     37 H11         4.6980   -1.0374    3.2026 H         1 <0>         0.0000
     38 H12        -1.2546   -6.2697    1.0861 H         1 <0>         0.0000
     39 H13        -0.0184   -5.5349    2.1502 H         1 <0>         0.0000
     40 H14        -1.4644   -4.5804    1.6343 H         1 <0>         0.0000
     41 H15         1.1338    1.5016    2.5632 H         1 <0>         0.0000
     42 H16         1.0959    1.9617    0.8682 H         1 <0>         0.0000
     43 H17         2.5620    0.0317    2.0026 H         1 <0>         0.0000
     44 H18         2.8341   -1.6142    1.5053 H         1 <0>         0.0000
     45 H19        -0.6161   -2.0879    0.0107 H         1 <0>         0.0000
     46 H20        -0.3415   -2.4185    1.7112 H         1 <0>         0.0000
     47 H21        -1.2468    2.8047    1.1530 H         1 <0>         0.0000
     48 H22        -1.2426    2.2776    2.8269 H         1 <0>         0.0000
     49 H23         0.7035   -1.0369    3.6499 H         1 <0>         0.0000
     50 H24         1.6529   -2.5108    3.4311 H         1 <0>         0.0000
     51 H25         1.6872   -3.1287   -0.5036 H         1 <0>         0.0000
     52 H26         1.7423   -3.6887    1.1726 H         1 <0>         0.0000
@<TRIPOS>BOND
     1    1    2 ar
     2    1    3 ar
     3    1   27 1
     4    2    4 ar
     5    2   28 1
     6    3    5 ar
     7    3   29 1
     8    4    6 ar
     9    4   30 1
    10    5    6 ar
    11    5    7 1
    12    6   24 1
    13    7    9 1
    14    7   19 2
    15    8    9 1
    16    8   13 1
    17    8   24 1
    18    8   31 1
    19    9   14 1
    20    9   15 1
    21   10   16 1
    22   10   32 1
    23   10   33 1
    24   10   34 1
    25   11   25 1
    26   11   35 1
    27   11   36 1
    28   11   37 1
    29   12   26 1
    30   12   38 1
    31   12   39 1
    32   12   40 1
    33   13   16 1
    34   13   41 1
    35   13   42 1
    36   14   17 1
    37   14   43 1
    38   14   44 1
    39   15   18 1
    40   15   45 1
    41   15   46 1
    42   16   47 1
    43   16   48 1
    44   17   25 1
    45   17   49 1
    46   17   50 1
    47   18   26 1
    48   18   51 1
    49   18   52 1
    50   20   25 2
    51   21   25 2
    52   22   26 2
    53   23   26 2
