@<TRIPOS>MOLECULE
*****
   54    58     0     0     0
SMALL
NO_CHARGES

@<TRIPOS>ATOM
      1 C1         -3.7018    2.5044    3.3945 C.ar      1 <0>         0.0000
      2 C2         -4.9567    2.6818    5.4345 C.ar      1 <0>         0.0000
      3 C3         -2.5597    2.9980    4.0317 C.ar      1 <0>         0.0000
      4 C4         -3.8371    3.1904    6.0855 C.ar      1 <0>         0.0000
      5 C5         -4.9073    2.3272    4.0771 C.ar      1 <0>         0.0000
      6 C6         -2.6270    3.3401    5.3877 C.ar      1 <0>         0.0000
      7 C7         -2.7130   -0.8534    3.8641 C.2       1 <0>         0.0000
      8 C8         -4.1483   -0.5699    2.1534 C.2       1 <0>         0.0000
      9 C9         -1.5465    0.4560    0.8679 C.2       1 <0>         0.0000
     10 C10        -1.4024   -1.0951    4.5396 C.3       1 <0>         0.0000
     11 C11        -0.2459   -0.7345    3.5924 C.3       1 <0>         0.0000
     12 C12        -0.4479   -1.3961    2.2209 C.3       1 <0>         0.0000
     13 C13        -7.4098    2.2949    3.3115 C.3       1 <0>         0.0000
     14 C14        -6.5496    2.1403    2.0734 C.3       1 <0>         0.0000
     15 C15        -2.5514   -0.3030   -1.3983 C.3       1 <0>         0.0000
     16 C16        -1.8720    1.7509   -1.2533 C.3       1 <0>         0.0000
     17 C17        -1.7380   -0.9281    1.5171 C.3       1 <0>         0.0000
     18 C18        -2.7464    0.9666   -2.2562 C.3       1 <0>         0.0000
     19 C19        -6.0537    1.6310    3.4069 C.3       1 <0>         0.0000
     20 C20        -0.3237    3.9729    5.4472 C.3       1 <0>         0.0000
     21 C21        -6.0634    0.1167    3.6259 C.3       1 <0>         0.0000
     22 N1         -3.8629   -0.6297    4.4310 N.2       1 <0>         0.0000
     23 N2         -2.8242   -0.8644    2.4855 N.am      1 <0>         0.0000
     24 N3         -4.7635   -0.4894    3.3779 N.am      1 <0>         0.0000
     25 N4         -1.7218    0.5099   -0.4722 N.am      1 <0>         0.0000
     26 O1         -4.6175   -0.4245    1.0184 O.2       1 <0>         0.0000
     27 O2         -1.2100    1.4435    1.5277 O.2       1 <0>         0.0000
     28 O3         -1.5696    3.8228    6.1184 O.3       1 <0>         0.0000
     29 F1         -2.1865    0.8729   -3.5289 F         1 <0>         0.0000
     30 H1         -3.6307    2.2315    2.3460 H         1 <0>         0.0000
     31 H2         -5.8824    2.5467    5.9900 H         1 <0>         0.0000
     32 H3         -1.6444    3.0802    3.4587 H         1 <0>         0.0000
     33 H4         -3.8701    3.4658    7.1359 H         1 <0>         0.0000
     34 H5         -1.3716   -0.5112    5.4626 H         1 <0>         0.0000
     35 H6         -1.3337   -2.1537    4.8221 H         1 <0>         0.0000
     36 H7         -0.1905    0.3492    3.4666 H         1 <0>         0.0000
     37 H8          0.7005   -1.0738    4.0251 H         1 <0>         0.0000
     38 H9          0.4001   -1.1885    1.5619 H         1 <0>         0.0000
     39 H10        -0.5020   -2.4846    2.3447 H         1 <0>         0.0000
     40 H11        -7.5124    3.2874    3.7397 H         1 <0>         0.0000
     41 H12        -8.2949    1.6696    3.4025 H         1 <0>         0.0000
     42 H13        -6.8351    1.4052    1.3278 H         1 <0>         0.0000
     43 H14        -6.0792    3.0340    1.6751 H         1 <0>         0.0000
     44 H15        -3.4566   -0.6937   -0.9295 H         1 <0>         0.0000
     45 H16        -1.9893   -1.0869   -1.9148 H         1 <0>         0.0000
     46 H17        -0.9345    2.1202   -1.6788 H         1 <0>         0.0000
     47 H18        -2.3696    2.5482   -0.6944 H         1 <0>         0.0000
     48 H19        -2.0168   -1.6535    0.7487 H         1 <0>         0.0000
     49 H20        -3.7758    1.3091   -2.3691 H         1 <0>         0.0000
     50 H21         0.3748    4.3551    6.1934 H         1 <0>         0.0000
     51 H22        -0.3978    4.6871    4.6178 H         1 <0>         0.0000
     52 H23         0.0432    3.0127    5.0623 H         1 <0>         0.0000
     53 H24        -6.7981   -0.3603    2.9707 H         1 <0>         0.0000
     54 H25        -6.3104   -0.1226    4.6627 H         1 <0>         0.0000
@<TRIPOS>BOND
     1    1    3 ar
     2    1    5 ar
     3    1   30 1
     4    2    4 ar
     5    2    5 ar
     6    2   31 1
     7    3    6 ar
     8    3   32 1
     9    4    6 ar
    10    4   33 1
    11    5   19 1
    12    6   28 1
    13    7   10 1
    14    7   22 2
    15    7   23 1
    16    8   23 am
    17    8   24 am
    18    8   26 2
    19    9   17 1
    20    9   25 am
    21    9   27 2
    22   10   11 1
    23   10   34 1
    24   10   35 1
    25   11   12 1
    26   11   36 1
    27   11   37 1
    28   12   17 1
    29   12   38 1
    30   12   39 1
    31   13   14 1
    32   13   19 1
    33   13   40 1
    34   13   41 1
    35   14   19 1
    36   14   42 1
    37   14   43 1
    38   15   18 1
    39   15   25 1
    40   15   44 1
    41   15   45 1
    42   16   18 1
    43   16   25 1
    44   16   46 1
    45   16   47 1
    46   17   23 1
    47   17   48 1
    48   18   29 1
    49   18   49 1
    50   19   21 1
    51   20   28 1
    52   20   50 1
    53   20   51 1
    54   20   52 1
    55   21   24 1
    56   21   53 1
    57   21   54 1
    58   22   24 1
