@<TRIPOS>MOLECULE
*****
   70    74     0     0     0
SMALL
NO_CHARGES

@<TRIPOS>ATOM
      1 C1         -6.2095    1.9464    0.1177 C.ar      1 <0>         0.0000
      2 C2         -2.3195    7.5340   -0.6037 C.ar      1 <0>         0.0000
      3 C3         -5.3694    3.0496   -0.0437 C.ar      1 <0>         0.0000
      4 C4         -6.3862    1.0030   -0.8962 C.ar      1 <0>         0.0000
      5 C5         -2.7107    6.4429   -1.3809 C.ar      1 <0>         0.0000
      6 C6         -4.8484    2.2929   -2.2857 C.ar      1 <0>         0.0000
      7 C7         -2.7149    7.6218    0.7295 C.ar      1 <0>         0.0000
      8 C8         -4.6816    3.2446   -1.2590 C.ar      1 <0>         0.0000
      9 C9         -5.6854    1.1990   -2.0900 C.ar      1 <0>         0.0000
     10 C10        -3.5448    6.5861    1.2322 C.ar      1 <0>         0.0000
     11 C11        -3.4913    5.4435   -0.7760 C.ar      1 <0>         0.0000
     12 C12        -2.8540    8.8417    2.8292 C.2       1 <0>         0.0000
     13 C13        -4.2434    5.3757    4.6643 C.3       1 <0>         0.0000
     14 C14        -6.1226    5.4358    3.0095 C.3       1 <0>         0.0000
     15 C15        -4.8398    4.0792    5.2201 C.3       1 <0>         0.0000
     16 C16        -6.6525    4.1392    3.6251 C.3       1 <0>         0.0000
     17 C17        -4.8409   -1.9888   -1.7957 C.3       1 <0>         0.0000
     18 C18        -3.2071   -0.7190   -3.1047 C.3       1 <0>         0.0000
     19 C19        -3.8634   -3.1620   -1.8075 C.3       1 <0>         0.0000
     20 C20        -2.2954   -1.9438   -3.0600 C.3       1 <0>         0.0000
     21 C21        -4.1172    8.0209    3.0804 C.3       1 <0>         0.0000
     22 C22        -4.5979    5.5080    3.1794 C.3       1 <0>         0.0000
     23 C23        -5.3289    8.7889    2.5124 C.3       1 <0>         0.0000
     24 C24        -1.1089    9.4525    1.2278 C.3       1 <0>         0.0000
     25 C25        -6.8732    2.8563    5.6559 C.3       1 <0>         0.0000
     26 N1         -3.9051    5.5288    0.4937 N.ar      1 <0>         0.0000
     27 N2         -2.2534    8.6289    1.6078 N.am      1 <0>         0.0000
     28 N3         -3.9592    6.6673    2.5437 N.pl3     1 <0>         0.0000
     29 N4         -6.2922    4.0429    5.0398 N.3       1 <0>         0.0000
     30 N5         -4.6010   -1.1833   -3.0055 N.pl3     1 <0>         0.0000
     31 N6         -3.8419    4.3256   -1.5329 N.pl3     1 <0>         0.0000
     32 O1         -2.4532    9.6691    3.6448 O.2       1 <0>         0.0000
     33 O2         -7.0730   -0.7304   -3.2513 O.2       1 <0>         0.0000
     34 O3         -5.3645    0.5834   -4.6399 O.2       1 <0>         0.0000
     35 O4         -2.5115   -2.7147   -1.8809 O.3       1 <0>         0.0000
     36 S1         -5.7900   -0.0400   -3.3848 S.o2      1 <0>         0.0000
     37 H1         -6.7426    1.8288    1.0576 H         1 <0>         0.0000
     38 H2         -1.6893    8.2997   -1.0429 H         1 <0>         0.0000
     39 H3         -5.2436    3.7695    0.7490 H         1 <0>         0.0000
     40 H4         -7.0590    0.1600   -0.7845 H         1 <0>         0.0000
     41 H5         -2.4069    6.3682   -2.4208 H         1 <0>         0.0000
     42 H6         -4.3510    2.4151   -3.2444 H         1 <0>         0.0000
     43 H7         -4.6490    6.2125    5.2423 H         1 <0>         0.0000
     44 H8         -3.1556    5.3726    4.7922 H         1 <0>         0.0000
     45 H9         -6.3859    5.4873    1.9489 H         1 <0>         0.0000
     46 H10        -6.5978    6.2797    3.5198 H         1 <0>         0.0000
     47 H11        -4.3536    3.2109    4.7297 H         1 <0>         0.0000
     48 H12        -4.6230    4.0041    6.2909 H         1 <0>         0.0000
     49 H13        -7.7440    4.1061    3.5417 H         1 <0>         0.0000
     50 H14        -6.2584    3.2725    3.0545 H         1 <0>         0.0000
     51 H15        -5.8684   -2.3559   -1.8178 H         1 <0>         0.0000
     52 H16        -4.6885   -1.3894   -0.8855 H         1 <0>         0.0000
     53 H17        -2.9570   -0.0397   -2.2754 H         1 <0>         0.0000
     54 H18        -3.0801   -0.1931   -4.0527 H         1 <0>         0.0000
     55 H19        -3.9515   -3.7338   -0.8805 H         1 <0>         0.0000
     56 H20        -4.0902   -3.8201   -2.6590 H         1 <0>         0.0000
     57 H21        -2.4695   -2.5620   -3.9529 H         1 <0>         0.0000
     58 H22        -1.2481   -1.6321   -3.0400 H         1 <0>         0.0000
     59 H23        -4.2054    7.9551    4.1629 H         1 <0>         0.0000
     60 H24        -4.1708    4.6421    2.6663 H         1 <0>         0.0000
     61 H25        -5.2705    8.8530    1.4215 H         1 <0>         0.0000
     62 H26        -5.3467    9.8035    2.9212 H         1 <0>         0.0000
     63 H27        -6.2643    8.2918    2.7763 H         1 <0>         0.0000
     64 H28        -1.3680   10.1304    0.4068 H         1 <0>         0.0000
     65 H29        -0.2743    8.8160    0.9184 H         1 <0>         0.0000
     66 H30        -0.8209   10.0431    2.0957 H         1 <0>         0.0000
     67 H31        -6.6329    2.8377    6.7236 H         1 <0>         0.0000
     68 H32        -6.5082    1.9132    5.2052 H         1 <0>         0.0000
     69 H33        -7.9628    2.8824    5.5544 H         1 <0>         0.0000
     70 H34        -3.4777    4.3406   -2.4762 H         1 <0>         0.0000
@<TRIPOS>BOND
     1    1    3 ar
     2    1    4 ar
     3    1   37 1
     4    2    5 ar
     5    2    7 ar
     6    2   38 1
     7    3    8 ar
     8    3   39 1
     9    4    9 ar
    10    4   40 1
    11    5   11 ar
    12    5   41 1
    13    6    8 ar
    14    6    9 ar
    15    6   42 1
    16    7   10 ar
    17    7   27 1
    18    8   31 1
    19    9   36 1
    20   10   26 ar
    21   10   28 1
    22   11   26 ar
    23   11   31 1
    24   12   21 1
    25   12   27 am
    26   12   32 2
    27   13   15 1
    28   13   22 1
    29   13   43 1
    30   13   44 1
    31   14   16 1
    32   14   22 1
    33   14   45 1
    34   14   46 1
    35   15   29 1
    36   15   47 1
    37   15   48 1
    38   16   29 1
    39   16   49 1
    40   16   50 1
    41   17   19 1
    42   17   30 1
    43   17   51 1
    44   17   52 1
    45   18   20 1
    46   18   30 1
    47   18   53 1
    48   18   54 1
    49   19   35 1
    50   19   55 1
    51   19   56 1
    52   20   35 1
    53   20   57 1
    54   20   58 1
    55   21   23 1
    56   21   28 1
    57   21   59 1
    58   22   28 1
    59   22   60 1
    60   23   61 1
    61   23   62 1
    62   23   63 1
    63   24   27 1
    64   24   64 1
    65   24   65 1
    66   24   66 1
    67   25   29 1
    68   25   67 1
    69   25   68 1
    70   25   69 1
    71   30   36 1
    72   31   70 1
    73   33   36 2
    74   34   36 2
