@<TRIPOS>MOLECULE
*****
   53    55     0     0     0
SMALL
NO_CHARGES

@<TRIPOS>ATOM
      1 C1          2.7677   -3.2252   12.4973 C.ar      1 <0>         0.0000
      2 C2          1.4049   -2.8304   12.4275 C.ar      1 <0>         0.0000
      3 C3          3.5918   -3.0720   11.4024 C.ar      1 <0>         0.0000
      4 C4          3.8789   -2.3328    9.0320 C.ar      1 <0>         0.0000
      5 C5          2.2751    0.4507    2.2075 C.ar      1 <0>         0.0000
      6 C6          0.0288    0.7652    3.0038 C.ar      1 <0>         0.0000
      7 C7          0.8880   -2.2903   11.2684 C.ar      1 <0>         0.0000
      8 C8          2.6457   -0.0661    3.4441 C.ar      1 <0>         0.0000
      9 C9          0.3835    0.2447    4.2551 C.ar      1 <0>         0.0000
     10 C10         3.3134   -1.7894    7.9003 C.ar      1 <0>         0.0000
     11 C11         3.0873   -2.5183   10.1944 C.ar      1 <0>         0.0000
     12 C12         0.9564    0.8748    1.9671 C.ar      1 <0>         0.0000
     13 C13         1.7138   -2.1205   10.1237 C.ar      1 <0>         0.0000
     14 C14         1.7004   -0.1744    4.4764 C.ar      1 <0>         0.0000
     15 C15         1.9394   -1.4282    7.9340 C.ar      1 <0>         0.0000
     16 C16        -0.3507   -0.8691   -0.1091 C.2       1 <0>         0.0000
     17 C17        -1.6032   -1.0914   -0.5430 C.2       1 <0>         0.0000
     18 C18         1.4415    2.5406    0.1925 C.2       1 <0>         0.0000
     19 C19        -2.3922   -2.2848   -0.0576 C.3       1 <0>         0.0000
     20 C20        -2.3412   -0.2076   -1.5201 C.3       1 <0>         0.0000
     21 C21         1.7432    4.8833    0.2701 C.3       1 <0>         0.0000
     22 C22         1.2411   -0.8281    6.7330 C.3       1 <0>         0.0000
     23 C23         0.5529    0.2776   -0.4793 C.3       1 <0>         0.0000
     24 C24         0.5342    1.3905    0.5988 C.3       1 <0>         0.0000
     25 N1          1.1677   -1.5832    8.9944 N.ar      1 <0>         0.0000
     26 O1          2.5211    2.4235   -0.3585 O.2       1 <0>         0.0000
     27 O2          2.1625   -0.6991    5.6562 O.3       1 <0>         0.0000
     28 O3          0.9122    3.7358    0.5442 O.3       1 <0>         0.0000
     29 H1          3.1573   -3.6490   13.4191 H         1 <0>         0.0000
     30 H2          0.7669   -2.9570   13.2984 H         1 <0>         0.0000
     31 H3          4.6362   -3.3726   11.4502 H         1 <0>         0.0000
     32 H4          4.9276   -2.6220    9.0449 H         1 <0>         0.0000
     33 H5          3.0185    0.5347    1.4194 H         1 <0>         0.0000
     34 H6         -0.9982    1.0813    2.8383 H         1 <0>         0.0000
     35 H7         -0.1511   -1.9828   11.1961 H         1 <0>         0.0000
     36 H8          3.6646   -0.3916    3.6338 H         1 <0>         0.0000
     37 H9         -0.3690    0.1740    5.0321 H         1 <0>         0.0000
     38 H10         3.8842   -1.6319    6.9931 H         1 <0>         0.0000
     39 H11         0.0616   -1.5665    0.6192 H         1 <0>         0.0000
     40 H12        -3.3210   -1.9673    0.4346 H         1 <0>         0.0000
     41 H13        -1.8200   -2.8893    0.6514 H         1 <0>         0.0000
     42 H14        -2.6870   -2.9283   -0.8969 H         1 <0>         0.0000
     43 H15        -2.6359   -0.7772   -2.4109 H         1 <0>         0.0000
     44 H16        -1.7585    0.6547   -1.8491 H         1 <0>         0.0000
     45 H17        -3.2693    0.1675   -1.0696 H         1 <0>         0.0000
     46 H18         1.1725    5.7449    0.6162 H         1 <0>         0.0000
     47 H19         1.9476    4.9597   -0.8004 H         1 <0>         0.0000
     48 H20         2.6888    4.8042    0.8116 H         1 <0>         0.0000
     49 H21         0.4024   -1.4762    6.4480 H         1 <0>         0.0000
     50 H22         0.8315    0.1515    7.0105 H         1 <0>         0.0000
     51 H23         1.5821   -0.0771   -0.5901 H         1 <0>         0.0000
     52 H24         0.2740    0.7167   -1.4412 H         1 <0>         0.0000
     53 H25        -0.4823    1.7831    0.6824 H         1 <0>         0.0000
@<TRIPOS>BOND
     1    1    2 ar
     2    1    3 ar
     3    1   29 1
     4    2    7 ar
     5    2   30 1
     6    3   11 ar
     7    3   31 1
     8    4   10 ar
     9    4   11 ar
    10    4   32 1
    11    5    8 ar
    12    5   12 ar
    13    5   33 1
    14    6    9 ar
    15    6   12 ar
    16    6   34 1
    17    7   13 ar
    18    7   35 1
    19    8   14 ar
    20    8   36 1
    21    9   14 ar
    22    9   37 1
    23   10   15 ar
    24   10   38 1
    25   11   13 ar
    26   12   24 1
    27   13   25 ar
    28   14   27 1
    29   15   22 1
    30   15   25 ar
    31   16   17 2
    32   16   23 1
    33   16   39 1
    34   17   19 1
    35   17   20 1
    36   18   24 1
    37   18   26 2
    38   18   28 1
    39   19   40 1
    40   19   41 1
    41   19   42 1
    42   20   43 1
    43   20   44 1
    44   20   45 1
    45   21   28 1
    46   21   46 1
    47   21   47 1
    48   21   48 1
    49   22   27 1
    50   22   49 1
    51   22   50 1
    52   23   24 1
    53   23   51 1
    54   23   52 1
    55   24   53 1
