@<TRIPOS>MOLECULE
*****
   52    55     0     0     0
SMALL
NO_CHARGES

@<TRIPOS>ATOM
      1 C1         -7.9570    0.5752    6.1236 C.ar      1 <0>         0.0000
      2 C2         -2.5811   -1.8098   -1.7521 C.ar      1 <0>         0.0000
      3 C3         -8.1553    0.7085    4.7487 C.ar      1 <0>         0.0000
      4 C4         -7.1906   -0.4922    6.6076 C.ar      1 <0>         0.0000
      5 C5         -1.2448   -1.4487   -1.5308 C.ar      1 <0>         0.0000
      6 C6         -3.1013   -2.9384   -1.1188 C.ar      1 <0>         0.0000
      7 C7         -7.5830   -0.2057    3.8558 C.ar      1 <0>         0.0000
      8 C8         -6.6345   -1.4173    5.7249 C.ar      1 <0>         0.0000
      9 C9         -0.4264   -2.2246   -0.7085 C.ar      1 <0>         0.0000
     10 C10        -2.3001   -3.7248   -0.2673 C.ar      1 <0>         0.0000
     11 C11        -6.8196   -1.2761    4.3405 C.ar      1 <0>         0.0000
     12 C12        -0.9450   -3.3679   -0.0951 C.ar      1 <0>         0.0000
     13 C13        -1.9075   -5.6904    1.1062 C.2       1 <0>         0.0000
     14 C14        -2.7907   -4.8544    0.5317 C.2       1 <0>         0.0000
     15 C15        -6.7581   -2.3505    2.1279 C.3       1 <0>         0.0000
     16 C16        -4.7603   -2.2353    3.4494 C.3       1 <0>         0.0000
     17 C17        -6.2959   -3.6508    1.4800 C.3       1 <0>         0.0000
     18 C18        -4.2249   -3.5259    2.8468 C.3       1 <0>         0.0000
     19 C19        -0.4240   -5.5203    0.8625 C.3       1 <0>         0.0000
     20 C20         0.0107   -6.2488   -0.4155 C.3       1 <0>         0.0000
     21 C21         0.3926   -5.9671    2.0724 C.3       1 <0>         0.0000
     22 C22        -4.2659   -4.9748    0.7770 C.3       1 <0>         0.0000
     23 N1         -6.2216   -2.2540    3.4741 N.pl3     1 <0>         0.0000
     24 N2         -4.7898   -3.7174    1.4584 N.4       1 <0>         0.0000
     25 O1         -0.1321   -4.0917    0.7230 O.3       1 <0>         0.0000
     26 H1         -8.3991    1.2886    6.8126 H         1 <0>         0.0000
     27 H2         -3.2029   -1.2242   -2.4221 H         1 <0>         0.0000
     28 H3         -8.7497    1.5313    4.3613 H         1 <0>         0.0000
     29 H4         -7.0427   -0.6160    7.6768 H         1 <0>         0.0000
     30 H5         -0.8333   -0.5692   -2.0174 H         1 <0>         0.0000
     31 H6         -4.1257   -3.2372   -1.3391 H         1 <0>         0.0000
     32 H7         -7.7377   -0.0659    2.7906 H         1 <0>         0.0000
     33 H8         -6.0761   -2.2675    6.1086 H         1 <0>         0.0000
     34 H9          0.6154   -1.9679   -0.5421 H         1 <0>         0.0000
     35 H10        -2.2312   -6.5120    1.7415 H         1 <0>         0.0000
     36 H11        -6.4651   -1.5004    1.4827 H         1 <0>         0.0000
     37 H12        -7.8497   -2.3680    2.1686 H         1 <0>         0.0000
     38 H13        -4.3727   -2.1528    4.4655 H         1 <0>         0.0000
     39 H14        -4.3701   -1.3674    2.8852 H         1 <0>         0.0000
     40 H15        -6.6438   -4.5164    2.0471 H         1 <0>         0.0000
     41 H16        -6.6423   -3.7266    0.4468 H         1 <0>         0.0000
     42 H17        -3.1384   -3.5134    2.7566 H         1 <0>         0.0000
     43 H18        -4.5372   -4.3932    3.4325 H         1 <0>         0.0000
     44 H19         1.0800   -6.0933   -0.5854 H         1 <0>         0.0000
     45 H20        -0.5418   -5.8826   -1.2851 H         1 <0>         0.0000
     46 H21        -0.1750   -7.3229   -0.3202 H         1 <0>         0.0000
     47 H22         1.4531   -5.7702    1.8988 H         1 <0>         0.0000
     48 H23         0.2626   -7.0400    2.2406 H         1 <0>         0.0000
     49 H24         0.0829   -5.4280    2.9721 H         1 <0>         0.0000
     50 H25        -4.5071   -5.8167    1.4273 H         1 <0>         0.0000
     51 H26        -4.8372   -5.0751   -0.1499 H         1 <0>         0.0000
     52 H27        -4.4483   -2.9286    0.8900 H         1 <0>         0.0000
@<TRIPOS>BOND
     1    1    4 ar
     2    1    3 ar
     3    1   26 1
     4    2    5 ar
     5    2    6 ar
     6    2   27 1
     7    3    7 ar
     8    3   28 1
     9    4    8 ar
    10    4   29 1
    11    5    9 ar
    12    5   30 1
    13    6   10 ar
    14    6   31 1
    15    7   11 ar
    16    7   32 1
    17    8   11 ar
    18    8   33 1
    19    9   12 ar
    20    9   34 1
    21   10   12 ar
    22   10   14 1
    23   11   23 1
    24   12   25 1
    25   13   14 2
    26   13   19 1
    27   13   35 1
    28   14   22 1
    29   15   17 1
    30   15   23 1
    31   15   36 1
    32   15   37 1
    33   16   18 1
    34   16   23 1
    35   16   38 1
    36   16   39 1
    37   17   24 1
    38   17   40 1
    39   17   41 1
    40   18   24 1
    41   18   42 1
    42   18   43 1
    43   19   20 1
    44   19   21 1
    45   19   25 1
    46   20   44 1
    47   20   45 1
    48   20   46 1
    49   21   47 1
    50   21   48 1
    51   21   49 1
    52   22   24 1
    53   22   50 1
    54   22   51 1
    55   24   52 1
