@<TRIPOS>MOLECULE
*****
   22    22     0     0     0
SMALL
NO_CHARGES

@<TRIPOS>ATOM
      1 C1          1.8851   -1.0363   -0.1124 C.ar      1 <0>         0.0000
      2 C2          0.8066   -0.4630    0.5610 C.ar      1 <0>         0.0000
      3 C3          2.9210   -1.6309    0.6081 C.ar      1 <0>         0.0000
      4 C4          0.7638   -0.4841    1.9551 C.ar      1 <0>         0.0000
      5 C5          2.8783   -1.6520    2.0022 C.ar      1 <0>         0.0000
      6 C6          1.7997   -1.0786    2.6757 C.ar      1 <0>         0.0000
      7 C7          3.9759   -2.2799    2.7262 C.2       1 <0>         0.0000
      8 C8          4.0323   -3.5745    3.1076 C.2       1 <0>         0.0000
      9 C9          1.7210   -1.0814    4.1686 C.3       1 <0>         0.0000
     10 C10         2.9534   -4.5721    2.8361 C.3       1 <0>         0.0000
     11 H1          1.9186   -1.0194   -1.1981 H         1 <0>         0.0000
     12 H2          0.0008   -0.0000   -0.0006 H         1 <0>         0.0000
     13 H3          3.7546   -2.0728    0.0674 H         1 <0>         0.0000
     14 H4         -0.0803   -0.0337    2.4705 H         1 <0>         0.0000
     15 H5          4.8154   -1.6310    2.9955 H         1 <0>         0.0000
     16 H6          4.9024   -3.9532    3.6363 H         1 <0>         0.0000
     17 H7          1.2041   -1.9818    4.5185 H         1 <0>         0.0000
     18 H8          2.7212   -1.0545    4.6168 H         1 <0>         0.0000
     19 H9          1.1808   -0.2011    4.5371 H         1 <0>         0.0000
     20 H10         2.2413   -4.5852    3.6668 H         1 <0>         0.0000
     21 H11         2.4135   -4.2973    1.9248 H         1 <0>         0.0000
     22 H12         3.3462   -5.5856    2.7072 H         1 <0>         0.0000
@<TRIPOS>BOND
     1    1    2 ar
     2    1    3 ar
     3    1   11 1
     4    2    4 ar
     5    2   12 1
     6    3    5 ar
     7    3   13 1
     8    4    6 ar
     9    4   14 1
    10    5    6 ar
    11    5    7 1
    12    6    9 1
    13    7    8 2
    14    7   15 1
    15    8   10 1
    16    8   16 1
    17    9   17 1
    18    9   18 1
    19    9   19 1
    20   10   20 1
    21   10   21 1
    22   10   22 1
