@<TRIPOS>MOLECULE
*****
   43    44     0     0     0
SMALL
NO_CHARGES

@<TRIPOS>ATOM
      1 C1          3.4781    3.4720   -8.3175 C.2       1 <0>         0.0000
      2 C2          2.5334    4.2706   -6.4284 C.2       1 <0>         0.0000
      3 C3          1.7185    1.9762   -5.6814 C.2       1 <0>         0.0000
      4 C4         -0.1789    1.3699   -0.6903 C.3       1 <0>         0.0000
      5 C5         -1.2088    1.8841   -1.7066 C.3       1 <0>         0.0000
      6 C6          0.9070    0.5292   -1.3765 C.3       1 <0>         0.0000
      7 C7         -0.5382    2.6585   -2.8504 C.3       1 <0>         0.0000
      8 C8          1.5802    1.3075   -2.5153 C.3       1 <0>         0.0000
      9 C9          0.5435    1.8125   -3.5320 C.3       1 <0>         0.0000
     10 C10         4.2331    3.4626   -9.5991 C.3       1 <0>         0.0000
     11 C11         1.8908    6.3607   -9.5590 C.3       1 <0>         0.0000
     12 C12         3.0960    8.2290   -8.3427 C.3       1 <0>         0.0000
     13 C13         2.5290    6.8133   -8.2473 C.3       1 <0>         0.0000
     14 N1          2.9587    2.4257   -7.7454 N.2       1 <0>         0.0000
     15 N2          3.2436    4.6181   -7.5729 N.am      1 <0>         0.0000
     16 N3          2.3665    2.9027   -6.5779 N.am      1 <0>         0.0000
     17 N4          1.1699    2.5870   -4.6030 N.am      1 <0>         0.0000
     18 N5          3.6643    5.9126   -7.8995 N.3       1 <0>         0.0000
     19 O1          2.1809    5.0269   -5.5181 O.2       1 <0>         0.0000
     20 O2          1.6904    0.7844   -5.9333 O.2       1 <0>         0.0000
     21 H1         -0.6791    0.7832    0.0891 H         1 <0>         0.0000
     22 H2          0.2910    2.2265   -0.1873 H         1 <0>         0.0000
     23 H3         -1.7605    1.0315   -2.1251 H         1 <0>         0.0000
     24 H4         -1.9491    2.5226   -1.2110 H         1 <0>         0.0000
     25 H5          1.6597    0.2084   -0.6473 H         1 <0>         0.0000
     26 H6          0.4554   -0.3861   -1.7827 H         1 <0>         0.0000
     27 H7         -1.2803    2.9725   -3.5930 H         1 <0>         0.0000
     28 H8         -0.0787    3.5736   -2.4493 H         1 <0>         0.0000
     29 H9          2.1198    2.1725   -2.1052 H         1 <0>         0.0000
     30 H10         2.3142    0.6823   -3.0336 H         1 <0>         0.0000
     31 H11         0.0737    0.9452   -4.0061 H         1 <0>         0.0000
     32 H12         3.7071    4.0357  -10.3679 H         1 <0>         0.0000
     33 H13         4.3445    2.4298   -9.9318 H         1 <0>         0.0000
     34 H14         5.2189    3.9175   -9.4674 H         1 <0>         0.0000
     35 H15         2.6191    6.3990  -10.3760 H         1 <0>         0.0000
     36 H16         1.5016    5.3405   -9.4859 H         1 <0>         0.0000
     37 H17         1.0510    7.0152   -9.8121 H         1 <0>         0.0000
     38 H18         3.8691    8.2857   -9.1160 H         1 <0>         0.0000
     39 H19         3.5342    8.5494   -7.3904 H         1 <0>         0.0000
     40 H20         2.3011    8.9366   -8.5950 H         1 <0>         0.0000
     41 H21         1.7757    6.7824   -7.4495 H         1 <0>         0.0000
     42 H22         1.3254    3.5863   -4.4822 H         1 <0>         0.0000
     43 H23         4.1334    6.2807   -7.0712 H         1 <0>         0.0000
@<TRIPOS>BOND
     1    1   10 1
     2    1   14 2
     3    1   15 1
     4    2   15 am
     5    2   16 am
     6    2   19 2
     7    3   16 am
     8    3   17 am
     9    3   20 2
    10    4    6 1
    11    4    5 1
    12    4   21 1
    13    4   22 1
    14    5    7 1
    15    5   23 1
    16    5   24 1
    17    6    8 1
    18    6   25 1
    19    6   26 1
    20    7    9 1
    21    7   27 1
    22    7   28 1
    23    8    9 1
    24    8   29 1
    25    8   30 1
    26    9   17 1
    27    9   31 1
    28   10   32 1
    29   10   33 1
    30   10   34 1
    31   11   13 1
    32   11   35 1
    33   11   36 1
    34   11   37 1
    35   12   13 1
    36   12   38 1
    37   12   39 1
    38   12   40 1
    39   13   18 1
    40   13   41 1
    41   14   16 1
    42   15   18 1
    43   17   42 1
    44   18   43 1
