@<TRIPOS>MOLECULE
*****
   40    40     0     0     0
SMALL
NO_CHARGES

@<TRIPOS>ATOM
      1 C1          8.9231   -1.7353   -1.2945 C.2       1 <0>         0.0000
      2 C2          7.3133   -1.3552    0.3934 C.2       1 <0>         0.0000
      3 C3         10.0222   -1.7189   -2.3303 C.2       1 <0>         0.0000
      4 C4          7.3687   -1.6279    8.1574 C.3       1 <0>         0.0000
      5 C5         11.1907    2.0574   -3.7912 C.3       1 <0>         0.0000
      6 C6         12.7486    0.4099   -2.6558 C.3       1 <0>         0.0000
      7 C7          6.6024   -1.0970    6.9411 C.3       1 <0>         0.0000
      8 C8          7.2300   -1.5265    5.6095 C.3       1 <0>         0.0000
      9 C9          6.4647   -0.9902    4.3919 C.3       1 <0>         0.0000
     10 C10        10.9497   -0.4355   -4.2406 C.3       1 <0>         0.0000
     11 C11         7.1143   -1.4273    3.0819 C.3       1 <0>         0.0000
     12 C12        11.9214    0.7129   -3.9118 C.3       1 <0>         0.0000
     13 N1          8.3188   -2.8338   -0.9236 N.2       1 <0>         0.0000
     14 N2          7.3773   -2.6064    0.0473 N.2       1 <0>         0.0000
     15 N3          9.9519   -0.6656   -3.1964 N.am      1 <0>         0.0000
     16 O1         10.8937   -2.5780   -2.3420 O.2       1 <0>         0.0000
     17 O2          6.4595    0.8022    1.6759 O.2       1 <0>         0.0000
     18 S1          8.3970   -0.2879   -0.4553 S.3       1 <0>         0.0000
     19 S2          6.1894   -0.6905    1.6590 S.o       1 <0>         0.0000
     20 H1          7.4000   -2.7235    8.1581 H         1 <0>         0.0000
     21 H2          8.4036   -1.2669    8.1611 H         1 <0>         0.0000
     22 H3          6.9004   -1.3070    9.0938 H         1 <0>         0.0000
     23 H4         10.5119    2.0635   -2.9297 H         1 <0>         0.0000
     24 H5         11.9019    2.8768   -3.6455 H         1 <0>         0.0000
     25 H6         10.6034    2.2813   -4.6896 H         1 <0>         0.0000
     26 H7         12.1073    0.3484   -1.7697 H         1 <0>         0.0000
     27 H8         13.4848    1.2006   -2.4775 H         1 <0>         0.0000
     28 H9         13.2796   -0.5424   -2.7457 H         1 <0>         0.0000
     29 H10         6.5594   -0.0011    6.9825 H         1 <0>         0.0000
     30 H11         5.5626   -1.4466    6.9805 H         1 <0>         0.0000
     31 H12         7.2735   -2.6229    5.5636 H         1 <0>         0.0000
     32 H13         8.2695   -1.1748    5.5681 H         1 <0>         0.0000
     33 H14         6.4327    0.1042    4.4290 H         1 <0>         0.0000
     34 H15         5.4264   -1.3438    4.4260 H         1 <0>         0.0000
     35 H16        10.4215   -0.2254   -5.1773 H         1 <0>         0.0000
     36 H17        11.4965   -1.3723   -4.3641 H         1 <0>         0.0000
     37 H18         7.0883   -2.5116    2.9346 H         1 <0>         0.0000
     38 H19         8.1453   -1.0701    2.9979 H         1 <0>         0.0000
     39 H20        12.6054    0.7726   -4.7694 H         1 <0>         0.0000
     40 H21         9.1364   -0.0681   -3.1675 H         1 <0>         0.0000
@<TRIPOS>BOND
     1    1    3 1
     2    1   13 2
     3    1   18 1
     4    2   14 2
     5    2   18 1
     6    2   19 1
     7    3   15 am
     8    3   16 2
     9    4    7 1
    10    4   20 1
    11    4   21 1
    12    4   22 1
    13    5   12 1
    14    5   23 1
    15    5   24 1
    16    5   25 1
    17    6   12 1
    18    6   26 1
    19    6   27 1
    20    6   28 1
    21    7    8 1
    22    7   29 1
    23    7   30 1
    24    8    9 1
    25    8   31 1
    26    8   32 1
    27    9   11 1
    28    9   33 1
    29    9   34 1
    30   10   12 1
    31   10   15 1
    32   10   35 1
    33   10   36 1
    34   11   19 1
    35   11   37 1
    36   11   38 1
    37   12   39 1
    38   13   14 1
    39   15   40 1
    40   17   19 2
