@<TRIPOS>MOLECULE
*****
   35    36     0     0     0
SMALL
NO_CHARGES

@<TRIPOS>ATOM
      1 C1          2.8238   -2.5944   -6.2534 C.ar      1 <0>         0.0000
      2 C2          1.6854   -2.5841   -7.0589 C.ar      1 <0>         0.0000
      3 C3          2.6795   -2.5345   -4.8639 C.ar      1 <0>         0.0000
      4 C4          0.4098   -2.5206   -6.4864 C.ar      1 <0>         0.0000
      5 C5          0.8206   -1.9676   -0.7742 C.2       1 <0>         0.0000
      6 C6          0.5482   -1.6124   -2.0739 C.2       1 <0>         0.0000
      7 C7          1.9747   -3.3058   -1.9936 C.2       1 <0>         0.0000
      8 C8          1.4139   -2.4857   -4.2772 C.ar      1 <0>         0.0000
      9 C9          0.2604   -2.4763   -5.0944 C.ar      1 <0>         0.0000
     10 C10        -5.7811   -2.6952   -3.8475 C.3       1 <0>         0.0000
     11 C11        -4.9966   -1.5538   -5.9593 C.3       1 <0>         0.0000
     12 C12        -3.3095   -2.4361   -4.2520 C.3       1 <0>         0.0000
     13 C13        -2.1414   -2.4760   -5.2268 C.3       1 <0>         0.0000
     14 C14        -4.6817   -2.6392   -4.9178 C.3       1 <0>         0.0000
     15 N1          1.7075   -3.0286   -0.7351 N.2       1 <0>         0.0000
     16 N2          1.2966   -2.4760   -2.8620 N.pl3     1 <0>         0.0000
     17 O1         -0.9377   -2.4294   -4.4484 O.3       1 <0>         0.0000
     18 H1          3.8148   -2.6341   -6.6954 H         1 <0>         0.0000
     19 H2          1.7801   -2.6213   -8.1407 H         1 <0>         0.0000
     20 H3          3.5529   -2.5130   -4.2185 H         1 <0>         0.0000
     21 H4         -0.4620   -2.5174   -7.1297 H         1 <0>         0.0000
     22 H5          0.4294   -1.5239    0.1324 H         1 <0>         0.0000
     23 H6         -0.0893   -0.8589   -2.5094 H         1 <0>         0.0000
     24 H7          2.6206   -4.0968   -2.3525 H         1 <0>         0.0000
     25 H8         -5.8471   -1.7434   -3.3064 H         1 <0>         0.0000
     26 H9         -5.5840   -3.4836   -3.1131 H         1 <0>         0.0000
     27 H10        -6.7603   -2.8907   -4.2978 H         1 <0>         0.0000
     28 H11        -4.9594   -0.5561   -5.5044 H         1 <0>         0.0000
     29 H12        -6.0010   -1.6923   -6.3737 H         1 <0>         0.0000
     30 H13        -4.2934   -1.5651   -6.7984 H         1 <0>         0.0000
     31 H14        -3.1472   -3.2172   -3.5009 H         1 <0>         0.0000
     32 H15        -3.2947   -1.4777   -3.7178 H         1 <0>         0.0000
     33 H16        -2.1599   -3.4010   -5.8194 H         1 <0>         0.0000
     34 H17        -2.1617   -1.6235   -5.9158 H         1 <0>         0.0000
     35 H18        -4.6655   -3.6102   -5.4334 H         1 <0>         0.0000
@<TRIPOS>BOND
     1    1    2 ar
     2    1    3 ar
     3    1   18 1
     4    2    4 ar
     5    2   19 1
     6    3    8 ar
     7    3   20 1
     8    4    9 ar
     9    4   21 1
    10    5    6 2
    11    5   15 1
    12    5   22 1
    13    6   16 1
    14    6   23 1
    15    7   15 2
    16    7   16 1
    17    7   24 1
    18    8    9 ar
    19    8   16 1
    20    9   17 1
    21   10   14 1
    22   10   25 1
    23   10   26 1
    24   10   27 1
    25   11   14 1
    26   11   28 1
    27   11   29 1
    28   11   30 1
    29   12   13 1
    30   12   14 1
    31   12   31 1
    32   12   32 1
    33   13   17 1
    34   13   33 1
    35   13   34 1
    36   14   35 1
