@<TRIPOS>MOLECULE
*****
   49    49     0     0     0
SMALL
NO_CHARGES

@<TRIPOS>ATOM
      1 C1         -1.6381   -2.1351   -2.7437 C.2       1 <0>         0.0000
      2 C2         -4.3293   -3.5534   -1.1667 C.2       1 <0>         0.0000
      3 C3         -0.1700   -2.2372   -2.3524 C.3       1 <0>         0.0000
      4 C4         -0.2023   -2.6841   -0.8834 C.3       1 <0>         0.0000
      5 C5         -1.5897   -2.2289   -0.3705 C.3       1 <0>         0.0000
      6 C6         -8.8420   -7.4934    2.4171 C.3       1 <0>         0.0000
      7 C7         -9.2939   -5.5154    0.9681 C.3       1 <0>         0.0000
      8 C8         -5.4557   -6.7844    3.1931 C.3       1 <0>         0.0000
      9 C9         -4.8791   -7.6136    0.8604 C.3       1 <0>         0.0000
     10 C10        -3.8210   -2.1715   -1.6114 C.3       1 <0>         0.0000
     11 C11        -6.3445   -4.9114   -0.7268 C.3       1 <0>         0.0000
     12 C12        -6.3777   -5.0594    0.8026 C.3       1 <0>         0.0000
     13 C13        -8.2669   -6.1648    1.9096 C.3       1 <0>         0.0000
     14 C14        -6.0101   -7.2626    1.8366 C.3       1 <0>         0.0000
     15 C15        -1.5181   -0.9103    0.3996 C.3       1 <0>         0.0000
     16 N1         -2.3820   -2.0888   -1.5795 N.am      1 <0>         0.0000
     17 N2         -5.6829   -3.6745   -1.1461 N.am      1 <0>         0.0000
     18 N3         -6.9768   -6.3348    1.2095 N.3       1 <0>         0.0000
     19 O1         -2.1070   -2.0894   -3.8723 O.2       1 <0>         0.0000
     20 O2         -3.5652   -4.4684   -0.8553 O.2       1 <0>         0.0000
     21 F1         -0.7999   -1.0583    1.5396 F         1 <0>         0.0000
     22 F2         -0.9417    0.0837   -0.3176 F         1 <0>         0.0000
     23 F3         -2.7547   -0.4740    0.7614 F         1 <0>         0.0000
     24 H1          0.3387   -2.9376   -3.0163 H         1 <0>         0.0000
     25 H2          0.2913   -1.2533   -2.4822 H         1 <0>         0.0000
     26 H3         -0.1643   -3.7734   -0.8181 H         1 <0>         0.0000
     27 H4          0.6132   -2.2786   -0.2825 H         1 <0>         0.0000
     28 H5         -2.0338   -2.9651    0.3030 H         1 <0>         0.0000
     29 H6         -8.8970   -8.2265    1.6047 H         1 <0>         0.0000
     30 H7         -8.2606   -7.9248    3.2358 H         1 <0>         0.0000
     31 H8         -9.8565   -7.3278    2.7928 H         1 <0>         0.0000
     32 H9         -9.4662   -6.1592    0.0988 H         1 <0>         0.0000
     33 H10        -8.9719   -4.5346    0.6076 H         1 <0>         0.0000
     34 H11       -10.2460   -5.3715    1.4895 H         1 <0>         0.0000
     35 H12        -4.8383   -5.8860    3.0865 H         1 <0>         0.0000
     36 H13        -6.2620   -6.5558    3.8979 H         1 <0>         0.0000
     37 H14        -4.8285   -7.5611    3.6441 H         1 <0>         0.0000
     38 H15        -4.2512   -6.7536    0.6088 H         1 <0>         0.0000
     39 H16        -5.2932   -8.0153   -0.0696 H         1 <0>         0.0000
     40 H17        -4.2314   -8.3772    1.3045 H         1 <0>         0.0000
     41 H18        -4.1186   -1.9916   -2.6489 H         1 <0>         0.0000
     42 H19        -4.2717   -1.3917   -0.9888 H         1 <0>         0.0000
     43 H20        -7.3563   -4.9186   -1.1380 H         1 <0>         0.0000
     44 H21        -5.8022   -5.7541   -1.1581 H         1 <0>         0.0000
     45 H22        -5.3497   -4.9720    1.1625 H         1 <0>         0.0000
     46 H23        -6.9174   -4.2103    1.2408 H         1 <0>         0.0000
     47 H24        -8.1473   -5.4970    2.7845 H         1 <0>         0.0000
     48 H25        -6.5539   -8.1927    2.0127 H         1 <0>         0.0000
     49 H26        -6.2472   -2.8717   -1.3916 H         1 <0>         0.0000
@<TRIPOS>BOND
     1    1    3 1
     2    1   16 am
     3    1   19 2
     4    2   10 1
     5    2   17 am
     6    2   20 2
     7    3    4 1
     8    3   24 1
     9    3   25 1
    10    4    5 1
    11    4   26 1
    12    4   27 1
    13    5   15 1
    14    5   16 1
    15    5   28 1
    16    6   13 1
    17    6   29 1
    18    6   30 1
    19    6   31 1
    20    7   13 1
    21    7   32 1
    22    7   33 1
    23    7   34 1
    24    8   14 1
    25    8   35 1
    26    8   36 1
    27    8   37 1
    28    9   14 1
    29    9   38 1
    30    9   39 1
    31    9   40 1
    32   10   16 1
    33   10   41 1
    34   10   42 1
    35   11   12 1
    36   11   17 1
    37   11   43 1
    38   11   44 1
    39   12   18 1
    40   12   45 1
    41   12   46 1
    42   13   18 1
    43   13   47 1
    44   14   18 1
    45   14   48 1
    46   15   21 1
    47   15   22 1
    48   15   23 1
    49   17   49 1
