@<TRIPOS>MOLECULE
*****
   52    55     0     0     0
SMALL
NO_CHARGES

@<TRIPOS>ATOM
      1 C1          3.6394   -1.3286   -7.2871 C.ar      1 <0>         0.0000
      2 C2          4.1698   -1.8190   -6.0889 C.ar      1 <0>         0.0000
      3 C3          2.2620   -1.1162   -7.4112 C.ar      1 <0>         0.0000
      4 C4          3.3240   -2.0908   -5.0110 C.ar      1 <0>         0.0000
      5 C5          1.4148   -1.3876   -6.3344 C.ar      1 <0>         0.0000
      6 C6         -0.5370    1.6296   -2.2817 C.ar      1 <0>         0.0000
      7 C7         -0.2310    3.2185   -0.4814 C.ar      1 <0>         0.0000
      8 C8         -0.1356    0.5904   -1.4240 C.ar      1 <0>         0.0000
      9 C9          1.9427   -1.8737   -5.1284 C.ar      1 <0>         0.0000
     10 C10         0.1275    2.1997    0.3994 C.ar      1 <0>         0.0000
     11 C11         0.1617    0.8740   -0.0846 C.ar      1 <0>         0.0000
     12 C12        -0.5757    2.9349   -1.8101 C.ar      1 <0>         0.0000
     13 C13        -1.2616   -2.1324    3.1097 C.3       1 <0>         0.0000
     14 C14         0.2641   -2.0326    2.9881 C.3       1 <0>         0.0000
     15 C15        -1.9584   -1.2311    2.0831 C.3       1 <0>         0.0000
     16 C16         0.7333   -2.3375    1.5588 C.3       1 <0>         0.0000
     17 C17        -1.4878   -1.5376    0.6548 C.3       1 <0>         0.0000
     18 C18         0.5303   -1.7998   -0.8943 C.3       1 <0>         0.0000
     19 C19        -0.0222   -0.8233   -1.9391 C.3       1 <0>         0.0000
     20 C20         0.0434   -1.4508    0.5169 C.3       1 <0>         0.0000
     21 C21         0.4623    2.4751    1.8420 C.3       1 <0>         0.0000
     22 C22         1.0411   -2.1019   -3.9491 C.3       1 <0>         0.0000
     23 N1          0.9228   -0.8109   -3.1457 N.4       1 <0>         0.0000
     24 O1          0.4932   -0.0963    0.8129 O.3       1 <0>         0.0000
     25 Cl1        -1.0743    4.2284   -2.8743 Cl        1 <0>         0.0000
     26 H1          4.2970   -1.1227   -8.1267 H         1 <0>         0.0000
     27 H2          5.2372   -1.9971   -5.9979 H         1 <0>         0.0000
     28 H3          1.8488   -0.7497   -8.3462 H         1 <0>         0.0000
     29 H4          3.7387   -2.4903   -4.0871 H         1 <0>         0.0000
     30 H5          0.3413   -1.2415   -6.4433 H         1 <0>         0.0000
     31 H6         -0.8528    1.4294   -3.3045 H         1 <0>         0.0000
     32 H7         -0.2679    4.2451   -0.1297 H         1 <0>         0.0000
     33 H8         -1.5769   -1.8616    4.1224 H         1 <0>         0.0000
     34 H9         -1.5747   -3.1733    2.9515 H         1 <0>         0.0000
     35 H10         0.5925   -1.0255    3.2665 H         1 <0>         0.0000
     36 H11         0.7503   -2.7275    3.6802 H         1 <0>         0.0000
     37 H12        -3.0447   -1.3550    2.1367 H         1 <0>         0.0000
     38 H13        -1.7499   -0.1797    2.3123 H         1 <0>         0.0000
     39 H14         1.8179   -2.2073    1.4740 H         1 <0>         0.0000
     40 H15         0.5100   -3.3830    1.3121 H         1 <0>         0.0000
     41 H16        -1.7866   -2.5571    0.3785 H         1 <0>         0.0000
     42 H17        -1.9790   -0.8607   -0.0526 H         1 <0>         0.0000
     43 H18         0.2524   -2.8282   -1.1373 H         1 <0>         0.0000
     44 H19         1.6267   -1.7445   -0.8826 H         1 <0>         0.0000
     45 H20        -0.9766   -1.1729   -2.3452 H         1 <0>         0.0000
     46 H21        -0.2113    1.9260    2.5074 H         1 <0>         0.0000
     47 H22         1.4784    2.1448    2.0795 H         1 <0>         0.0000
     48 H23         0.3814    3.5402    2.0667 H         1 <0>         0.0000
     49 H24         0.0230   -2.3689   -4.2398 H         1 <0>         0.0000
     50 H25         1.4267   -2.8599   -3.2676 H         1 <0>         0.0000
     51 H26         0.6385   -0.0622   -3.7881 H         1 <0>         0.0000
     52 H27         1.8578   -0.5317   -2.8223 H         1 <0>         0.0000
@<TRIPOS>BOND
     1    1    3 ar
     2    1    2 ar
     3    1   26 1
     4    2    4 ar
     5    2   27 1
     6    3    5 ar
     7    3   28 1
     8    4    9 ar
     9    4   29 1
    10    5    9 ar
    11    5   30 1
    12    6    8 ar
    13    6   12 ar
    14    6   31 1
    15    7   10 ar
    16    7   12 ar
    17    7   32 1
    18    8   11 ar
    19    8   19 1
    20    9   22 1
    21   10   11 ar
    22   10   21 1
    23   11   24 1
    24   12   25 1
    25   13   15 1
    26   13   14 1
    27   13   33 1
    28   13   34 1
    29   14   16 1
    30   14   35 1
    31   14   36 1
    32   15   17 1
    33   15   37 1
    34   15   38 1
    35   16   20 1
    36   16   39 1
    37   16   40 1
    38   17   20 1
    39   17   41 1
    40   17   42 1
    41   18   19 1
    42   18   20 1
    43   18   43 1
    44   18   44 1
    45   19   23 1
    46   19   45 1
    47   20   24 1
    48   21   46 1
    49   21   47 1
    50   21   48 1
    51   22   23 1
    52   22   49 1
    53   22   50 1
    54   23   51 1
    55   23   52 1
