@<TRIPOS>MOLECULE
*****
   20    20     0     0     0
SMALL
NO_CHARGES

@<TRIPOS>ATOM
      1 C1          1.8851   -1.0363   -0.1124 C.ar      1 <0>         0.0000
      2 C2          2.9210   -1.6309    0.6081 C.ar      1 <0>         0.0000
      3 C3          0.8066   -0.4630    0.5610 C.ar      1 <0>         0.0000
      4 C4          2.8783   -1.6520    2.0022 C.ar      1 <0>         0.0000
      5 C5          0.7638   -0.4841    1.9551 C.ar      1 <0>         0.0000
      6 C6          1.7997   -1.0786    2.6757 C.ar      1 <0>         0.0000
      7 C7          1.4959   -3.8408    4.2804 C.3       1 <0>         0.0000
      8 N1          0.9289   -2.5668    4.7452 N.pl3     1 <0>         0.0000
      9 O1          3.1090   -1.2068    4.9294 O.2       1 <0>         0.0000
     10 O2          0.9073    0.0062    4.8551 O.2       1 <0>         0.0000
     11 S1          1.7474   -1.1019    4.4208 S.o2      1 <0>         0.0000
     12 H1          1.9194   -1.0196   -1.1979 H         1 <0>         0.0000
     13 H2          3.7609   -2.0765    0.0835 H         1 <0>         0.0000
     14 H3          0.0004    0.0009    0.0004 H         1 <0>         0.0000
     15 H4          3.6912   -2.1166    2.5535 H         1 <0>         0.0000
     16 H5         -0.0807   -0.0338    2.4698 H         1 <0>         0.0000
     17 H6          2.5873   -3.7435    4.1839 H         1 <0>         0.0000
     18 H7          1.2613   -4.6330    5.0066 H         1 <0>         0.0000
     19 H8          1.0631   -4.0997    3.3028 H         1 <0>         0.0000
     20 H9         -0.0906   -2.5462    4.8703 H         1 <0>         0.0000
@<TRIPOS>BOND
     1    1    3 ar
     2    1    2 ar
     3    1   12 1
     4    2    4 ar
     5    2   13 1
     6    3    5 ar
     7    3   14 1
     8    4    6 ar
     9    4   15 1
    10    5    6 ar
    11    5   16 1
    12    6   11 1
    13    7    8 1
    14    7   17 1
    15    7   18 1
    16    7   19 1
    17    8   11 1
    18    8   20 1
    19    9   11 2
    20   10   11 2
