@<TRIPOS>MOLECULE
*****
   46    48     0     0     0
SMALL
NO_CHARGES

@<TRIPOS>ATOM
      1 C1         -2.9957    1.6463   -2.3661 C.ar      1 <0>         0.0000
      2 C2         -4.2367    2.2659   -2.2923 C.ar      1 <0>         0.0000
      3 C3         -3.4728    3.0628    4.1858 C.2       1 <0>         0.0000
      4 C4         -2.3146    1.2652   -1.2005 C.ar      1 <0>         0.0000
      5 C5         -4.1690    2.1356    0.1394 C.ar      1 <0>         0.0000
      6 C6         -4.8316    2.4908   -1.0455 C.ar      1 <0>         0.0000
      7 C7         -2.9062    1.5146    0.0433 C.ar      1 <0>         0.0000
      8 C8          1.0410    0.0879    0.0951 C.2       1 <0>         0.0000
      9 C9          1.0915    2.0239   -1.6244 C.2       1 <0>         0.0000
     10 C10        -0.9670    0.6187   -1.3961 C.2       1 <0>         0.0000
     11 C11         2.4154    0.5130    0.5748 C.3       1 <0>         0.0000
     12 C12         2.4692    2.4050   -1.1212 C.3       1 <0>         0.0000
     13 C13         3.2186    1.1935   -0.5442 C.3       1 <0>         0.0000
     14 C14         0.2420    1.1776   -0.6519 C.3       1 <0>         0.0000
     15 C15        -7.5077    1.7890   -1.5406 C.3       1 <0>         0.0000
     16 C16        -5.6635    1.9955    3.4563 C.3       1 <0>         0.0000
     17 C17        -5.4920    1.4950    2.0308 C.3       1 <0>         0.0000
     18 N1         -2.3880    2.6254    4.7980 N.2       1 <0>         0.0000
     19 N2         -2.6472    1.3242    5.1205 N.2       1 <0>         0.0000
     20 N3         -3.8343    0.9756    4.7295 N.2       1 <0>         0.0000
     21 N4         -4.3833    2.0692    4.1445 N.pl3     1 <0>         0.0000
     22 O1          0.5714   -1.0106    0.3046 O.2       1 <0>         0.0000
     23 O2          0.6506    2.3803   -2.7005 O.2       1 <0>         0.0000
     24 O3         -0.8294   -0.2529   -2.2305 O.2       1 <0>         0.0000
     25 O4         -6.9129    3.6366    0.2654 O.2       1 <0>         0.0000
     26 O5         -6.5283    4.1619   -2.2050 O.2       1 <0>         0.0000
     27 O6         -4.6560    2.4582    1.3715 O.3       1 <0>         0.0000
     28 S1         -6.4976    3.2193   -1.0794 S.o2      1 <0>         0.0000
     29 Cl1        -2.1340    1.0242    1.5341 Cl        1 <0>         0.0000
     30 H1         -2.5207    1.4624   -3.3239 H         1 <0>         0.0000
     31 H2         -4.7426    2.5973   -3.1939 H         1 <0>         0.0000
     32 H3         -3.6283    4.0471    3.7687 H         1 <0>         0.0000
     33 H4          2.2774    1.2171    1.4076 H         1 <0>         0.0000
     34 H5          2.9237   -0.3705    0.9667 H         1 <0>         0.0000
     35 H6          3.0121    2.8724   -1.9455 H         1 <0>         0.0000
     36 H7          2.3391    3.1608   -0.3336 H         1 <0>         0.0000
     37 H8          3.4201    0.4713   -1.3437 H         1 <0>         0.0000
     38 H9          4.1887    1.5163   -0.1557 H         1 <0>         0.0000
     39 H10        -0.0600    1.8872    0.1301 H         1 <0>         0.0000
     40 H11        -8.5364    2.1532   -1.5868 H         1 <0>         0.0000
     41 H12        -7.1859    1.4223   -2.5157 H         1 <0>         0.0000
     42 H13        -7.4077    1.0161   -0.7773 H         1 <0>         0.0000
     43 H14        -6.3118    1.3203    4.0176 H         1 <0>         0.0000
     44 H15        -6.1088    2.9923    3.4440 H         1 <0>         0.0000
     45 H16        -5.0184    0.5079    2.0184 H         1 <0>         0.0000
     46 H17        -6.4717    1.4539    1.5438 H         1 <0>         0.0000
@<TRIPOS>BOND
     1    1    2 ar
     2    1    4 ar
     3    1   30 1
     4    2    6 ar
     5    2   31 1
     6    3   18 2
     7    3   21 1
     8    3   32 1
     9    4    7 ar
    10    4   10 1
    11    5    6 ar
    12    5    7 ar
    13    5   27 1
    14    6   28 1
    15    7   29 1
    16    8   11 1
    17    8   14 1
    18    8   22 2
    19    9   12 1
    20    9   14 1
    21    9   23 2
    22   10   14 1
    23   10   24 2
    24   11   13 1
    25   11   33 1
    26   11   34 1
    27   12   13 1
    28   12   35 1
    29   12   36 1
    30   13   37 1
    31   13   38 1
    32   14   39 1
    33   15   28 1
    34   15   40 1
    35   15   41 1
    36   15   42 1
    37   16   17 1
    38   16   21 1
    39   16   43 1
    40   16   44 1
    41   17   27 1
    42   17   45 1
    43   17   46 1
    44   18   19 1
    45   19   20 2
    46   20   21 1
    47   25   28 2
    48   26   28 2
