@<TRIPOS>MOLECULE
*****
   28    29     0     0     0
SMALL
NO_CHARGES

@<TRIPOS>ATOM
      1 C1          5.8181    4.9368   -2.1994 C.ar      1 <0>         0.0000
      2 C2          6.3229    4.0269   -3.1216 C.ar      1 <0>         0.0000
      3 C3          4.8265    4.5389   -1.3097 C.ar      1 <0>         0.0000
      4 C4          5.8067    2.7411   -3.1133 C.ar      1 <0>         0.0000
      5 C5          4.3770    3.2302   -1.3826 C.ar      1 <0>         0.0000
      6 C6          0.8595   -0.5761   -0.3646 C.3       1 <0>         0.0000
      7 C7          1.2772   -0.0492   -1.7356 C.3       1 <0>         0.0000
      8 C8          1.9981   -0.4824    0.6484 C.3       1 <0>         0.0000
      9 C9          1.8340    1.3679   -1.6464 C.3       1 <0>         0.0000
     10 C10         2.5549    0.9347    0.7374 C.3       1 <0>         0.0000
     11 C11         2.9750    1.4610   -0.6344 C.3       1 <0>         0.0000
     12 N1          4.8433    2.3178   -2.2646 N.ar      1 <0>         0.0000
     13 O1          3.4005    2.8144   -0.5171 O.3       1 <0>         0.0000
     14 H1          6.1975    5.9541   -2.1743 H         1 <0>         0.0000
     15 H2          7.0960    4.3146   -3.8247 H         1 <0>         0.0000
     16 H3          4.4226    5.2365   -0.5842 H         1 <0>         0.0000
     17 H4          6.1682    1.9944   -3.8125 H         1 <0>         0.0000
     18 H5          0.5301   -1.6173   -0.4541 H         1 <0>         0.0000
     19 H6          0.0000   -0.0000    0.0001 H         1 <0>         0.0000
     20 H7          2.0377   -0.7130   -2.1648 H         1 <0>         0.0000
     21 H8          0.4174   -0.0658   -2.4146 H         1 <0>         0.0000
     22 H9          1.6426   -0.8026    1.6343 H         1 <0>         0.0000
     23 H10         2.8009   -1.1715    0.3584 H         1 <0>         0.0000
     24 H11         2.1833    1.6969   -2.6326 H         1 <0>         0.0000
     25 H12         1.0345    2.0666   -1.3668 H         1 <0>         0.0000
     26 H13         1.8026    1.6035    1.1761 H         1 <0>         0.0000
     27 H14         3.4104    0.9619    1.4230 H         1 <0>         0.0000
     28 H15         3.8350    0.8745   -0.9984 H         1 <0>         0.0000
@<TRIPOS>BOND
     1    1    2 ar
     2    1    3 ar
     3    1   14 1
     4    2    4 ar
     5    2   15 1
     6    3    5 ar
     7    3   16 1
     8    4   12 ar
     9    4   17 1
    10    5   12 ar
    11    5   13 1
    12    6    8 1
    13    6    7 1
    14    6   18 1
    15    6   19 1
    16    7    9 1
    17    7   20 1
    18    7   21 1
    19    8   10 1
    20    8   22 1
    21    8   23 1
    22    9   11 1
    23    9   24 1
    24    9   25 1
    25   10   11 1
    26   10   26 1
    27   10   27 1
    28   11   13 1
    29   11   28 1
