@<TRIPOS>MOLECULE
*****
   49    50     0     0     0
SMALL
NO_CHARGES

@<TRIPOS>ATOM
      1 C1         -2.9747   -0.9563   -1.2663 C.2       1 <0>         0.0000
      2 C2         -1.9552    0.0143   -1.0325 C.2       1 <0>         0.0000
      3 C3         -0.9006   -0.5079   -0.3150 C.2       1 <0>         0.0000
      4 C4         -4.2205   -0.7876   -1.9742 C.2       1 <0>         0.0000
      5 C5         -2.6523   -2.1699   -0.7178 C.2       1 <0>         0.0000
      6 C6         -4.6781   -3.2366   -1.4491 C.2       1 <0>         0.0000
      7 C7         -2.0047    1.4235   -1.4976 C.3       1 <0>         0.0000
      8 C8         -6.0596   -1.8164   -4.2122 C.3       1 <0>         0.0000
      9 C9         -3.0103   -5.7950    3.8384 C.3       1 <0>         0.0000
     10 C10         0.3438    0.1580    0.1309 C.3       1 <0>         0.0000
     11 C11        -6.2706   -1.8476   -2.7366 C.3       1 <0>         0.0000
     12 C12        -2.9944   -4.5651   -0.1463 C.3       1 <0>         0.0000
     13 C13         3.4976    1.2502   -1.5965 C.3       1 <0>         0.0000
     14 C14         2.5015    1.0186   -0.4728 C.3       1 <0>         0.0000
     15 C15        -3.1926   -4.5545    1.3573 C.3       1 <0>         0.0000
     16 N1         -5.0011   -1.9672   -2.0254 N.am      1 <0>         0.0000
     17 N2         -3.4360   -3.3180   -0.7700 N.am      1 <0>         0.0000
     18 N3          4.6999    1.8892   -1.1329 N.3       1 <0>         0.0000
     19 N4          1.2906    0.3510   -0.9438 N.3       1 <0>         0.0000
     20 O1         -4.5488    0.2861   -2.4728 O.2       1 <0>         0.0000
     21 O2         -5.4396   -4.2070   -1.5375 O.2       1 <0>         0.0000
     22 O3         -3.6166   -7.1154    1.6655 O.2       1 <0>         0.0000
     23 O4         -1.2694   -6.2272    1.9371 O.2       1 <0>         0.0000
     24 S1         -1.1477   -2.1575    0.0701 S.3       1 <0>         0.0000
     25 S2         -2.7041   -6.0755    2.1094 S.o2      1 <0>         0.0000
     26 H1         -2.4791    2.0656   -0.7420 H         1 <0>         0.0000
     27 H2         -0.9982    1.8189   -1.7000 H         1 <0>         0.0000
     28 H3         -2.5725    1.5208   -2.4351 H         1 <0>         0.0000
     29 H4         -5.5601   -2.7430   -4.5313 H         1 <0>         0.0000
     30 H5         -7.0318   -1.7306   -4.7197 H         1 <0>         0.0000
     31 H6         -5.4315   -0.9523   -4.4744 H         1 <0>         0.0000
     32 H7         -2.7329   -6.6960    4.3879 H         1 <0>         0.0000
     33 H8         -2.4041   -4.9477    4.1624 H         1 <0>         0.0000
     34 H9         -4.0715   -5.5786    3.9695 H         1 <0>         0.0000
     35 H10         0.1412    1.1524    0.5634 H         1 <0>         0.0000
     36 H11         0.8639   -0.4180    0.9146 H         1 <0>         0.0000
     37 H12        -6.7702   -0.9183   -2.4256 H         1 <0>         0.0000
     38 H13        -6.9067   -2.7085   -2.4830 H         1 <0>         0.0000
     39 H14        -1.9430   -4.7130   -0.4120 H         1 <0>         0.0000
     40 H15        -3.5809   -5.3712   -0.5975 H         1 <0>         0.0000
     41 H16         3.0731    1.8830   -2.3824 H         1 <0>         0.0000
     42 H17         3.7926    0.2943   -2.0403 H         1 <0>         0.0000
     43 H18         2.9420    0.3788    0.2981 H         1 <0>         0.0000
     44 H19         2.1975    1.9623   -0.0085 H         1 <0>         0.0000
     45 H20        -4.2505   -4.4188    1.6010 H         1 <0>         0.0000
     46 H21        -2.6147   -3.7594    1.8379 H         1 <0>         0.0000
     47 H22         5.3419    1.9820   -1.8935 H         1 <0>         0.0000
     48 H23         4.4769    2.7942   -0.7716 H         1 <0>         0.0000
     49 H24         1.5502   -0.5544   -1.3442 H         1 <0>         0.0000
@<TRIPOS>BOND
     1    1    2 1
     2    1    5 2
     3    1    4 1
     4    2    3 2
     5    2    7 1
     6    3   10 1
     7    3   24 1
     8    4   16 am
     9    4   20 2
    10    5   17 1
    11    5   24 1
    12    6   17 am
    13    6   16 am
    14    6   21 2
    15    7   26 1
    16    7   27 1
    17    7   28 1
    18    8   11 1
    19    8   29 1
    20    8   30 1
    21    8   31 1
    22    9   25 1
    23    9   32 1
    24    9   33 1
    25    9   34 1
    26   10   19 1
    27   10   35 1
    28   10   36 1
    29   11   16 1
    30   11   37 1
    31   11   38 1
    32   12   15 1
    33   12   17 1
    34   12   39 1
    35   12   40 1
    36   13   14 1
    37   13   18 1
    38   13   41 1
    39   13   42 1
    40   14   19 1
    41   14   43 1
    42   14   44 1
    43   15   25 1
    44   15   45 1
    45   15   46 1
    46   18   47 1
    47   18   48 1
    48   19   49 1
    49   22   25 2
    50   23   25 2
