@<TRIPOS>MOLECULE
*****
   29    30     0     0     0
SMALL
NO_CHARGES

@<TRIPOS>ATOM
      1 C1          5.4759    2.7016   -0.1161 C.ar      1 <0>         0.0000
      2 C2          5.4148    4.7886    0.8079 C.ar      1 <0>         0.0000
      3 C3          4.1524    2.4849    0.2768 C.ar      1 <0>         0.0000
      4 C4          4.0840    4.5573    1.1972 C.ar      1 <0>         0.0000
      5 C5          3.4713    1.1750   -0.0396 C.2       1 <0>         0.0000
      6 C6          0.6004   -0.6371    1.4332 C.3       1 <0>         0.0000
      7 C7         -0.0557    0.1495   -0.4135 C.3       1 <0>         0.0000
      8 C8          1.3490   -0.0529    0.2082 C.3       1 <0>         0.0000
      9 C9         -1.8906   -0.5827    1.1500 C.3       1 <0>         0.0000
     10 C10        -2.9824   -0.9104    0.1414 C.3       1 <0>         0.0000
     11 N1          6.1046    3.8559    0.1514 N.ar      1 <0>         0.0000
     12 N2          3.4569    3.4259    0.9392 N.ar      1 <0>         0.0000
     13 N3         -0.5842   -0.8321    0.5658 N.3       1 <0>         0.0000
     14 N4          2.1872    1.1002    0.4021 N.am      1 <0>         0.0000
     15 O1          4.0672    0.2846   -0.6459 O.2       1 <0>         0.0000
     16 F1         -4.2373   -0.6319    0.7063 F         1 <0>         0.0000
     17 Cl1         3.2082    5.8046    2.0575 Cl        1 <0>         0.0000
     18 H1          6.0209    1.9299   -0.6501 H         1 <0>         0.0000
     19 H2          5.9093    5.7301    1.0328 H         1 <0>         0.0000
     20 H3          0.9956   -1.5468    1.8959 H         1 <0>         0.0000
     21 H4          0.4442    0.1317    2.2091 H         1 <0>         0.0000
     22 H5         -0.4302    1.1732   -0.2385 H         1 <0>         0.0000
     23 H6         -0.1921   -0.1124   -1.4673 H         1 <0>         0.0000
     24 H7          1.9329   -0.8044   -0.3202 H         1 <0>         0.0000
     25 H8         -2.0112   -1.2276    2.0273 H         1 <0>         0.0000
     26 H9         -2.0089    0.4644    1.4869 H         1 <0>         0.0000
     27 H10        -2.9602   -1.9692   -0.1306 H         1 <0>         0.0000
     28 H11        -2.8905   -0.3012   -0.7642 H         1 <0>         0.0000
     29 H12         1.8261    1.9156    0.8868 H         1 <0>         0.0000
@<TRIPOS>BOND
     1    1    3 ar
     2    1   11 ar
     3    1   18 1
     4    2    4 ar
     5    2   11 ar
     6    2   19 1
     7    3    5 1
     8    3   12 ar
     9    4   12 ar
    10    4   17 1
    11    5   14 am
    12    5   15 2
    13    6    8 1
    14    6   13 1
    15    6   20 1
    16    6   21 1
    17    7    8 1
    18    7   13 1
    19    7   22 1
    20    7   23 1
    21    8   14 1
    22    8   24 1
    23    9   10 1
    24    9   13 1
    25    9   25 1
    26    9   26 1
    27   10   16 1
    28   10   27 1
    29   10   28 1
    30   14   29 1
