@<TRIPOS>MOLECULE
*****
   27    29     0     0     0
SMALL
NO_CHARGES

@<TRIPOS>ATOM
      1 C1         -1.4769    0.8659   -1.5703 C.ar      1 <0>         0.0000
      2 C2         -0.9611   -0.0937   -0.6868 C.ar      1 <0>         0.0000
      3 C3         -2.5343    0.5415   -2.4329 C.ar      1 <0>         0.0000
      4 C4         -1.4748   -1.3976   -0.6421 C.ar      1 <0>         0.0000
      5 C5         -3.0487   -0.7524   -2.3962 C.ar      1 <0>         0.0000
      6 C6         -2.5180   -1.6981   -1.5140 C.ar      1 <0>         0.0000
      7 C7         -6.0284    0.2690   -3.0372 C.2       1 <0>         0.0000
      8 C8         -6.4282    2.0702   -4.3559 C.3       1 <0>         0.0000
      9 C9         -3.9872   -2.8766   -2.7772 C.3       1 <0>         0.0000
     10 C10        -7.2943    2.4509   -3.1335 C.3       1 <0>         0.0000
     11 C11        -4.2267   -1.3884   -3.1070 C.3       1 <0>         0.0000
     12 N1         -5.5505    0.9573   -4.0063 N.2       1 <0>         0.0000
     13 N2         -5.5283   -0.9319   -2.5906 N.pl3     1 <0>         0.0000
     14 O1         -3.1430   -2.9203   -1.5939 O.3       1 <0>         0.0000
     15 S1         -7.5371    0.8655   -2.2420 S.3       1 <0>         0.0000
     16 H1         -1.0525    1.8660   -1.5858 H         1 <0>         0.0000
     17 H2         -0.1415    0.1737   -0.0246 H         1 <0>         0.0000
     18 H3         -2.9558    1.2739   -3.1144 H         1 <0>         0.0000
     19 H4         -1.0771   -2.1469    0.0356 H         1 <0>         0.0000
     20 H5         -7.0706    1.7723   -5.1963 H         1 <0>         0.0000
     21 H6         -5.8327    2.9279   -4.6847 H         1 <0>         0.0000
     22 H7         -4.9059   -3.4235   -2.5602 H         1 <0>         0.0000
     23 H8         -3.4470   -3.3695   -3.5923 H         1 <0>         0.0000
     24 H9         -6.7782    3.1532   -2.4736 H         1 <0>         0.0000
     25 H10        -8.2636    2.8652   -3.4168 H         1 <0>         0.0000
     26 H11        -4.2359   -1.2038   -4.1808 H         1 <0>         0.0000
     27 H12        -5.6607   -1.0925   -1.5967 H         1 <0>         0.0000
@<TRIPOS>BOND
     1    1    2 ar
     2    1    3 ar
     3    1   16 1
     4    2    4 ar
     5    2   17 1
     6    3    5 ar
     7    3   18 1
     8    4    6 ar
     9    4   19 1
    10    5    6 ar
    11    5   11 1
    12    6   14 1
    13    7   12 2
    14    7   13 1
    15    7   15 1
    16    8   10 1
    17    8   12 1
    18    8   20 1
    19    8   21 1
    20    9   11 1
    21    9   14 1
    22    9   22 1
    23    9   23 1
    24   10   15 1
    25   10   24 1
    26   10   25 1
    27   11   13 1
    28   11   26 1
    29   13   27 1
