@<TRIPOS>MOLECULE
*****
   28    30     0     0     0
SMALL
NO_CHARGES

@<TRIPOS>ATOM
      1 C1         -1.5050    1.2051   -1.8039 C.ar      1 <0>         0.0000
      2 C2         -0.9119    0.3578   -0.8536 C.ar      1 <0>         0.0000
      3 C3         -2.5386    0.7359   -2.6222 C.ar      1 <0>         0.0000
      4 C4         -1.3201   -0.9721   -0.6933 C.ar      1 <0>         0.0000
      5 C5         -2.9493   -0.5889   -2.4678 C.ar      1 <0>         0.0000
      6 C6         -2.3450   -1.4209   -1.5206 C.ar      1 <0>         0.0000
      7 C7         -6.5636   -1.2535   -3.0093 C.cat     1 <0>         0.0000
      8 C8         -8.1672   -2.4511   -4.3011 C.3       1 <0>         0.0000
      9 C9         -3.7007   -2.8112   -2.6734 C.3       1 <0>         0.0000
     10 C10        -9.0317   -1.3678   -3.6513 C.3       1 <0>         0.0000
     11 C11        -4.0635   -1.3693   -3.1139 C.3       1 <0>         0.0000
     12 N1         -6.7749   -2.0146   -4.0894 N.pl3     1 <0>         0.0000
     13 N2         -5.3689   -0.9045   -2.5616 N.pl3     1 <0>         0.0000
     14 O1         -2.8801   -2.6865   -1.4973 O.3       1 <0>         0.0000
     15 S1         -8.0408   -0.7539   -2.2174 S.3       1 <0>         0.0000
     16 H1         -1.1545    2.2271   -1.9073 H         1 <0>         0.0000
     17 H2         -0.1086    0.7395   -0.2300 H         1 <0>         0.0000
     18 H3         -2.9995    1.3870   -3.3609 H         1 <0>         0.0000
     19 H4         -0.8574   -1.6310    0.0342 H         1 <0>         0.0000
     20 H5         -8.3219   -3.4269   -3.8294 H         1 <0>         0.0000
     21 H6         -8.3690   -2.5311   -5.3708 H         1 <0>         0.0000
     22 H7         -4.5642   -3.4297   -2.4198 H         1 <0>         0.0000
     23 H8         -3.1133   -3.2965   -3.4610 H         1 <0>         0.0000
     24 H9         -9.2183   -0.5290   -4.3234 H         1 <0>         0.0000
     25 H10        -9.9761   -1.7629   -3.2782 H         1 <0>         0.0000
     26 H11        -4.1024   -1.2597   -4.2020 H         1 <0>         0.0000
     27 H12        -6.0103   -2.4550   -4.5890 H         1 <0>         0.0000
     28 H13        -5.3189   -0.2727   -1.7668 H         1 <0>         0.0000
@<TRIPOS>BOND
     1    1    2 ar
     2    1    3 ar
     3    1   16 1
     4    2    4 ar
     5    2   17 1
     6    3    5 ar
     7    3   18 1
     8    4    6 ar
     9    4   19 1
    10    5    6 ar
    11    5   11 1
    12    6   14 1
    13    7   12 2
    14    7   13 1
    15    7   15 1
    16    8   10 1
    17    8   12 1
    18    8   20 1
    19    8   21 1
    20    9   11 1
    21    9   14 1
    22    9   22 1
    23    9   23 1
    24   10   15 1
    25   10   24 1
    26   10   25 1
    27   11   13 1
    28   11   26 1
    29   12   27 1
    30   13   28 1
