@<TRIPOS>MOLECULE
*****
   31    33     0     0     0
SMALL
NO_CHARGES

@<TRIPOS>ATOM
      1 C1          1.2058    1.9637   -0.5724 C.ar      1 <0>         0.0000
      2 C2          0.5264    3.1638   -0.3657 C.ar      1 <0>         0.0000
      3 C3         -1.2377    1.9220    0.7562 C.ar      1 <0>         0.0000
      4 C4          0.7044    0.7341   -0.1302 C.ar      1 <0>         0.0000
      5 C5         -0.5349    0.7285    0.5350 C.ar      1 <0>         0.0000
      6 C6         -0.6980    3.1213    0.3075 C.ar      1 <0>         0.0000
      7 C7         -2.7209   -2.3247   -0.5350 C.3       1 <0>         0.0000
      8 C8         -2.7230   -2.8310    0.9384 C.3       1 <0>         0.0000
      9 C9         -1.2557   -1.9513   -0.8528 C.3       1 <0>         0.0000
     10 C10        -1.2560   -2.7409    1.4136 C.3       1 <0>         0.0000
     11 C11         0.9085   -1.6604    0.5460 C.3       1 <0>         0.0000
     12 C12         1.4633   -0.5639   -0.3562 C.3       1 <0>         0.0000
     13 C13        -0.6133   -1.6791    0.5192 C.3       1 <0>         0.0000
     14 O1         -1.1199   -0.4051    1.0200 O.3       1 <0>         0.0000
     15 O2          2.8633   -0.4618   -0.0648 O.3       1 <0>         0.0000
     16 Cl1        -1.5813    4.6155    0.5850 Cl        1 <0>         0.0000
     17 H1          2.1633    1.9997   -1.0881 H         1 <0>         0.0000
     18 H2          0.9333    4.1076   -0.7123 H         1 <0>         0.0000
     19 H3         -2.1900    1.8875    1.2746 H         1 <0>         0.0000
     20 H4         -3.0988   -3.0775   -1.2325 H         1 <0>         0.0000
     21 H5         -3.3630   -1.4457   -0.6338 H         1 <0>         0.0000
     22 H6         -3.3591   -2.1931    1.5569 H         1 <0>         0.0000
     23 H7         -3.1081   -3.8509    1.0250 H         1 <0>         0.0000
     24 H8         -0.7289   -2.7918   -1.3202 H         1 <0>         0.0000
     25 H9         -1.1718   -1.0951   -1.5281 H         1 <0>         0.0000
     26 H10        -1.1540   -2.4827    2.4709 H         1 <0>         0.0000
     27 H11        -0.7338   -3.6896    1.2475 H         1 <0>         0.0000
     28 H12         1.3045   -2.6306    0.2338 H         1 <0>         0.0000
     29 H13         1.2515   -1.4722    1.5691 H         1 <0>         0.0000
     30 H14         1.3394   -0.8660   -1.4070 H         1 <0>         0.0000
     31 H15         3.2822    0.0982   -0.7358 H         1 <0>         0.0000
@<TRIPOS>BOND
     1    1    2 ar
     2    1    4 ar
     3    1   17 1
     4    2    6 ar
     5    2   18 1
     6    3    5 ar
     7    3    6 ar
     8    3   19 1
     9    4    5 ar
    10    4   12 1
    11    5   14 1
    12    6   16 1
    13    7    8 1
    14    7    9 1
    15    7   20 1
    16    7   21 1
    17    8   10 1
    18    8   22 1
    19    8   23 1
    20    9   13 1
    21    9   24 1
    22    9   25 1
    23   10   13 1
    24   10   26 1
    25   10   27 1
    26   11   12 1
    27   11   13 1
    28   11   28 1
    29   11   29 1
    30   12   15 1
    31   12   30 1
    32   13   14 1
    33   15   31 1
