@<TRIPOS>MOLECULE
*****
   34    35     0     0     0
SMALL
NO_CHARGES

@<TRIPOS>ATOM
      1 C1         -1.4740    1.3473   -1.5338 C.ar      1 <0>         0.0000
      2 C2         -1.2642    2.0304   -0.3295 C.ar      1 <0>         0.0000
      3 C3         -0.9122    0.0847   -1.7080 C.ar      1 <0>         0.0000
      4 C4         -0.4605    1.4578    0.6516 C.ar      1 <0>         0.0000
      5 C5         -0.1452   -0.5440   -0.7095 C.ar      1 <0>         0.0000
      6 C6          0.1114    0.1855    0.4674 C.ar      1 <0>         0.0000
      7 C7          1.3102   -2.5659    0.0563 C.3       1 <0>         0.0000
      8 C8          2.1996   -1.5269    0.7254 C.3       1 <0>         0.0000
      9 C9          0.3390   -1.9726   -0.9861 C.3       1 <0>         0.0000
     10 C10        -0.9098   -2.8781   -1.1498 C.3       1 <0>         0.0000
     11 C11        -2.1502   -4.9783   -1.7906 C.3       1 <0>         0.0000
     12 C12        -0.7529   -4.3054   -1.6939 C.3       1 <0>         0.0000
     13 C13        -0.0495   -4.3247   -3.0708 C.3       1 <0>         0.0000
     14 O1         -3.0685   -4.3628   -2.6795 O.3       1 <0>         0.0000
     15 O2          0.0292   -5.0746   -0.7844 O.3       1 <0>         0.0000
     16 F1          1.2677   -4.0229   -2.9745 F         1 <0>         0.0000
     17 F2         -0.5970   -3.4592   -3.9478 F         1 <0>         0.0000
     18 F3         -0.1116   -5.5682   -3.6245 F         1 <0>         0.0000
     19 S1          1.1975   -0.3966    1.7520 S.3       1 <0>         0.0000
     20 H1         -2.0618    1.7975   -2.3291 H         1 <0>         0.0000
     21 H2         -1.6956    3.0152   -0.1701 H         1 <0>         0.0000
     22 H3         -1.0692   -0.4351   -2.6514 H         1 <0>         0.0000
     23 H4         -0.2446    2.0059    1.5655 H         1 <0>         0.0000
     24 H5          1.9272   -3.3228   -0.4350 H         1 <0>         0.0000
     25 H6          0.7487   -3.0870    0.8361 H         1 <0>         0.0000
     26 H7          2.9086   -2.0020    1.4087 H         1 <0>         0.0000
     27 H8          2.7659   -0.9351   -0.0013 H         1 <0>         0.0000
     28 H9          0.8617   -1.9293   -1.9464 H         1 <0>         0.0000
     29 H10        -1.3937   -2.9699   -0.1704 H         1 <0>         0.0000
     30 H11        -1.6190   -2.3733   -1.8082 H         1 <0>         0.0000
     31 H12        -2.0269   -6.0023   -2.1539 H         1 <0>         0.0000
     32 H13        -2.5365   -5.0279   -0.7646 H         1 <0>         0.0000
     33 H14        -3.4120   -3.5561   -2.2669 H         1 <0>         0.0000
     34 H15         0.0739   -5.9915   -1.1059 H         1 <0>         0.0000
@<TRIPOS>BOND
     1    1    2 ar
     2    1    3 ar
     3    1   20 1
     4    2    4 ar
     5    2   21 1
     6    3    5 ar
     7    3   22 1
     8    4    6 ar
     9    4   23 1
    10    5    6 ar
    11    5    9 1
    12    6   19 1
    13    7    8 1
    14    7    9 1
    15    7   24 1
    16    7   25 1
    17    8   19 1
    18    8   26 1
    19    8   27 1
    20    9   10 1
    21    9   28 1
    22   10   12 1
    23   10   29 1
    24   10   30 1
    25   11   12 1
    26   11   14 1
    27   11   31 1
    28   11   32 1
    29   12   13 1
    30   12   15 1
    31   13   16 1
    32   13   17 1
    33   13   18 1
    34   14   33 1
    35   15   34 1
