@<TRIPOS>MOLECULE
*****
   36    38     0     0     0
SMALL
NO_CHARGES

@<TRIPOS>ATOM
      1 C1          0.0206   -1.6475   -0.1044 C.ar      1 <0>         0.0000
      2 C2          1.0726    0.9382   -0.1607 C.ar      1 <0>         0.0000
      3 C3          1.2743   -1.4071    0.4711 C.ar      1 <0>         0.0000
      4 C4          1.8062   -0.0989    0.4385 C.ar      1 <0>         0.0000
      5 C5         -0.6875   -0.6089   -0.7013 C.ar      1 <0>         0.0000
      6 C6         -0.1680    0.6887   -0.7245 C.ar      1 <0>         0.0000
      7 C7         -2.7198    0.1893   -1.6971 C.cat     1 <0>         0.0000
      8 C8          2.0428   -2.5627    1.0865 C.3       1 <0>         0.0000
      9 C9          3.1455    0.2240    1.0723 C.3       1 <0>         0.0000
     10 C10         3.1722   -2.1063    2.0157 C.3       1 <0>         0.0000
     11 C11         4.0060   -1.0150    1.3393 C.3       1 <0>         0.0000
     12 C12        -2.2881    1.5758   -1.2497 C.3       1 <0>         0.0000
     13 C13        -2.3802    3.2569    0.6528 C.3       1 <0>         0.0000
     14 C14        -2.8031    1.8652    0.1723 C.3       1 <0>         0.0000
     15 N1         -1.9394   -0.8191   -1.3533 N.pl3     1 <0>         0.0000
     16 N2         -3.8563    0.0298   -2.3738 N.pl3     1 <0>         0.0000
     17 O1         -0.8715    1.6866   -1.3736 O.3       1 <0>         0.0000
     18 H1         -0.3980   -2.6526   -0.0863 H         1 <0>         0.0000
     19 H2          1.4695    1.9492   -0.1971 H         1 <0>         0.0000
     20 H3          1.3484   -3.2212    1.6196 H         1 <0>         0.0000
     21 H4          2.4694   -3.1630    0.2718 H         1 <0>         0.0000
     22 H5          3.6815    0.9401    0.4404 H         1 <0>         0.0000
     23 H6          2.9538    0.7419    2.0218 H         1 <0>         0.0000
     24 H7          2.7510   -1.7188    2.9519 H         1 <0>         0.0000
     25 H8          3.7970   -2.9648    2.2795 H         1 <0>         0.0000
     26 H9          4.4119   -1.3970    0.3943 H         1 <0>         0.0000
     27 H10         4.8611   -0.7373    1.9627 H         1 <0>         0.0000
     28 H11        -2.6876    2.3137   -1.9506 H         1 <0>         0.0000
     29 H12        -1.2923    3.3490    0.6849 H         1 <0>         0.0000
     30 H13        -2.7671    3.4372    1.6588 H         1 <0>         0.0000
     31 H14        -2.7688    4.0413   -0.0046 H         1 <0>         0.0000
     32 H15        -3.8963    1.7790    0.1631 H         1 <0>         0.0000
     33 H16        -2.4291    1.0960    0.8565 H         1 <0>         0.0000
     34 H17        -2.1878   -1.7747   -1.5994 H         1 <0>         0.0000
     35 H18        -4.2057   -0.8774   -2.6668 H         1 <0>         0.0000
     36 H19        -4.4127    0.8376   -2.6282 H         1 <0>         0.0000
@<TRIPOS>BOND
     1    1    3 ar
     2    1    5 ar
     3    1   18 1
     4    2    4 ar
     5    2    6 ar
     6    2   19 1
     7    3    4 ar
     8    3    8 1
     9    4    9 1
    10    5    6 ar
    11    5   15 1
    12    6   17 1
    13    7   12 1
    14    7   15 1
    15    7   16 2
    16    8   10 1
    17    8   20 1
    18    8   21 1
    19    9   11 1
    20    9   22 1
    21    9   23 1
    22   10   11 1
    23   10   24 1
    24   10   25 1
    25   11   26 1
    26   11   27 1
    27   12   14 1
    28   12   17 1
    29   12   28 1
    30   13   14 1
    31   13   29 1
    32   13   30 1
    33   13   31 1
    34   14   32 1
    35   14   33 1
    36   15   34 1
    37   16   35 1
    38   16   36 1
