@<TRIPOS>MOLECULE
*****
   42    44     0     0     0
SMALL
NO_CHARGES

@<TRIPOS>ATOM
      1 C1          1.2188   -0.8060  -11.0712 C.ar      1 <0>         0.0000
      2 C2          0.4630    0.1519  -10.3868 C.ar      1 <0>         0.0000
      3 C3          1.8106   -1.8525  -10.3559 C.ar      1 <0>         0.0000
      4 C4          0.3012    0.0631   -9.0025 C.ar      1 <0>         0.0000
      5 C5          1.6466   -1.9401   -8.9718 C.ar      1 <0>         0.0000
      6 C6          1.7684   -1.4984   -5.9701 C.ar      1 <0>         0.0000
      7 C7         -0.5034   -0.7497   -6.1905 C.ar      1 <0>         0.0000
      8 C8          1.6035   -1.5853   -4.5903 C.ar      1 <0>         0.0000
      9 C9         -0.6642   -0.8402   -4.8059 C.ar      1 <0>         0.0000
     10 C10         0.8892   -0.9845   -8.2714 C.ar      1 <0>         0.0000
     11 C11         0.7157   -1.0793   -6.8019 C.ar      1 <0>         0.0000
     12 C12         0.3820   -1.2661   -3.9766 C.ar      1 <0>         0.0000
     13 C13         1.4201    1.8902   -3.1906 C.2       1 <0>         0.0000
     14 C14         0.1134   -2.7871   -0.4674 C.3       1 <0>         0.0000
     15 C15        -1.1399   -1.8668   -0.5059 C.3       1 <0>         0.0000
     16 C16         0.7754   -2.6579   -1.8600 C.3       1 <0>         0.0000
     17 C17        -1.2118   -1.3292   -1.9496 C.3       1 <0>         0.0000
     18 C18         0.2472   -1.3291   -2.4630 C.3       1 <0>         0.0000
     19 C19         1.0477   -0.1532   -1.8381 C.3       1 <0>         0.0000
     20 N1          0.6479    1.1548   -2.3366 N.am      1 <0>         0.0000
     21 O1          2.5633    1.6152   -3.5301 O.2       1 <0>         0.0000
     22 H1          1.3463   -0.7369  -12.1484 H         1 <0>         0.0000
     23 H2          0.0080    0.9761  -10.9305 H         1 <0>         0.0000
     24 H3          2.3937   -2.6071  -10.8780 H         1 <0>         0.0000
     25 H4         -0.2624    0.8303   -8.4783 H         1 <0>         0.0000
     26 H5          2.0891   -2.7723   -8.4309 H         1 <0>         0.0000
     27 H6          2.7390   -1.7215   -6.4045 H         1 <0>         0.0000
     28 H7         -1.3462   -0.4438   -6.8049 H         1 <0>         0.0000
     29 H8          2.4522   -1.8840   -3.9813 H         1 <0>         0.0000
     30 H9         -1.6279   -0.5811   -4.3781 H         1 <0>         0.0000
     31 H10         0.8975    2.8011   -3.5406 H         1 <0>         0.0000
     32 H11         0.7999   -2.4732    0.3247 H         1 <0>         0.0000
     33 H12        -0.1520   -3.8265   -0.2556 H         1 <0>         0.0000
     34 H13        -2.0554   -2.3996   -0.2343 H         1 <0>         0.0000
     35 H14        -1.0353   -1.0449    0.2095 H         1 <0>         0.0000
     36 H15         1.8679   -2.6898   -1.8075 H         1 <0>         0.0000
     37 H16         0.4617   -3.4802   -2.5110 H         1 <0>         0.0000
     38 H17        -1.8025   -2.0115   -2.5703 H         1 <0>         0.0000
     39 H18        -1.7009   -0.3499   -2.0081 H         1 <0>         0.0000
     40 H19         2.1062   -0.2580   -2.0792 H         1 <0>         0.0000
     41 H20         0.9536   -0.1680   -0.7468 H         1 <0>         0.0000
     42 H21        -0.3061    1.4605   -2.1962 H         1 <0>         0.0000
@<TRIPOS>BOND
     1    1    3 ar
     2    1    2 ar
     3    1   22 1
     4    2    4 ar
     5    2   23 1
     6    3    5 ar
     7    3   24 1
     8    4   10 ar
     9    4   25 1
    10    5   10 ar
    11    5   26 1
    12    6    8 ar
    13    6   11 ar
    14    6   27 1
    15    7    9 ar
    16    7   11 ar
    17    7   28 1
    18    8   12 ar
    19    8   29 1
    20    9   12 ar
    21    9   30 1
    22   10   11 1
    23   12   18 1
    24   13   20 am
    25   13   21 2
    26   13   31 1
    27   14   15 1
    28   14   16 1
    29   14   32 1
    30   14   33 1
    31   15   17 1
    32   15   34 1
    33   15   35 1
    34   16   18 1
    35   16   36 1
    36   16   37 1
    37   17   18 1
    38   17   38 1
    39   17   39 1
    40   18   19 1
    41   19   20 1
    42   19   40 1
    43   19   41 1
    44   20   42 1
