@<TRIPOS>MOLECULE
*****
   54    56     0     0     0
SMALL
NO_CHARGES

@<TRIPOS>ATOM
      1 C1         -3.5363   -2.4435   -6.9522 C.ar      1 <0>         0.0000
      2 C2         -3.7381   -1.1400   -6.5146 C.ar      1 <0>         0.0000
      3 C3         -2.3134   -3.0914   -6.7188 C.ar      1 <0>         0.0000
      4 C4         -1.4551   -1.0564   -5.6535 C.ar      1 <0>         0.0000
      5 C5         -2.7125   -0.4570   -5.8552 C.ar      1 <0>         0.0000
      6 C6         -1.2774   -2.3924   -6.0767 C.ar      1 <0>         0.0000
      7 C7         -1.6724   -5.7112   -9.2657 C.2       1 <0>         0.0000
      8 C8         -4.0629   -5.7118   -8.3122 C.2       1 <0>         0.0000
      9 C9         -2.1785   -4.5314   -7.1206 C.2       1 <0>         0.0000
     10 C10        -1.4988   -7.1865   -8.9450 C.3       1 <0>         0.0000
     11 C11        -3.9922   -7.2167   -8.4699 C.3       1 <0>         0.0000
     12 C12        -2.6217   -7.7930   -8.0895 C.3       1 <0>         0.0000
     13 C13         3.2900    0.9694   -3.1573 C.3       1 <0>         0.0000
     14 C14         2.6443    1.1852   -1.7575 C.3       1 <0>         0.0000
     15 C15         2.2839    0.1090   -3.9444 C.3       1 <0>         0.0000
     16 C16         1.1807    0.6799   -1.8787 C.3       1 <0>         0.0000
     17 C17        -2.7485   -4.9247   -8.5005 C.3       1 <0>         0.0000
     18 C18         0.9223    0.5589   -3.3930 C.3       1 <0>         0.0000
     19 C19        -4.4569    2.2008   -3.0978 C.3       1 <0>         0.0000
     20 C20        -0.2291   -0.3670   -3.7188 C.3       1 <0>         0.0000
     21 C21        -4.0200    0.8851   -3.7384 C.3       1 <0>         0.0000
     22 O1         -1.0066   -5.1450  -10.1124 O.2       1 <0>         0.0000
     23 O2         -5.0993   -5.1166   -8.0745 O.2       1 <0>         0.0000
     24 O3         -1.6514   -5.3606   -6.4000 O.2       1 <0>         0.0000
     25 O4         -1.9178    1.9896   -4.9656 O.2       1 <0>         0.0000
     26 O5         -4.1094    1.7551   -6.2524 O.2       1 <0>         0.0000
     27 O6         -0.3977   -0.3711   -5.1565 O.3       1 <0>         0.0000
     28 S1         -3.1268    1.2250   -5.2927 S.o2      1 <0>         0.0000
     29 Cl1         0.3005   -3.0968   -5.8491 Cl        1 <0>         0.0000
     30 H1         -4.3376   -2.9768   -7.4549 H         1 <0>         0.0000
     31 H2         -4.6799   -0.6351   -6.7039 H         1 <0>         0.0000
     32 H3         -1.4104   -7.6957   -9.9109 H         1 <0>         0.0000
     33 H4         -0.5282   -7.2940   -8.4490 H         1 <0>         0.0000
     34 H5         -4.8098   -7.6552   -7.8924 H         1 <0>         0.0000
     35 H6         -4.2066   -7.4222   -9.5297 H         1 <0>         0.0000
     36 H7         -2.4265   -7.5990   -7.0331 H         1 <0>         0.0000
     37 H8         -2.6358   -8.8788   -8.2218 H         1 <0>         0.0000
     38 H9          3.4228    1.9325   -3.6618 H         1 <0>         0.0000
     39 H10         4.2780    0.5034   -3.0961 H         1 <0>         0.0000
     40 H11         3.1815    0.6389   -0.9764 H         1 <0>         0.0000
     41 H12         2.6715    2.2422   -1.4764 H         1 <0>         0.0000
     42 H13         2.3633    0.2293   -5.0276 H         1 <0>         0.0000
     43 H14         2.4313   -0.9560   -3.7198 H         1 <0>         0.0000
     44 H15         1.0848   -0.3091   -1.4119 H         1 <0>         0.0000
     45 H16         0.4625    1.3407   -1.3831 H         1 <0>         0.0000
     46 H17        -2.9695   -4.0240   -9.0734 H         1 <0>         0.0000
     47 H18         0.6753    1.5451   -3.8035 H         1 <0>         0.0000
     48 H19        -3.5929    2.8262   -2.8612 H         1 <0>         0.0000
     49 H20        -5.1211    2.7576   -3.7631 H         1 <0>         0.0000
     50 H21        -4.9959    1.9879   -2.1699 H         1 <0>         0.0000
     51 H22        -1.1533   -0.0118   -3.2492 H         1 <0>         0.0000
     52 H23        -0.0283   -1.3916   -3.3790 H         1 <0>         0.0000
     53 H24        -4.8682    0.2500   -4.0062 H         1 <0>         0.0000
     54 H25        -3.3380    0.3194   -3.0988 H         1 <0>         0.0000
@<TRIPOS>BOND
     1    1    2 ar
     2    1    3 ar
     3    1   30 1
     4    2    5 ar
     5    2   31 1
     6    3    6 ar
     7    3    9 1
     8    4    5 ar
     9    4    6 ar
    10    4   27 1
    11    5   28 1
    12    6   29 1
    13    7   10 1
    14    7   17 1
    15    7   22 2
    16    8   11 1
    17    8   17 1
    18    8   23 2
    19    9   17 1
    20    9   24 2
    21   10   12 1
    22   10   32 1
    23   10   33 1
    24   11   12 1
    25   11   34 1
    26   11   35 1
    27   12   36 1
    28   12   37 1
    29   13   14 1
    30   13   15 1
    31   13   38 1
    32   13   39 1
    33   14   16 1
    34   14   40 1
    35   14   41 1
    36   15   18 1
    37   15   42 1
    38   15   43 1
    39   16   18 1
    40   16   44 1
    41   16   45 1
    42   17   46 1
    43   18   20 1
    44   18   47 1
    45   19   21 1
    46   19   48 1
    47   19   49 1
    48   19   50 1
    49   20   27 1
    50   20   51 1
    51   20   52 1
    52   21   28 1
    53   21   53 1
    54   21   54 1
    55   25   28 2
    56   26   28 2
