@<TRIPOS>MOLECULE
*****
   27    27     0     0     0
SMALL
NO_CHARGES

@<TRIPOS>ATOM
      1 C1          0.4700    1.0266   -0.2472 C.2       1 <0>         0.0000
      2 C2          0.5084   -0.3293   -0.1350 C.2       1 <0>         0.0000
      3 C3          1.5669    1.9080   -0.6252 C.2       1 <0>         0.0000
      4 C4         -1.8663    0.0621    0.1478 C.3       1 <0>         0.0000
      5 C5         -0.7536   -0.9736    0.3882 C.3       1 <0>         0.0000
      6 C6         -2.2955   -3.0126    0.3691 C.3       1 <0>         0.0000
      7 C7          4.9832    1.0183   -1.6724 C.3       1 <0>         0.0000
      8 C8         -1.0515   -2.3476   -0.2298 C.3       1 <0>         0.0000
      9 C9          3.8623    1.9858   -1.3402 C.3       1 <0>         0.0000
     10 O1          1.5317    3.1244   -0.6482 O.2       1 <0>         0.0000
     11 O2          1.5534   -1.1435   -0.3788 O.3       1 <0>         0.0000
     12 O3          2.7030    1.1949   -0.9615 O.3       1 <0>         0.0000
     13 S1         -1.0996    1.7390    0.2304 S.3       1 <0>         0.0000
     14 H1         -2.2959   -0.0732   -0.8506 H         1 <0>         0.0000
     15 H2         -2.6646    0.0029    0.8884 H         1 <0>         0.0000
     16 H3         -0.6085   -1.1011    1.4732 H         1 <0>         0.0000
     17 H4         -2.1959   -3.1301    1.4544 H         1 <0>         0.0000
     18 H5         -2.4497   -4.0074   -0.0609 H         1 <0>         0.0000
     19 H6         -3.2016   -2.4277    0.1790 H         1 <0>         0.0000
     20 H7          5.2391    0.3990   -0.8070 H         1 <0>         0.0000
     21 H8          4.7038    0.3625   -2.5028 H         1 <0>         0.0000
     22 H9          5.8762    1.5790   -1.9658 H         1 <0>         0.0000
     23 H10        -1.1741   -2.2301   -1.3137 H         1 <0>         0.0000
     24 H11        -0.1789   -2.9917   -0.0843 H         1 <0>         0.0000
     25 H12         3.5892    2.6099   -2.1946 H         1 <0>         0.0000
     26 H13         4.1184    2.6443   -0.5064 H         1 <0>         0.0000
     27 H14         2.3046   -0.5783   -0.6630 H         1 <0>         0.0000
@<TRIPOS>BOND
     1    1    2 2
     2    1    3 1
     3    1   13 1
     4    2    5 1
     5    2   11 1
     6    3   10 2
     7    3   12 1
     8    4    5 1
     9    4   13 1
    10    4   14 1
    11    4   15 1
    12    5    8 1
    13    5   16 1
    14    6    8 1
    15    6   17 1
    16    6   18 1
    17    6   19 1
    18    7    9 1
    19    7   20 1
    20    7   21 1
    21    7   22 1
    22    8   23 1
    23    8   24 1
    24    9   12 1
    25    9   25 1
    26    9   26 1
    27   11   27 1
