@<TRIPOS>MOLECULE
*****
   29    30     0     0     0
SMALL
NO_CHARGES

@<TRIPOS>ATOM
      1 C1          0.1830    5.4593    2.4289 C.ar      1 <0>         0.0000
      2 C2          0.0639    5.0941    3.7726 C.ar      1 <0>         0.0000
      3 C3          0.6884    4.5502    1.4947 C.ar      1 <0>         0.0000
      4 C4          0.4500    3.8157    4.1907 C.ar      1 <0>         0.0000
      5 C5          1.0844    3.2633    1.8844 C.ar      1 <0>         0.0000
      6 C6          0.9474    2.9398    3.2392 C.ar      1 <0>         0.0000
      7 C7          0.9270   -0.1190    1.3824 C.cat     1 <0>         0.0000
      8 C8          0.7255   -2.3386    2.0022 C.3       1 <0>         0.0000
      9 C9          2.0962   -1.7679    2.4053 C.3       1 <0>         0.0000
     10 C10         1.9213    2.7154   -0.4924 C.3       1 <0>         0.0000
     11 C11         1.6458    2.2264    0.9271 C.3       1 <0>         0.0000
     12 N1          0.0397   -1.0978    1.6007 N.pl3     1 <0>         0.0000
     13 N2          0.6887    1.0734    0.8743 N.pl3     1 <0>         0.0000
     14 O1          2.1551   -0.4641    1.7239 O.3       1 <0>         0.0000
     15 F1          1.3234    1.6850    3.6376 F         1 <0>         0.0000
     16 H1         -0.1119    6.4533    2.1072 H         1 <0>         0.0000
     17 H2         -0.3246    5.8008    4.4997 H         1 <0>         0.0000
     18 H3          0.7846    4.8560    0.4582 H         1 <0>         0.0000
     19 H4          0.3766    3.5032    5.2276 H         1 <0>         0.0000
     20 H5          0.7855   -3.0380    1.1636 H         1 <0>         0.0000
     21 H6          0.2127   -2.8118    2.8406 H         1 <0>         0.0000
     22 H7          2.1784   -1.5679    3.4744 H         1 <0>         0.0000
     23 H8          2.9459   -2.3494    2.0542 H         1 <0>         0.0000
     24 H9          1.0124    3.0690   -0.9880 H         1 <0>         0.0000
     25 H10         2.3440    1.9044   -1.0902 H         1 <0>         0.0000
     26 H11         2.6420    3.5363   -0.4713 H         1 <0>         0.0000
     27 H12         2.5642    1.8155    1.3476 H         1 <0>         0.0000
     28 H13        -0.9316   -1.0544    1.3172 H         1 <0>         0.0000
     29 H14        -0.2693    1.2949    0.6207 H         1 <0>         0.0000
@<TRIPOS>BOND
     1    1    2 ar
     2    1    3 ar
     3    1   16 1
     4    2    4 ar
     5    2   17 1
     6    3    5 ar
     7    3   18 1
     8    4    6 ar
     9    4   19 1
    10    5    6 ar
    11    5   11 1
    12    6   15 1
    13    7   12 1
    14    7   13 2
    15    7   14 1
    16    8    9 1
    17    8   12 1
    18    8   20 1
    19    8   21 1
    20    9   14 1
    21    9   22 1
    22    9   23 1
    23   10   11 1
    24   10   24 1
    25   10   25 1
    26   10   26 1
    27   11   13 1
    28   11   27 1
    29   12   28 1
    30   13   29 1
