@<TRIPOS>MOLECULE
*****
   47    49     0     0     0
SMALL
NO_CHARGES

@<TRIPOS>ATOM
      1 C1          0.6190    1.3528   -4.4810 C.ar      1 <0>         0.0000
      2 C2          0.1112    0.7982   -3.3082 C.ar      1 <0>         0.0000
      3 C3          2.1666    1.3615   -2.0979 C.ar      1 <0>         0.0000
      4 C4          1.9019    1.9002   -4.4416 C.ar      1 <0>         0.0000
      5 C5          2.6642    1.9029   -3.2788 C.ar      1 <0>         0.0000
      6 C6          0.8802    0.8134   -2.1320 C.ar      1 <0>         0.0000
      7 C7          2.6852    2.5394   -5.5246 C.2       1 <0>         0.0000
      8 C8          1.0092   -0.7945   -0.2504 C.2       1 <0>         0.0000
      9 C9         -0.8548    0.5884   -0.3097 C.2       1 <0>         0.0000
     10 C10         3.9835    2.5572   -3.5920 C.3       1 <0>         0.0000
     11 C11         0.1120   -1.1703    0.9297 C.3       1 <0>         0.0000
     12 C12         0.8783   -0.9800    2.2461 C.3       1 <0>         0.0000
     13 C13        -0.3573   -2.6244    0.7558 C.3       1 <0>         0.0000
     14 C14        -3.2302    1.1642    3.5832 C.3       1 <0>         0.0000
     15 C15        -1.9675    1.0117    2.7296 C.3       1 <0>         0.0000
     16 C16        -3.0951    2.2632    4.6427 C.3       1 <0>         0.0000
     17 C17        -2.1161   -0.1139    1.6992 C.3       1 <0>         0.0000
     18 C18        -4.3643    2.4426    5.4635 C.3       1 <0>         0.0000
     19 N1          0.3578    0.2199   -0.9435 N.am      1 <0>         0.0000
     20 N2         -0.9916   -0.2132    0.7732 N.pl3     1 <0>         0.0000
     21 O1          2.3946    2.7346   -6.6812 O.2       1 <0>         0.0000
     22 O2          2.0821   -1.2958   -0.5292 O.2       1 <0>         0.0000
     23 O3          3.9012    2.9147   -4.9881 O.3       1 <0>         0.0000
     24 O4         -4.1225    3.4648    6.4371 O.3       1 <0>         0.0000
     25 S1         -1.8827    1.7898   -0.8137 S.2       1 <0>         0.0000
     26 H1          0.0436    1.3576   -5.4018 H         1 <0>         0.0000
     27 H2         -0.8797    0.3599   -3.2867 H         1 <0>         0.0000
     28 H3          2.7432    1.3476   -1.1786 H         1 <0>         0.0000
     29 H4          4.1574    3.4703   -3.0136 H         1 <0>         0.0000
     30 H5          4.8359    1.8832   -3.4591 H         1 <0>         0.0000
     31 H6          0.2550   -1.2657    3.0981 H         1 <0>         0.0000
     32 H7          1.1885    0.0607    2.3729 H         1 <0>         0.0000
     33 H8          1.7690   -1.6132    2.2372 H         1 <0>         0.0000
     34 H9         -0.9836   -2.9317    1.5981 H         1 <0>         0.0000
     35 H10         0.5140   -3.2826    0.7129 H         1 <0>         0.0000
     36 H11        -0.9313   -2.7402   -0.1678 H         1 <0>         0.0000
     37 H12        -4.0800    1.3888    2.9251 H         1 <0>         0.0000
     38 H13        -3.4625    0.2082    4.0738 H         1 <0>         0.0000
     39 H14        -1.1033    0.8132    3.3736 H         1 <0>         0.0000
     40 H15        -1.7669    1.9461    2.1968 H         1 <0>         0.0000
     41 H16        -2.2689    2.0299    5.3252 H         1 <0>         0.0000
     42 H17        -2.8505    3.2183    4.1632 H         1 <0>         0.0000
     43 H18        -2.2177   -1.0813    2.1997 H         1 <0>         0.0000
     44 H19        -3.0194    0.0476    1.1044 H         1 <0>         0.0000
     45 H20        -4.6301    1.4939    5.9556 H         1 <0>         0.0000
     46 H21        -5.1992    2.7233    4.8034 H         1 <0>         0.0000
     47 H22        -4.9380    3.6037    6.9425 H         1 <0>         0.0000
@<TRIPOS>BOND
     1    1    2 ar
     2    1    4 ar
     3    1   26 1
     4    2    6 ar
     5    2   27 1
     6    3    5 ar
     7    3    6 ar
     8    3   28 1
     9    4    5 ar
    10    4    7 1
    11    5   10 1
    12    6   19 1
    13    7   21 2
    14    7   23 1
    15    8   11 1
    16    8   19 am
    17    8   22 2
    18    9   19 1
    19    9   20 1
    20    9   25 2
    21   10   23 1
    22   10   29 1
    23   10   30 1
    24   11   12 1
    25   11   13 1
    26   11   20 1
    27   12   31 1
    28   12   32 1
    29   12   33 1
    30   13   34 1
    31   13   35 1
    32   13   36 1
    33   14   15 1
    34   14   16 1
    35   14   37 1
    36   14   38 1
    37   15   17 1
    38   15   39 1
    39   15   40 1
    40   16   18 1
    41   16   41 1
    42   16   42 1
    43   17   20 1
    44   17   43 1
    45   17   44 1
    46   18   24 1
    47   18   45 1
    48   18   46 1
    49   24   47 1
