@<TRIPOS>MOLECULE
*****
   47    49     0     0     0
SMALL
NO_CHARGES

@<TRIPOS>ATOM
      1 C1          0.6622    4.6309   -6.1695 C.ar      1 <0>         0.0000
      2 C2          1.7786    6.4397   -7.3024 C.ar      1 <0>         0.0000
      3 C3         -0.3691    4.6714   -7.1131 C.ar      1 <0>         0.0000
      4 C4          0.7587    6.4936   -8.2550 C.ar      1 <0>         0.0000
      5 C5          1.7500    5.5127   -6.2490 C.ar      1 <0>         0.0000
      6 C6         -0.3115    5.6033   -8.1492 C.ar      1 <0>         0.0000
      7 C7          2.1963    0.8435   -0.6137 C.2       1 <0>         0.0000
      8 C8          3.0073    2.9525   -0.6104 C.2       1 <0>         0.0000
      9 C9          1.3626    3.7509   -2.3797 C.2       1 <0>         0.0000
     10 C10         1.1059   -1.4516   -0.9994 C.3       1 <0>         0.0000
     11 C11         0.6883   -1.0021    0.3731 C.3       1 <0>         0.0000
     12 C12         2.0341   -0.5577   -0.2041 C.3       1 <0>         0.0000
     13 C13         1.1481    7.2704   -2.1365 C.3       1 <0>         0.0000
     14 C14         3.6770    1.8581    2.2589 C.3       1 <0>         0.0000
     15 C15         2.8513    5.5113   -5.2102 C.3       1 <0>         0.0000
     16 C16         2.6139    6.5356   -4.0819 C.3       1 <0>         0.0000
     17 C17         1.5199    6.1240   -3.0831 C.3       1 <0>         0.0000
     18 N1          1.4664    1.4764   -1.4877 N.2       1 <0>         0.0000
     19 N2          3.1436    1.6873   -0.0517 N.am      1 <0>         0.0000
     20 N3          1.9537    2.7823   -1.4952 N.am      1 <0>         0.0000
     21 N4          1.9627    4.9626   -2.3053 N.am      1 <0>         0.0000
     22 N5          4.0740    1.3408    0.9348 N.3       1 <0>         0.0000
     23 O1          3.6977    3.9467   -0.3645 O.2       1 <0>         0.0000
     24 O2          0.4250    3.4396   -3.0966 O.2       1 <0>         0.0000
     25 Cl1        -1.6031    5.6576   -9.3447 Cl        1 <0>         0.0000
     26 H1          0.6036    3.9138   -5.3556 H         1 <0>         0.0000
     27 H2          2.6152    7.1307   -7.3876 H         1 <0>         0.0000
     28 H3         -1.2075    3.9855   -7.0412 H         1 <0>         0.0000
     29 H4          0.7943    7.2105   -9.0695 H         1 <0>         0.0000
     30 H5          1.4168   -2.4827   -1.1352 H         1 <0>         0.0000
     31 H6          0.6112   -0.9957   -1.8504 H         1 <0>         0.0000
     32 H7         -0.0850   -0.2434    0.4395 H         1 <0>         0.0000
     33 H8          0.7149   -1.7163    1.1907 H         1 <0>         0.0000
     34 H9          2.9252   -0.9923    0.2355 H         1 <0>         0.0000
     35 H10         2.0186    7.6031   -1.5586 H         1 <0>         0.0000
     36 H11         0.7728    8.1274   -2.7044 H         1 <0>         0.0000
     37 H12         0.3714    6.9535   -1.4344 H         1 <0>         0.0000
     38 H13         2.7604    1.3519    2.5717 H         1 <0>         0.0000
     39 H14         3.5194    2.9430    2.2662 H         1 <0>         0.0000
     40 H15         4.4713    1.6009    2.9647 H         1 <0>         0.0000
     41 H16         2.9595    4.5130   -4.7738 H         1 <0>         0.0000
     42 H17         3.8049    5.7457   -5.6960 H         1 <0>         0.0000
     43 H18         2.3428    7.5017   -4.5231 H         1 <0>         0.0000
     44 H19         3.5487    6.6933   -3.5277 H         1 <0>         0.0000
     45 H20         0.6291    5.8068   -3.6278 H         1 <0>         0.0000
     46 H21         2.7347    5.0716   -1.6483 H         1 <0>         0.0000
     47 H22         4.9600    1.7584    0.6517 H         1 <0>         0.0000
@<TRIPOS>BOND
     1    1    3 ar
     2    1    5 ar
     3    1   26 1
     4    2    4 ar
     5    2    5 ar
     6    2   27 1
     7    3    6 ar
     8    3   28 1
     9    4    6 ar
    10    4   29 1
    11    5   15 1
    12    6   25 1
    13    7   12 1
    14    7   18 2
    15    7   19 1
    16    8   19 am
    17    8   20 am
    18    8   23 2
    19    9   20 am
    20    9   21 am
    21    9   24 2
    22   10   11 1
    23   10   12 1
    24   10   30 1
    25   10   31 1
    26   11   12 1
    27   11   32 1
    28   11   33 1
    29   12   34 1
    30   13   17 1
    31   13   35 1
    32   13   36 1
    33   13   37 1
    34   14   22 1
    35   14   38 1
    36   14   39 1
    37   14   40 1
    38   15   16 1
    39   15   41 1
    40   15   42 1
    41   16   17 1
    42   16   43 1
    43   16   44 1
    44   17   21 1
    45   17   45 1
    46   18   20 1
    47   19   22 1
    48   21   46 1
    49   22   47 1
