@<TRIPOS>MOLECULE
*****
   52    56     0     0     0
SMALL
NO_CHARGES

@<TRIPOS>ATOM
      1 C1         -2.8228   -1.8823   -1.4427 C.2       1 <0>         0.0000
      2 C2         -1.8674   -0.8392   -1.1445 C.2       1 <0>         0.0000
      3 C3         -0.8684   -1.2863   -0.3224 C.2       1 <0>         0.0000
      4 C4         -4.0087   -1.7877   -2.2823 C.2       1 <0>         0.0000
      5 C5         -2.5161   -3.0860   -0.8423 C.2       1 <0>         0.0000
      6 C6         -4.4457   -4.1987   -1.7502 C.2       1 <0>         0.0000
      7 C7          1.8506    1.0289   -0.9974 C.2       1 <0>         0.0000
      8 C8         -7.0473   -1.8045   -2.8132 C.3       1 <0>         0.0000
      9 C9          2.8810   -0.3860   -2.5527 C.3       1 <0>         0.0000
     10 C10         2.0630   -1.2385   -1.5627 C.3       1 <0>         0.0000
     11 C11        -1.3704   -7.6198   -0.8228 C.3       1 <0>         0.0000
     12 C12        -2.3361   -6.9789   -2.5540 C.3       1 <0>         0.0000
     13 C13        -7.3865   -3.1659   -2.2547 C.3       1 <0>         0.0000
     14 C14        -1.8156   -6.2225   -1.3083 C.3       1 <0>         0.0000
     15 C15        -6.0811   -2.9455   -2.9945 C.3       1 <0>         0.0000
     16 C16        -1.9584    0.5651   -1.6748 C.3       1 <0>         0.0000
     17 C17        -7.4239   -3.3798   -0.7561 C.3       1 <0>         0.0000
     18 C18         0.3369   -0.5359    0.1783 C.3       1 <0>         0.0000
     19 C19        -2.8350   -5.5118   -0.4260 C.3       1 <0>         0.0000
     20 N1         -4.8284   -2.9525   -2.2600 N.am      1 <0>         0.0000
     21 N2         -3.2782   -4.2241   -0.9807 N.am      1 <0>         0.0000
     22 N3          2.9515    0.8944   -1.8440 N.am      1 <0>         0.0000
     23 N4          1.2680   -0.2230   -0.8893 N.am      1 <0>         0.0000
     24 O1         -4.3157   -0.8085   -2.9519 O.2       1 <0>         0.0000
     25 O2         -5.0951   -5.2186   -1.9515 O.2       1 <0>         0.0000
     26 O3          1.4702    2.0569   -0.4485 O.2       1 <0>         0.0000
     27 O4         -1.8023   -8.2400   -2.0582 O.3       1 <0>         0.0000
     28 S1         -1.0582   -2.9904    0.0974 S.3       1 <0>         0.0000
     29 H1         -7.5457   -1.4373   -3.7049 H         1 <0>         0.0000
     30 H2         -6.7725   -1.0302   -2.1055 H         1 <0>         0.0000
     31 H3          3.8744   -0.8025   -2.7357 H         1 <0>         0.0000
     32 H4          2.3507   -0.2940   -3.5103 H         1 <0>         0.0000
     33 H5          1.4308   -1.9747   -2.0669 H         1 <0>         0.0000
     34 H6          2.7167   -1.7655   -0.8505 H         1 <0>         0.0000
     35 H7         -0.2965   -7.7540   -0.6501 H         1 <0>         0.0000
     36 H8         -1.9280   -8.0076    0.0410 H         1 <0>         0.0000
     37 H9         -3.4249   -7.0077   -2.6546 H         1 <0>         0.0000
     38 H10        -1.8787   -6.6998   -3.5095 H         1 <0>         0.0000
     39 H11        -8.1066   -3.7594   -2.8130 H         1 <0>         0.0000
     40 H12        -0.9745   -5.5598   -1.5267 H         1 <0>         0.0000
     41 H13        -5.9972   -3.3835   -3.9847 H         1 <0>         0.0000
     42 H14        -2.9331    1.0014   -1.4406 H         1 <0>         0.0000
     43 H15        -1.1721    1.2000   -1.2629 H         1 <0>         0.0000
     44 H16        -1.8765    0.5675   -2.7658 H         1 <0>         0.0000
     45 H17        -6.6551   -2.7881   -0.2483 H         1 <0>         0.0000
     46 H18        -7.2635   -4.4325   -0.5071 H         1 <0>         0.0000
     47 H19        -8.3941   -3.0706   -0.3522 H         1 <0>         0.0000
     48 H20         0.0409    0.4205    0.6173 H         1 <0>         0.0000
     49 H21         0.8409   -1.1110    0.9693 H         1 <0>         0.0000
     50 H22        -2.4121   -5.3168    0.5659 H         1 <0>         0.0000
     51 H23        -3.7249   -6.1283   -0.2968 H         1 <0>         0.0000
     52 H24         3.2120    1.7345   -2.3461 H         1 <0>         0.0000
@<TRIPOS>BOND
     1    1    2 1
     2    1    5 2
     3    1    4 1
     4    2    3 2
     5    2   16 1
     6    3   18 1
     7    3   28 1
     8    4   20 am
     9    4   24 2
    10    5   21 1
    11    5   28 1
    12    6   21 am
    13    6   20 am
    14    6   25 2
    15    7   22 am
    16    7   23 am
    17    7   26 2
    18    8   13 1
    19    8   15 1
    20    8   29 1
    21    8   30 1
    22    9   10 1
    23    9   22 1
    24    9   31 1
    25    9   32 1
    26   10   23 1
    27   10   33 1
    28   10   34 1
    29   11   14 1
    30   11   27 1
    31   11   35 1
    32   11   36 1
    33   12   14 1
    34   12   27 1
    35   12   37 1
    36   12   38 1
    37   13   15 1
    38   13   17 1
    39   13   39 1
    40   14   19 1
    41   14   40 1
    42   15   20 1
    43   15   41 1
    44   16   42 1
    45   16   43 1
    46   16   44 1
    47   17   45 1
    48   17   46 1
    49   17   47 1
    50   18   23 1
    51   18   48 1
    52   18   49 1
    53   19   21 1
    54   19   50 1
    55   19   51 1
    56   22   52 1
