@<TRIPOS>MOLECULE
*****
   30    30     0     0     0
SMALL
NO_CHARGES

@<TRIPOS>ATOM
      1 C1         -0.3820   -0.2334    0.9176 C.2       1 <0>         0.0000
      2 C2         -0.8451   -0.5423   -0.4443 C.2       1 <0>         0.0000
      3 C3          1.4716   -0.2363   -1.0261 C.2       1 <0>         0.0000
      4 C4         -0.8153   -0.3683    3.4083 C.3       1 <0>         0.0000
      5 C5         -2.2243    1.1254    1.9110 C.3       1 <0>         0.0000
      6 C6         -0.1570   -1.1571   -2.7035 C.3       1 <0>         0.0000
      7 C7          2.2573    0.8027   -3.0761 C.3       1 <0>         0.0000
      8 C8          3.8288   -0.2634   -1.5529 C.3       1 <0>         0.0000
      9 C9         -1.4225   -0.1900    2.0135 C.3       1 <0>         0.0000
     10 N1          0.8721   -0.0200    1.1998 N.2       1 <0>         0.0000
     11 N2          1.8163    0.0375    0.2078 N.2       1 <0>         0.0000
     12 N3          0.1873   -0.5953   -1.3911 N.am      1 <0>         0.0000
     13 N4          2.4414   -0.2151   -2.0292 N.pl3     1 <0>         0.0000
     14 O1         -2.0062   -0.8039   -0.7578 O.2       1 <0>         0.0000
     15 H1         -0.1281    0.4473    3.6478 H         1 <0>         0.0000
     16 H2         -0.2530   -1.3040    3.4822 H         1 <0>         0.0000
     17 H3         -1.6131   -0.3834    4.1586 H         1 <0>         0.0000
     18 H4         -1.5712    1.9861    2.0931 H         1 <0>         0.0000
     19 H5         -3.0219    1.1386    2.6614 H         1 <0>         0.0000
     20 H6         -2.6850    1.2344    0.9255 H         1 <0>         0.0000
     21 H7         -0.6577   -0.4133   -3.3291 H         1 <0>         0.0000
     22 H8         -0.8526   -1.9817   -2.5450 H         1 <0>         0.0000
     23 H9          0.7540   -1.5063   -3.1857 H         1 <0>         0.0000
     24 H10         2.5863    1.7926   -2.7264 H         1 <0>         0.0000
     25 H11         1.2127    0.8785   -3.3761 H         1 <0>         0.0000
     26 H12         2.8472    0.5263   -3.9547 H         1 <0>         0.0000
     27 H13         4.4712   -0.4557   -2.4173 H         1 <0>         0.0000
     28 H14         3.9431   -1.0730   -0.8323 H         1 <0>         0.0000
     29 H15         4.1391    0.6723   -1.0706 H         1 <0>         0.0000
     30 H16        -2.1213   -1.0105    1.8129 H         1 <0>         0.0000
@<TRIPOS>BOND
     1    1    2 1
     2    1    9 1
     3    1   10 2
     4    2   12 am
     5    2   14 2
     6    3   11 2
     7    3   12 1
     8    3   13 1
     9    4    9 1
    10    4   15 1
    11    4   16 1
    12    4   17 1
    13    5    9 1
    14    5   18 1
    15    5   19 1
    16    5   20 1
    17    6   12 1
    18    6   21 1
    19    6   22 1
    20    6   23 1
    21    7   13 1
    22    7   24 1
    23    7   25 1
    24    7   26 1
    25    8   13 1
    26    8   27 1
    27    8   28 1
    28    8   29 1
    29    9   30 1
    30   10   11 1
