@<TRIPOS>MOLECULE
*****
   35    36     0     0     0
SMALL
NO_CHARGES

@<TRIPOS>ATOM
      1 C1          9.7340   -1.7781   -0.5886 C.2       1 <0>         0.0000
      2 C2          8.0808   -0.5766    0.5976 C.2       1 <0>         0.0000
      3 C3         10.7801   -2.7130   -1.1467 C.2       1 <0>         0.0000
      4 C4         12.4925   -5.4859   -0.8144 C.3       1 <0>         0.0000
      5 C5         13.2494   -5.0364    0.4177 C.3       1 <0>         0.0000
      6 C6         12.7717   -4.0215   -0.5932 C.3       1 <0>         0.0000
      7 C7          0.3138   -0.6751    0.8884 C.3       1 <0>         0.0000
      8 C8          1.5765   -0.1961    1.6129 C.3       1 <0>         0.0000
      9 C9          2.8648   -0.5537    0.8619 C.3       1 <0>         0.0000
     10 C10         4.1288   -0.0796    1.5926 C.3       1 <0>         0.0000
     11 C11         5.3953   -0.4446    0.8231 C.3       1 <0>         0.0000
     12 N1          9.2688   -0.7621   -1.2688 N.2       1 <0>         0.0000
     13 N2          8.3178   -0.0621   -0.5731 N.2       1 <0>         0.0000
     14 N3         11.6766   -3.1684   -0.2111 N.am      1 <0>         0.0000
     15 O1         10.7790   -3.0462   -2.3211 O.2       1 <0>         0.0000
     16 O2          6.9798   -0.8266    2.9971 O.2       1 <0>         0.0000
     17 S1          9.0203   -1.9858    1.0000 S.3       1 <0>         0.0000
     18 S2          6.8796    0.0876    1.7907 S.o       1 <0>         0.0000
     19 H1         13.0360   -5.9805   -1.6126 H         1 <0>         0.0000
     20 H2         11.4663   -5.8125   -0.6847 H         1 <0>         0.0000
     21 H3         12.7270   -5.0793    1.3692 H         1 <0>         0.0000
     22 H4         14.3171   -5.2234    0.4750 H         1 <0>         0.0000
     23 H5         13.5116   -3.5545   -1.2394 H         1 <0>         0.0000
     24 H6          0.2362   -0.2280   -0.1094 H         1 <0>         0.0000
     25 H7          0.3183   -1.7640    0.7642 H         1 <0>         0.0000
     26 H8         -0.5901   -0.4068    1.4452 H         1 <0>         0.0000
     27 H9          1.6122   -0.6337    2.6187 H         1 <0>         0.0000
     28 H10         1.5296    0.8916    1.7530 H         1 <0>         0.0000
     29 H11         2.8342   -0.1144   -0.1442 H         1 <0>         0.0000
     30 H12         2.9135   -1.6418    0.7219 H         1 <0>         0.0000
     31 H13         4.1702   -0.5330    2.5891 H         1 <0>         0.0000
     32 H14         4.0841    1.0075    1.7354 H         1 <0>         0.0000
     33 H15         5.4646    0.0601   -0.1457 H         1 <0>         0.0000
     34 H16         5.4914   -1.5256    0.6819 H         1 <0>         0.0000
     35 H17        11.7687   -2.6477    0.6536 H         1 <0>         0.0000
@<TRIPOS>BOND
     1    1    3 1
     2    1   12 2
     3    1   17 1
     4    2   13 2
     5    2   17 1
     6    2   18 1
     7    3   14 am
     8    3   15 2
     9    4    5 1
    10    4    6 1
    11    4   19 1
    12    4   20 1
    13    5    6 1
    14    5   21 1
    15    5   22 1
    16    6   14 1
    17    6   23 1
    18    7    8 1
    19    7   24 1
    20    7   25 1
    21    7   26 1
    22    8    9 1
    23    8   27 1
    24    8   28 1
    25    9   10 1
    26    9   29 1
    27    9   30 1
    28   10   11 1
    29   10   31 1
    30   10   32 1
    31   11   18 1
    32   11   33 1
    33   11   34 1
    34   12   13 1
    35   14   35 1
    36   16   18 2
