@<TRIPOS>MOLECULE
*****
   40    41     0     0     0
SMALL
NO_CHARGES

@<TRIPOS>ATOM
      1 C1         -0.5128   -5.7833    2.0159 C.ar      1 <0>         0.0000
      2 C2          0.7157   -6.4501    2.0451 C.ar      1 <0>         0.0000
      3 C3         -1.1207   -5.5063    0.7871 C.ar      1 <0>         0.0000
      4 C4          1.3384   -6.8279    0.8521 C.ar      1 <0>         0.0000
      5 C5         -0.5004   -5.8862   -0.4049 C.ar      1 <0>         0.0000
      6 C6          0.7371   -6.5450   -0.3789 C.ar      1 <0>         0.0000
      7 C7          0.6921   -8.0062   -2.4370 C.2       1 <0>         0.0000
      8 C8          1.6592   -5.5910   -2.4235 C.2       1 <0>         0.0000
      9 C9          0.9665   -0.5548    0.4667 C.3       1 <0>         0.0000
     10 C10         0.8242   -0.3513   -1.0485 C.3       1 <0>         0.0000
     11 C11         0.8858   -2.0412    0.8407 C.3       1 <0>         0.0000
     12 C12         1.8449   -1.1916   -1.8304 C.3       1 <0>         0.0000
     13 C13         1.9113   -2.8743    0.0611 C.3       1 <0>         0.0000
     14 C14         1.7463   -2.6801   -1.4554 C.3       1 <0>         0.0000
     15 C15         2.7619   -3.4867   -2.2595 C.3       1 <0>         0.0000
     16 C16         1.4574   -6.9013   -1.6808 C.3       1 <0>         0.0000
     17 O1          0.8237   -9.1660   -2.1171 O.2       1 <0>         0.0000
     18 O2          0.9225   -5.1776   -3.3153 O.2       1 <0>         0.0000
     19 O3         -0.1442   -7.6216   -3.4170 O.3       1 <0>         0.0000
     20 O4          2.6837   -4.9061   -1.9200 O.3       1 <0>         0.0000
     21 H1         -0.9938   -5.4831    2.9430 H         1 <0>         0.0000
     22 H2          1.1927   -6.6737    2.9957 H         1 <0>         0.0000
     23 H3         -2.0779   -4.9926    0.7560 H         1 <0>         0.0000
     24 H4          2.2965   -7.3398    0.8778 H         1 <0>         0.0000
     25 H5         -0.9788   -5.6585   -1.3537 H         1 <0>         0.0000
     26 H6          0.1944    0.0148    0.9974 H         1 <0>         0.0000
     27 H7          1.9349   -0.1523    0.7952 H         1 <0>         0.0000
     28 H8         -0.1890   -0.6399   -1.3594 H         1 <0>         0.0000
     29 H9          0.9406    0.7082   -1.3039 H         1 <0>         0.0000
     30 H10         1.0404   -2.1742    1.9175 H         1 <0>         0.0000
     31 H11        -0.1211   -2.4217    0.6223 H         1 <0>         0.0000
     32 H12         1.6912   -1.0625   -2.9089 H         1 <0>         0.0000
     33 H13         2.8589   -0.8289   -1.6083 H         1 <0>         0.0000
     34 H14         2.9274   -2.5688    0.3514 H         1 <0>         0.0000
     35 H15         1.8114   -3.9311    0.3229 H         1 <0>         0.0000
     36 H16         0.7458   -3.0303   -1.7405 H         1 <0>         0.0000
     37 H17         3.7873   -3.2130   -2.0026 H         1 <0>         0.0000
     38 H18         2.6091   -3.3721   -3.3347 H         1 <0>         0.0000
     39 H19         2.4334   -7.3177   -1.4311 H         1 <0>         0.0000
     40 H20        -0.0174   -6.6559   -3.5861 H         1 <0>         0.0000
@<TRIPOS>BOND
     1    1    3 ar
     2    1    2 ar
     3    1   21 1
     4    2    4 ar
     5    2   22 1
     6    3    5 ar
     7    3   23 1
     8    4    6 ar
     9    4   24 1
    10    5    6 ar
    11    5   25 1
    12    6   16 1
    13    7   16 1
    14    7   17 2
    15    7   19 1
    16    8   16 1
    17    8   18 2
    18    8   20 1
    19    9   11 1
    20    9   10 1
    21    9   26 1
    22    9   27 1
    23   10   12 1
    24   10   28 1
    25   10   29 1
    26   11   13 1
    27   11   30 1
    28   11   31 1
    29   12   14 1
    30   12   32 1
    31   12   33 1
    32   13   14 1
    33   13   34 1
    34   13   35 1
    35   14   15 1
    36   14   36 1
    37   15   20 1
    38   15   37 1
    39   15   38 1
    40   16   39 1
    41   19   40 1
