@<TRIPOS>MOLECULE
*****
   40    41     0     0     0
SMALL
NO_CHARGES

@<TRIPOS>ATOM
      1 C1          5.9505    0.0018    5.2962 C.ar      1 <0>         0.0000
      2 C2          5.4196    0.6174    4.1572 C.ar      1 <0>         0.0000
      3 C3          3.8021   -0.9645    5.7791 C.ar      1 <0>         0.0000
      4 C4          5.1509   -0.7958    6.1198 C.ar      1 <0>         0.0000
      5 C5          4.0714    0.4421    3.8205 C.ar      1 <0>         0.0000
      6 C6          3.2556   -0.3599    4.6487 C.ar      1 <0>         0.0000
      7 C7         -0.0214   -0.8954    2.2045 C.3       1 <0>         0.0000
      8 C8          1.2723   -1.3186    1.4503 C.3       1 <0>         0.0000
      9 C9          0.0158   -1.6659    3.5408 C.3       1 <0>         0.0000
     10 C10         2.1272   -2.1044    2.4789 C.3       1 <0>         0.0000
     11 C11         1.5064   -1.7900    3.8460 C.3       1 <0>         0.0000
     12 C12         6.2146   -1.0500    9.8644 C.3       1 <0>         0.0000
     13 C13         4.2542    1.8076    1.8705 C.3       1 <0>         0.0000
     14 C14         5.7471   -0.4222    8.5478 C.3       1 <0>         0.0000
     15 C15         5.7100   -1.4190    7.3850 C.3       1 <0>         0.0000
     16 O1          7.0542   -1.8930    7.2011 O.3       1 <0>         0.0000
     17 O2          1.9222   -0.4921    4.3439 O.3       1 <0>         0.0000
     18 O3          3.4646    0.9860    2.7220 O.3       1 <0>         0.0000
     19 H1          6.9982    0.1433    5.5458 H         1 <0>         0.0000
     20 H2          6.0665    1.2279    3.5368 H         1 <0>         0.0000
     21 H3          3.1489   -1.5684    6.4059 H         1 <0>         0.0000
     22 H4         -0.0008    0.1787    2.4056 H         1 <0>         0.0000
     23 H5         -0.9300   -1.1071    1.6329 H         1 <0>         0.0000
     24 H6          1.0462   -1.9391    0.5776 H         1 <0>         0.0000
     25 H7          1.8134   -0.4392    1.0956 H         1 <0>         0.0000
     26 H8         -0.5249   -1.1671    4.3497 H         1 <0>         0.0000
     27 H9         -0.4005   -2.6735    3.4224 H         1 <0>         0.0000
     28 H10         2.0483   -3.1848    2.3095 H         1 <0>         0.0000
     29 H11         3.1894   -1.8499    2.4418 H         1 <0>         0.0000
     30 H12         1.7364   -2.5502    4.6027 H         1 <0>         0.0000
     31 H13         5.5448   -1.8614   10.1735 H         1 <0>         0.0000
     32 H14         7.2206   -1.4652    9.7625 H         1 <0>         0.0000
     33 H15         6.2286   -0.3056   10.6675 H         1 <0>         0.0000
     34 H16         3.5863    2.1381    1.0736 H         1 <0>         0.0000
     35 H17         5.0912    1.2481    1.4337 H         1 <0>         0.0000
     36 H18         4.6415    2.6839    2.4052 H         1 <0>         0.0000
     37 H19         6.4079    0.4052    8.2630 H         1 <0>         0.0000
     38 H20         4.7426    0.0010    8.6614 H         1 <0>         0.0000
     39 H21         5.0627   -2.2628    7.6735 H         1 <0>         0.0000
     40 H22         7.0561   -2.4696    6.4206 H         1 <0>         0.0000
@<TRIPOS>BOND
     1    1    2 ar
     2    1    4 ar
     3    1   19 1
     4    2    5 ar
     5    2   20 1
     6    3    4 ar
     7    3    6 ar
     8    3   21 1
     9    4   15 1
    10    5    6 ar
    11    5   18 1
    12    6   17 1
    13    7    8 1
    14    7    9 1
    15    7   22 1
    16    7   23 1
    17    8   10 1
    18    8   24 1
    19    8   25 1
    20    9   11 1
    21    9   26 1
    22    9   27 1
    23   10   11 1
    24   10   28 1
    25   10   29 1
    26   11   17 1
    27   11   30 1
    28   12   14 1
    29   12   31 1
    30   12   32 1
    31   12   33 1
    32   13   18 1
    33   13   34 1
    34   13   35 1
    35   13   36 1
    36   14   15 1
    37   14   37 1
    38   14   38 1
    39   15   16 1
    40   15   39 1
    41   16   40 1
