@<TRIPOS>MOLECULE
*****
   36    37     0     0     0
SMALL
NO_CHARGES

@<TRIPOS>ATOM
      1 C1         -0.9290    0.7833   -0.9302 C.1       1 <0>         0.0000
      2 C2         -1.9268    0.9594   -1.6047 C.1       1 <0>         0.0000
      3 C3          1.4245    0.0876   -0.7043 C.ar      1 <0>         0.0000
      4 C4          0.2280    0.8632    1.2432 C.ar      1 <0>         0.0000
      5 C5          0.2383    0.5781   -0.1312 C.ar      1 <0>         0.0000
      6 C6          2.5742   -0.1119    0.0620 C.ar      1 <0>         0.0000
      7 C7          1.3623    0.6716    2.0373 C.ar      1 <0>         0.0000
      8 C8          2.5448    0.1797    1.4450 C.ar      1 <0>         0.0000
      9 C9          4.7145    1.1892    2.1927 C.2       1 <0>         0.0000
     10 C10        -2.9376    1.7138   -3.8404 C.3       1 <0>         0.0000
     11 C11        -3.3283    0.2736   -3.6429 C.3       1 <0>         0.0000
     12 C12        -3.0943    1.1633   -2.4250 C.3       1 <0>         0.0000
     13 C13         3.8184   -0.6528   -0.6095 C.3       1 <0>         0.0000
     14 C14         0.8768   -0.3136    4.3252 C.3       1 <0>         0.0000
     15 C15         3.8065   -0.0243    2.2770 C.3       1 <0>         0.0000
     16 C16         1.2464    0.9488    3.5241 C.3       1 <0>         0.0000
     17 O1          5.6294    1.3405    1.4068 O.2       1 <0>         0.0000
     18 O2          4.3820    2.1442    3.1045 O.3       1 <0>         0.0000
     19 H1          1.4409   -0.1370   -1.7672 H         1 <0>         0.0000
     20 H2         -0.6850    1.2415    1.6954 H         1 <0>         0.0000
     21 H3         -1.9270    1.9284   -4.1714 H         1 <0>         0.0000
     22 H4         -3.6930    2.4144   -4.1837 H         1 <0>         0.0000
     23 H5         -4.3533   -0.0194   -3.8502 H         1 <0>         0.0000
     24 H6         -2.5832   -0.4898   -3.8404 H         1 <0>         0.0000
     25 H7         -3.9855    1.4791   -1.8882 H         1 <0>         0.0000
     26 H8          4.6824   -0.0012   -0.4569 H         1 <0>         0.0000
     27 H9          4.0846   -1.6415   -0.2151 H         1 <0>         0.0000
     28 H10         3.6568   -0.7637   -1.6845 H         1 <0>         0.0000
     29 H11        -0.0787   -0.7236    3.9824 H         1 <0>         0.0000
     30 H12         0.7897   -0.0871    5.3935 H         1 <0>         0.0000
     31 H13         1.6298   -1.1002    4.2071 H         1 <0>         0.0000
     32 H14         4.3796   -0.8748    1.9069 H         1 <0>         0.0000
     33 H15         3.5610   -0.2080    3.3228 H         1 <0>         0.0000
     34 H16         2.1691    1.3844    3.9135 H         1 <0>         0.0000
     35 H17         0.4677    1.7030    3.6791 H         1 <0>         0.0000
     36 H18         4.9838    2.8968    2.9430 H         1 <0>         0.0000
@<TRIPOS>BOND
     1    1    2 3
     2    1    5 1
     3    2   12 1
     4    3    5 ar
     5    3    6 ar
     6    3   19 1
     7    4    5 ar
     8    4    7 ar
     9    4   20 1
    10    6    8 ar
    11    6   13 1
    12    7    8 ar
    13    7   16 1
    14    8   15 1
    15    9   15 1
    16    9   17 2
    17    9   18 1
    18   10   11 1
    19   10   12 1
    20   10   21 1
    21   10   22 1
    22   11   12 1
    23   11   23 1
    24   11   24 1
    25   12   25 1
    26   13   26 1
    27   13   27 1
    28   13   28 1
    29   14   16 1
    30   14   29 1
    31   14   30 1
    32   14   31 1
    33   15   32 1
    34   15   33 1
    35   16   34 1
    36   16   35 1
    37   18   36 1
