@<TRIPOS>MOLECULE
*****
   49    49     0     0     0
SMALL
NO_CHARGES

@<TRIPOS>ATOM
      1 C1          2.0924   -0.2740    0.2360 C.2       1 <0>         0.0000
      2 C2          0.2610   -1.5032   -2.3699 C.2       1 <0>         0.0000
      3 C3         -0.7326   -0.6394    1.8587 C.3       1 <0>         0.0000
      4 C4         -0.1590    1.0410    0.4004 C.3       1 <0>         0.0000
      5 C5         -0.1448   -1.3619    0.6487 C.3       1 <0>         0.0000
      6 C6          0.5932   -0.2310   -0.1378 C.3       1 <0>         0.0000
      7 C7          4.5290    1.0419    1.4491 C.3       1 <0>         0.0000
      8 C8          3.2953    0.4970    3.5800 C.3       1 <0>         0.0000
      9 C9          4.1417   -1.3836    2.1294 C.3       1 <0>         0.0000
     10 C10         1.2897   -4.1222   -3.4383 C.3       1 <0>         0.0000
     11 C11         0.6232   -4.8891   -1.1303 C.3       1 <0>         0.0000
     12 C12        -1.1630   -4.1329   -2.7441 C.3       1 <0>         0.0000
     13 C13         3.6033    0.0479    2.1522 C.3       1 <0>         0.0000
     14 C14         0.2881   -3.9596   -2.2954 C.3       1 <0>         0.0000
     15 N1          0.4599   -0.3398   -1.6080 N.am      1 <0>         0.0000
     16 O1          2.9503   -0.6143   -0.5487 O.2       1 <0>         0.0000
     17 O2         -0.0759   -1.4218   -3.5486 O.2       1 <0>         0.0000
     18 O3          2.1564    0.4694   -3.4364 O.2       1 <0>         0.0000
     19 O4          1.3157    2.0729   -1.6665 O.2       1 <0>         0.0000
     20 O5         -1.1666    0.5947    1.3179 O.3       1 <0>         0.0000
     21 O6         -0.1962    1.3259   -3.4635 O.3       1 <0>         0.0000
     22 O7          2.2610    0.0834    1.5119 O.3       1 <0>         0.0000
     23 O8          0.4672   -2.6111   -1.6797 O.3       1 <0>         0.0000
     24 F1          0.6963   -2.3958    1.0481 F         1 <0>         0.0000
     25 S1          1.1052    0.9651   -2.5755 S.o2      1 <0>         0.0000
     26 H1         -1.5973   -1.1590    2.2767 H         1 <0>         0.0000
     27 H2          0.0361   -0.5137    2.6312 H         1 <0>         0.0000
     28 H3          0.5428    1.7125    0.8977 H         1 <0>         0.0000
     29 H4         -0.6662    1.5762   -0.3976 H         1 <0>         0.0000
     30 H5         -0.9358   -1.7904    0.0350 H         1 <0>         0.0000
     31 H6          4.7567    0.7260    0.4308 H         1 <0>         0.0000
     32 H7          4.0699    2.0346    1.4168 H         1 <0>         0.0000
     33 H8          5.4658    1.1169    2.0105 H         1 <0>         0.0000
     34 H9          2.5977   -0.1947    4.0615 H         1 <0>         0.0000
     35 H10         2.8523    1.4972    3.5835 H         1 <0>         0.0000
     36 H11         4.2170    0.5241    4.1683 H         1 <0>         0.0000
     37 H12         3.4076   -2.0735    2.5559 H         1 <0>         0.0000
     38 H13         4.3806   -1.7049    1.1153 H         1 <0>         0.0000
     39 H14         5.0523   -1.4320    2.7350 H         1 <0>         0.0000
     40 H15         1.0573   -3.4612   -4.2735 H         1 <0>         0.0000
     41 H16         2.3030   -3.9071   -3.0874 H         1 <0>         0.0000
     42 H17         1.2605   -5.1581   -3.7911 H         1 <0>         0.0000
     43 H18        -0.0658   -4.7343   -0.2960 H         1 <0>         0.0000
     44 H19         1.6389   -4.7045   -0.7722 H         1 <0>         0.0000
     45 H20         0.5481   -5.9293   -1.4599 H         1 <0>         0.0000
     46 H21        -1.8488   -3.9343   -1.9141 H         1 <0>         0.0000
     47 H22        -1.4087   -3.4734   -3.5769 H         1 <0>         0.0000
     48 H23        -1.3142   -5.1685   -3.0641 H         1 <0>         0.0000
     49 H24        -0.4176    0.4951   -3.9546 H         1 <0>         0.0000
@<TRIPOS>BOND
     1    1    6 1
     2    1   16 2
     3    1   22 1
     4    2   15 am
     5    2   17 2
     6    2   23 1
     7    3    5 1
     8    3   20 1
     9    3   26 1
    10    3   27 1
    11    4    6 1
    12    4   20 1
    13    4   28 1
    14    4   29 1
    15    5    6 1
    16    5   24 1
    17    5   30 1
    18    6   15 1
    19    7   13 1
    20    7   31 1
    21    7   32 1
    22    7   33 1
    23    8   13 1
    24    8   34 1
    25    8   35 1
    26    8   36 1
    27    9   13 1
    28    9   37 1
    29    9   38 1
    30    9   39 1
    31   10   14 1
    32   10   40 1
    33   10   41 1
    34   10   42 1
    35   11   14 1
    36   11   43 1
    37   11   44 1
    38   11   45 1
    39   12   14 1
    40   12   46 1
    41   12   47 1
    42   12   48 1
    43   13   22 1
    44   14   23 1
    45   15   25 1
    46   18   25 2
    47   19   25 2
    48   21   25 1
    49   21   49 1
