@<TRIPOS>MOLECULE
*****
   54    57     0     0     0
SMALL
NO_CHARGES

@<TRIPOS>ATOM
      1 C1         -2.1922    1.7000    2.8245 C.2       1 <0>         0.0000
      2 C2         -2.5666    2.9457    3.4112 C.2       1 <0>         0.0000
      3 C3         -3.4306    2.7774    4.4718 C.2       1 <0>         0.0000
      4 C4         -1.3115    1.4711    1.7049 C.2       1 <0>         0.0000
      5 C5         -2.7861    0.6425    3.4620 C.2       1 <0>         0.0000
      6 C6         -1.7747   -1.0100    2.0397 C.2       1 <0>         0.0000
      7 C7         -6.5157    3.9048    5.9361 C.2       1 <0>         0.0000
      8 C8          1.8314   -0.3985   -0.1448 C.3       1 <0>         0.0000
      9 C9          0.8213   -1.2699    0.6272 C.3       1 <0>         0.0000
     10 C10         0.8787    0.7949    0.0654 C.3       1 <0>         0.0000
     11 C11        -7.3987    4.5347    3.8432 C.3       1 <0>         0.0000
     12 C12        -5.8811    4.5045    3.7414 C.3       1 <0>         0.0000
     13 C13        -0.2732   -0.2283    0.2656 C.3       1 <0>         0.0000
     14 C14        -2.0933    4.2752    2.9500 C.3       1 <0>         0.0000
     15 C15        -1.1091   -0.5393   -0.9656 C.3       1 <0>         0.0000
     16 C16        -6.2111   -2.0905    1.6330 C.3       1 <0>         0.0000
     17 C17        -4.0491    3.8025    5.3420 C.3       1 <0>         0.0000
     18 C18        -3.3114   -1.7511    3.8797 C.3       1 <0>         0.0000
     19 C19        -4.7714   -1.8009    3.4678 C.3       1 <0>         0.0000
     20 N1         -1.1530    0.1011    1.3866 N.am      1 <0>         0.0000
     21 N2         -2.6260   -0.6989    3.1302 N.am      1 <0>         0.0000
     22 N3         -7.6793    4.2425    5.2259 N.am      1 <0>         0.0000
     23 N4         -5.4439    4.0270    5.0371 N.am      1 <0>         0.0000
     24 O1         -0.7681    2.3941    1.1042 O.2       1 <0>         0.0000
     25 O2         -1.5734   -2.1708    1.6637 O.2       1 <0>         0.0000
     26 O3         -6.4659    3.5724    7.1130 O.2       1 <0>         0.0000
     27 O4         -4.8596   -2.0413    2.0691 O.3       1 <0>         0.0000
     28 S1         -3.7825    1.1254    4.7500 S.3       1 <0>         0.0000
     29 H1          1.9527   -0.6876   -1.1949 H         1 <0>         0.0000
     30 H2          2.8197   -0.3018    0.3117 H         1 <0>         0.0000
     31 H3          0.6790   -2.2798    0.2321 H         1 <0>         0.0000
     32 H4          1.0449   -1.3432    1.6986 H         1 <0>         0.0000
     33 H5          1.1208    1.3890    0.9552 H         1 <0>         0.0000
     34 H6          0.7833    1.4715   -0.7887 H         1 <0>         0.0000
     35 H7         -7.8175    5.5131    3.5930 H         1 <0>         0.0000
     36 H8         -7.8688    3.7618    3.2284 H         1 <0>         0.0000
     37 H9         -5.5332    3.8196    2.9627 H         1 <0>         0.0000
     38 H10        -5.4641    5.5030    3.5773 H         1 <0>         0.0000
     39 H11        -2.7698    4.6853    2.1868 H         1 <0>         0.0000
     40 H12        -2.0367    4.9954    3.7799 H         1 <0>         0.0000
     41 H13        -1.0833    4.2180    2.5173 H         1 <0>         0.0000
     42 H14        -1.8862   -1.2646   -0.7192 H         1 <0>         0.0000
     43 H15        -0.4785   -0.9546   -1.7532 H         1 <0>         0.0000
     44 H16        -1.5830    0.3703   -1.3380 H         1 <0>         0.0000
     45 H17        -6.2408   -2.2763    0.5566 H         1 <0>         0.0000
     46 H18        -6.7041   -1.1428    1.8638 H         1 <0>         0.0000
     47 H19        -6.7236   -2.9021    2.1549 H         1 <0>         0.0000
     48 H20        -3.9944    3.5198    6.4069 H         1 <0>         0.0000
     49 H21        -3.5429    4.7787    5.2566 H         1 <0>         0.0000
     50 H22        -3.2075   -1.5348    4.9477 H         1 <0>         0.0000
     51 H23        -2.8204   -2.7033    3.6576 H         1 <0>         0.0000
     52 H24        -5.2526   -0.8403    3.6765 H         1 <0>         0.0000
     53 H25        -5.3119   -2.5931    3.9960 H         1 <0>         0.0000
     54 H26        -8.6099    4.2335    5.6314 H         1 <0>         0.0000
@<TRIPOS>BOND
     1    1    2 1
     2    1    5 2
     3    1    4 1
     4    2    3 2
     5    2   14 1
     6    3   17 1
     7    3   28 1
     8    4   20 am
     9    4   24 2
    10    5   21 1
    11    5   28 1
    12    6   21 am
    13    6   20 am
    14    6   25 2
    15    7   22 am
    16    7   23 am
    17    7   26 2
    18    8   10 1
    19    8    9 1
    20    8   29 1
    21    8   30 1
    22    9   13 1
    23    9   31 1
    24    9   32 1
    25   10   13 1
    26   10   33 1
    27   10   34 1
    28   11   12 1
    29   11   22 1
    30   11   35 1
    31   11   36 1
    32   12   23 1
    33   12   37 1
    34   12   38 1
    35   13   15 1
    36   13   20 1
    37   14   39 1
    38   14   40 1
    39   14   41 1
    40   15   42 1
    41   15   43 1
    42   15   44 1
    43   16   27 1
    44   16   45 1
    45   16   46 1
    46   16   47 1
    47   17   23 1
    48   17   48 1
    49   17   49 1
    50   18   19 1
    51   18   21 1
    52   18   50 1
    53   18   51 1
    54   19   27 1
    55   19   52 1
    56   19   53 1
    57   22   54 1
