@<TRIPOS>MOLECULE
*****
   52    55     0     0     0
SMALL
NO_CHARGES

@<TRIPOS>ATOM
      1 C1          7.1849    0.8647   -0.5079 C.ar      1 <0>         0.0000
      2 C2          6.5103    0.9351   -2.8268 C.ar      1 <0>         0.0000
      3 C3          6.7957   -0.4727   -0.4353 C.ar      1 <0>         0.0000
      4 C4          6.1212   -0.4025   -2.7542 C.ar      1 <0>         0.0000
      5 C5          2.6854   -3.1436    1.3434 C.ar      1 <0>         0.0000
      6 C6          0.0931   -2.4913    0.5879 C.ar      1 <0>         0.0000
      7 C7          2.4252   -2.6328    0.0598 C.ar      1 <0>         0.0000
      8 C8          7.0421    1.5687   -1.7037 C.ar      1 <0>         0.0000
      9 C9          6.2639   -1.1064   -1.5584 C.ar      1 <0>         0.0000
     10 C10         1.1191   -2.2992   -0.3342 C.ar      1 <0>         0.0000
     11 C11         1.6411   -3.3252    2.2447 C.ar      1 <0>         0.0000
     12 C12         0.3437   -2.9987    1.8661 C.ar      1 <0>         0.0000
     13 C13         3.4236   -2.4271   -0.8882 C.ar      1 <0>         0.0000
     14 C14         1.9126   -1.6566   -2.3868 C.ar      1 <0>         0.0000
     15 C15         6.4581    4.0284   -2.2394 C.3       1 <0>         0.0000
     16 C16         6.8750    3.9840   -0.8026 C.3       1 <0>         0.0000
     17 C17         7.4574    2.9979   -1.7816 C.3       1 <0>         0.0000
     18 C18         1.6159   -1.1144   -3.7439 C.3       1 <0>         0.0000
     19 C19         7.0027   -3.4859   -1.1213 C.3       1 <0>         0.0000
     20 C20         2.1923   -2.8755    4.5140 C.3       1 <0>         0.0000
     21 C21        -1.3583   -4.4292    2.7104 C.3       1 <0>         0.0000
     22 C22         5.8438   -2.5583   -1.4807 C.3       1 <0>         0.0000
     23 N1          0.8591   -1.8098   -1.5591 N.ar      1 <0>         0.0000
     24 N2          3.1983   -1.9394   -2.1228 N.ar      1 <0>         0.0000
     25 N3          4.7668   -2.7413   -0.5634 N.pl3     1 <0>         0.0000
     26 O1          1.8992   -3.8205    3.4861 O.3       1 <0>         0.0000
     27 O2         -0.6943   -3.1674    2.7328 O.3       1 <0>         0.0000
     28 H1          7.5983    1.3492    0.3727 H         1 <0>         0.0000
     29 H2          6.3955    1.4751   -3.7630 H         1 <0>         0.0000
     30 H3          6.9101   -1.0130    0.5009 H         1 <0>         0.0000
     31 H4          5.7072   -0.8882   -3.6339 H         1 <0>         0.0000
     32 H5          3.6934   -3.4048    1.6566 H         1 <0>         0.0000
     33 H6         -0.9295   -2.2404    0.3100 H         1 <0>         0.0000
     34 H7          5.4494    3.7142   -2.4803 H         1 <0>         0.0000
     35 H8          6.8263    4.8463   -2.8472 H         1 <0>         0.0000
     36 H9          7.5260    4.7718   -0.4418 H         1 <0>         0.0000
     37 H10         6.1465    3.6421   -0.0776 H         1 <0>         0.0000
     38 H11         8.4862    3.1633   -2.0759 H         1 <0>         0.0000
     39 H12         1.6773   -0.0192   -3.7397 H         1 <0>         0.0000
     40 H13         2.3228   -1.4995   -4.4904 H         1 <0>         0.0000
     41 H14         0.6114   -1.4052   -4.0785 H         1 <0>         0.0000
     42 H15         7.4351   -3.2193   -0.1507 H         1 <0>         0.0000
     43 H16         6.6597   -4.5252   -1.0660 H         1 <0>         0.0000
     44 H17         7.8031   -3.4506   -1.8689 H         1 <0>         0.0000
     45 H18         2.3785   -3.4031    5.4527 H         1 <0>         0.0000
     46 H19         1.3498   -2.1892    4.6303 H         1 <0>         0.0000
     47 H20         3.0842   -2.3102    4.2333 H         1 <0>         0.0000
     48 H21        -2.1643   -4.4308    3.4482 H         1 <0>         0.0000
     49 H22        -0.6418   -5.2231    2.9362 H         1 <0>         0.0000
     50 H23        -1.7782   -4.5924    1.7151 H         1 <0>         0.0000
     51 H24         5.4539   -2.8724   -2.4567 H         1 <0>         0.0000
     52 H25         4.9324   -3.1050    0.3527 H         1 <0>         0.0000
@<TRIPOS>BOND
     1    1    3 ar
     2    1    8 ar
     3    1   28 1
     4    2    4 ar
     5    2    8 ar
     6    2   29 1
     7    3    9 ar
     8    3   30 1
     9    4    9 ar
    10    4   31 1
    11    5    7 ar
    12    5   11 ar
    13    5   32 1
    14    6   10 ar
    15    6   12 ar
    16    6   33 1
    17    7   10 ar
    18    7   13 ar
    19    8   17 1
    20    9   22 1
    21   10   23 ar
    22   11   12 ar
    23   11   26 1
    24   12   27 1
    25   13   24 ar
    26   13   25 1
    27   14   18 1
    28   14   23 ar
    29   14   24 ar
    30   15   16 1
    31   15   17 1
    32   15   34 1
    33   15   35 1
    34   16   17 1
    35   16   36 1
    36   16   37 1
    37   17   38 1
    38   18   39 1
    39   18   40 1
    40   18   41 1
    41   19   22 1
    42   19   42 1
    43   19   43 1
    44   19   44 1
    45   20   26 1
    46   20   45 1
    47   20   46 1
    48   20   47 1
    49   21   27 1
    50   21   48 1
    51   21   49 1
    52   21   50 1
    53   22   25 1
    54   22   51 1
    55   25   52 1
