@<TRIPOS>MOLECULE
*****
   17    17     0     0     0
SMALL
NO_CHARGES

@<TRIPOS>ATOM
      1 C1          4.6000    1.4360    1.1170 C.2       1 <0>         0.0000
      2 C2          5.5260    0.9010    0.2680 C.2       1 <0>         0.0000
      3 C3          3.3450    0.9420    0.7480 C.2       1 <0>         0.0000
      4 C4          3.5100    0.1000   -0.3300 C.2       1 <0>         0.0000
      5 C5          2.6070   -0.6850   -1.1240 C.2       1 <0>         0.0000
      6 C6          0.2600   -1.3390   -1.6460 C.3       1 <0>         0.0000
      7 N1          4.8660    0.0920   -0.6090 N.pl3     1 <0>         0.0000
      8 N2          1.2780   -0.6790   -0.8200 N.am      1 <0>         0.0000
      9 O1          2.9760   -1.3710   -2.0750 O.2       1 <0>         0.0000
     10 Cl1         1.8650    1.3510    1.5400 Cl        1 <0>         0.0000
     11 H1          4.7940    2.1070    1.9140 H         1 <0>         0.0000
     12 H2          6.5780    1.0330    0.2250 H         1 <0>         0.0000
     13 H3          0.0850   -0.7280   -2.5330 H         1 <0>         0.0000
     14 H4         -0.6550   -1.4370   -1.0610 H         1 <0>         0.0000
     15 H5          0.6260   -2.3270   -1.9360 H         1 <0>         0.0000
     16 H6          5.3000   -0.4550   -1.3760 H         1 <0>         0.0000
     17 H7          0.9830   -0.0290   -0.0780 H         1 <0>         0.0000
@<TRIPOS>BOND
     1    1    2 2
     2    1    3 1
     3    1   11 1
     4    2    7 1
     5    2   12 1
     6    3    4 2
     7    3   10 1
     8    4    5 1
     9    4    7 1
    10    5    8 am
    11    5    9 2
    12    6    8 1
    13    6   13 1
    14    6   14 1
    15    6   15 1
    16    7   16 1
    17    8   17 1
