@<TRIPOS>MOLECULE
*****
   16    16     0     0     0
SMALL
NO_CHARGES

@<TRIPOS>ATOM
      1 C1          0.7453   -0.9428    1.8037 C.2       1 <0>         0.0000
      2 C2         -0.2141   -0.0407   -0.4028 C.3       1 <0>         0.0000
      3 C3          0.3637    1.1306    0.3345 C.3       1 <0>         0.0000
      4 C4          0.9501   -0.2286    0.5090 C.3       1 <0>         0.0000
      5 C5          1.1634   -0.7869    4.2498 C.3       1 <0>         0.0000
      6 N1          1.2543   -0.2751    2.9012 N.am      1 <0>         0.0000
      7 O1          0.1659   -2.0225    1.8130 O.2       1 <0>         0.0000
      8 F1          2.1763   -0.4628   -0.0800 F         1 <0>         0.0000
      9 H1         -1.1929   -0.3924   -0.1003 H         1 <0>         0.0000
     10 H2         -0.0219   -0.1127   -1.4662 H         1 <0>         0.0000
     11 H3          0.9451    1.8473   -0.2326 H         1 <0>         0.0000
     12 H4         -0.2274    1.5648    1.1316 H         1 <0>         0.0000
     13 H5          0.2336   -0.4294    4.7163 H         1 <0>         0.0000
     14 H6          1.1617   -1.8867    4.2252 H         1 <0>         0.0000
     15 H7          2.0259   -0.4346    4.8346 H         1 <0>         0.0000
     16 H8          1.7145    0.6181    2.7531 H         1 <0>         0.0000
@<TRIPOS>BOND
     1    1    4 1
     2    1    6 am
     3    1    7 2
     4    2    3 1
     5    2    4 1
     6    2    9 1
     7    2   10 1
     8    3    4 1
     9    3   11 1
    10    3   12 1
    11    4    8 1
    12    5    6 1
    13    5   13 1
    14    5   14 1
    15    5   15 1
    16    6   16 1
