@<TRIPOS>MOLECULE
*****
   23    24     0     0     0
SMALL
NO_CHARGES

@<TRIPOS>ATOM
      1 C1          0.5814   -6.5545    4.4182 C.ar      1 <0>         0.0000
      2 C2          0.3843   -6.6094    3.0362 C.ar      1 <0>         0.0000
      3 C3          0.2700   -5.4055    5.1485 C.ar      1 <0>         0.0000
      4 C4         -0.4478   -4.3301    3.0923 C.ar      1 <0>         0.0000
      5 C5         -0.1380   -5.4978    2.3769 C.ar      1 <0>         0.0000
      6 C6         -0.2395   -4.2934    4.4795 C.ar      1 <0>         0.0000
      7 C7         -0.3066   -2.4108    1.6110 C.cat     1 <0>         0.0000
      8 C8          0.3425   -0.6809    0.2270 C.3       1 <0>         0.0000
      9 C9          1.4650   -1.7240    0.3832 C.3       1 <0>         0.0000
     10 N1         -0.7702   -1.3954    0.8814 N.pl3     1 <0>         0.0000
     11 N2         -1.0044   -3.1876    2.4275 N.pl3     1 <0>         0.0000
     12 O1          0.9819   -2.6166    1.4537 O.3       1 <0>         0.0000
     13 Cl1        -0.4109   -5.5617    0.6544 Cl        1 <0>         0.0000
     14 Cl2        -0.6276   -2.8415    5.3650 Cl        1 <0>         0.0000
     15 H1          0.9821   -7.4219    4.9340 H         1 <0>         0.0000
     16 H2          0.6226   -7.5057    2.4737 H         1 <0>         0.0000
     17 H3          0.4232   -5.3657    6.2215 H         1 <0>         0.0000
     18 H4          0.5561    0.2557    0.7486 H         1 <0>         0.0000
     19 H5          0.1094   -0.4760   -0.8186 H         1 <0>         0.0000
     20 H6          1.6014   -2.3458   -0.5022 H         1 <0>         0.0000
     21 H7          2.4155   -1.3144    0.7179 H         1 <0>         0.0000
     22 H8         -1.7186   -1.0423    0.9352 H         1 <0>         0.0000
     23 H9         -1.9714   -2.9413    2.6179 H         1 <0>         0.0000
@<TRIPOS>BOND
     1    1    3 ar
     2    1    2 ar
     3    1   15 1
     4    2    5 ar
     5    2   16 1
     6    3    6 ar
     7    3   17 1
     8    4    6 ar
     9    4    5 ar
    10    4   11 1
    11    5   13 1
    12    6   14 1
    13    7   10 2
    14    7   11 1
    15    7   12 1
    16    8    9 1
    17    8   10 1
    18    8   18 1
    19    8   19 1
    20    9   12 1
    21    9   20 1
    22    9   21 1
    23   10   22 1
    24   11   23 1
