@<TRIPOS>MOLECULE
*****
   22    23     0     0     0
SMALL
NO_CHARGES

@<TRIPOS>ATOM
      1 C1         -2.8513   -2.7929    4.0008 C.ar      1 <0>         0.0000
      2 C2         -1.5859   -3.1109    3.5048 C.ar      1 <0>         0.0000
      3 C3         -3.3644   -1.5046    3.8448 C.ar      1 <0>         0.0000
      4 C4         -1.3352   -0.8361    2.6392 C.ar      1 <0>         0.0000
      5 C5         -0.8317   -2.1353    2.8533 C.ar      1 <0>         0.0000
      6 C6         -2.6113   -0.5509    3.1621 C.ar      1 <0>         0.0000
      7 C7         -0.2104    0.0985    0.6609 C.2       1 <0>         0.0000
      8 C8          0.5286    0.5481   -1.3555 C.3       1 <0>         0.0000
      9 C9          0.0421   -0.9214   -1.3089 C.3       1 <0>         0.0000
     10 N1          0.4439    1.0065    0.0406 N.2       1 <0>         0.0000
     11 N2         -0.5784    0.1552    1.9893 N.pl3     1 <0>         0.0000
     12 O1         -0.6119   -1.0198   -0.0124 O.3       1 <0>         0.0000
     13 Cl1         0.7906   -2.5391    2.3415 Cl        1 <0>         0.0000
     14 Cl2        -3.2773    1.0602    2.9505 Cl        1 <0>         0.0000
     15 H1         -3.4345   -3.5482    4.5191 H         1 <0>         0.0000
     16 H2         -1.1680   -4.1028    3.6414 H         1 <0>         0.0000
     17 H3         -4.3428   -1.2403    4.2318 H         1 <0>         0.0000
     18 H4          1.5548    0.6291   -1.7262 H         1 <0>         0.0000
     19 H5         -0.1074    1.1735   -1.9948 H         1 <0>         0.0000
     20 H6         -0.6922   -1.1855   -2.0717 H         1 <0>         0.0000
     21 H7          0.8641   -1.6439   -1.3201 H         1 <0>         0.0000
     22 H8         -0.6565    1.1022    2.3392 H         1 <0>         0.0000
@<TRIPOS>BOND
     1    1    3 ar
     2    1    2 ar
     3    1   15 1
     4    2    5 ar
     5    2   16 1
     6    3    6 ar
     7    3   17 1
     8    4    6 ar
     9    4    5 ar
    10    4   11 1
    11    5   13 1
    12    6   14 1
    13    7   10 2
    14    7   11 1
    15    7   12 1
    16    8    9 1
    17    8   10 1
    18    8   18 1
    19    8   19 1
    20    9   12 1
    21    9   20 1
    22    9   21 1
    23   11   22 1
