@<TRIPOS>MOLECULE
*****
   23    24     0     0     0
SMALL
NO_CHARGES

@<TRIPOS>ATOM
      1 C1          0.5453   -6.5357    4.3470 C.ar      1 <0>         0.0000
      2 C2          0.8773   -5.3714    5.0434 C.ar      1 <0>         0.0000
      3 C3         -0.1798   -6.4833    3.1540 C.ar      1 <0>         0.0000
      4 C4         -0.2540   -4.0599    3.3371 C.ar      1 <0>         0.0000
      5 C5          0.4806   -4.1353    4.5336 C.ar      1 <0>         0.0000
      6 C6         -0.5848   -5.2451    2.6556 C.ar      1 <0>         0.0000
      7 C7         -0.1433   -2.1814    1.8018 C.cat     1 <0>         0.0000
      8 C8          1.0544   -1.7558   -0.1180 C.3       1 <0>         0.0000
      9 C9          0.2191   -0.5292    0.2979 C.3       1 <0>         0.0000
     10 N1          0.8833   -2.6081    1.0729 N.pl3     1 <0>         0.0000
     11 N2         -0.6867   -2.7871    2.8469 N.pl3     1 <0>         0.0000
     12 O1         -0.6348   -1.0287    1.3948 O.3       1 <0>         0.0000
     13 Cl1         0.8892   -2.6696    5.3803 Cl        1 <0>         0.0000
     14 Cl2        -1.5109   -5.1695    1.1775 Cl        1 <0>         0.0000
     15 H1          0.8532   -7.4993    4.7413 H         1 <0>         0.0000
     16 H2          1.4388   -5.4158    5.9705 H         1 <0>         0.0000
     17 H3         -0.4422   -7.3902    2.6198 H         1 <0>         0.0000
     18 H4          0.6596   -2.2577   -1.0053 H         1 <0>         0.0000
     19 H5          2.1055   -1.5085   -0.2707 H         1 <0>         0.0000
     20 H6          0.8206    0.2800    0.7131 H         1 <0>         0.0000
     21 H7         -0.4469   -0.1556   -0.4770 H         1 <0>         0.0000
     22 H8          1.2871   -3.5320    1.1792 H         1 <0>         0.0000
     23 H9         -1.4054   -2.2693    3.3480 H         1 <0>         0.0000
@<TRIPOS>BOND
     1    1    3 ar
     2    1    2 ar
     3    1   15 1
     4    2    5 ar
     5    2   16 1
     6    3    6 ar
     7    3   17 1
     8    4    6 ar
     9    4    5 ar
    10    4   11 1
    11    5   13 1
    12    6   14 1
    13    7   10 2
    14    7   11 1
    15    7   12 1
    16    8    9 1
    17    8   10 1
    18    8   18 1
    19    8   19 1
    20    9   12 1
    21    9   20 1
    22    9   21 1
    23   10   22 1
    24   11   23 1
