@<TRIPOS>MOLECULE
*****
   40    40     0     0     0
SMALL
NO_CHARGES

@<TRIPOS>ATOM
      1 C1          9.2399   -1.6323   -1.1874 C.2       1 <0>         0.0000
      2 C2          7.5517   -1.5356    0.4379 C.2       1 <0>         0.0000
      3 C3         10.3156   -1.3906   -2.2041 C.2       1 <0>         0.0000
      4 C4          7.2805   -1.6822    8.2056 C.3       1 <0>         0.0000
      5 C5         13.4702   -3.7641   -2.2657 C.3       1 <0>         0.0000
      6 C6         14.3290   -2.3772   -4.2063 C.3       1 <0>         0.0000
      7 C7          6.4921   -1.3242    6.9412 C.3       1 <0>         0.0000
      8 C8          7.2506   -1.6611    5.6516 C.3       1 <0>         0.0000
      9 C9          6.4612   -1.2960    4.3871 C.3       1 <0>         0.0000
     10 C10        11.8609   -2.4951   -3.7681 C.3       1 <0>         0.0000
     11 C11         7.2403   -1.6294    3.1178 C.3       1 <0>         0.0000
     12 C12        13.2559   -2.5076   -3.1184 C.3       1 <0>         0.0000
     13 N1          8.8221   -2.8228   -0.8328 N.2       1 <0>         0.0000
     14 N2          7.8308   -2.7676    0.1103 N.2       1 <0>         0.0000
     15 N3         10.7657   -2.5178   -2.8042 N.am      1 <0>         0.0000
     16 O1         10.7111   -0.2474   -2.4381 O.2       1 <0>         0.0000
     17 O2          6.2617    0.4362    1.6580 O.2       1 <0>         0.0000
     18 S1          8.4586   -0.3013   -0.3864 S.3       1 <0>         0.0000
     19 S2          6.2677   -1.0797    1.6419 S.o       1 <0>         0.0000
     20 H1          7.5066   -2.7541    8.2411 H         1 <0>         0.0000
     21 H2          8.2328   -1.1410    8.2440 H         1 <0>         0.0000
     22 H3          6.7172   -1.4302    9.1102 H         1 <0>         0.0000
     23 H4         13.4086   -4.6714   -2.8805 H         1 <0>         0.0000
     24 H5         14.4580   -3.7517   -1.7934 H         1 <0>         0.0000
     25 H6         12.7246   -3.8432   -1.4675 H         1 <0>         0.0000
     26 H7         14.2965   -3.2294   -4.8967 H         1 <0>         0.0000
     27 H8         15.3306   -2.3476   -3.7651 H         1 <0>         0.0000
     28 H9         14.1943   -1.4623   -4.7935 H         1 <0>         0.0000
     29 H10         6.2518   -0.2534    6.9482 H         1 <0>         0.0000
     30 H11         5.5309   -1.8543    6.9447 H         1 <0>         0.0000
     31 H12         7.4923   -2.7324    5.6397 H         1 <0>         0.0000
     32 H13         8.2106   -1.1279    5.6459 H         1 <0>         0.0000
     33 H14         6.2304   -0.2252    4.3937 H         1 <0>         0.0000
     34 H15         5.5032   -1.8313    4.3844 H         1 <0>         0.0000
     35 H16        11.7448   -1.5941   -4.3757 H         1 <0>         0.0000
     36 H17        11.7434   -3.3636   -4.4258 H         1 <0>         0.0000
     37 H18         7.4124   -2.7031    2.9921 H         1 <0>         0.0000
     38 H19         8.1947   -1.0957    3.0738 H         1 <0>         0.0000
     39 H20        13.3128   -1.6270   -2.4673 H         1 <0>         0.0000
     40 H21        10.3802   -3.3976   -2.4803 H         1 <0>         0.0000
@<TRIPOS>BOND
     1    1    3 1
     2    1   13 2
     3    1   18 1
     4    2   14 2
     5    2   18 1
     6    2   19 1
     7    3   15 am
     8    3   16 2
     9    4    7 1
    10    4   20 1
    11    4   21 1
    12    4   22 1
    13    5   12 1
    14    5   23 1
    15    5   24 1
    16    5   25 1
    17    6   12 1
    18    6   26 1
    19    6   27 1
    20    6   28 1
    21    7    8 1
    22    7   29 1
    23    7   30 1
    24    8    9 1
    25    8   31 1
    26    8   32 1
    27    9   11 1
    28    9   33 1
    29    9   34 1
    30   10   12 1
    31   10   15 1
    32   10   35 1
    33   10   36 1
    34   11   19 1
    35   11   37 1
    36   11   38 1
    37   12   39 1
    38   13   14 1
    39   15   40 1
    40   17   19 2
