@<TRIPOS>MOLECULE
*****
   40    40     0     0     0
SMALL
NO_CHARGES

@<TRIPOS>ATOM
      1 C1          8.9901   -2.0354   -1.1300 C.2       1 <0>         0.0000
      2 C2          7.2811   -1.7379    0.4485 C.2       1 <0>         0.0000
      3 C3         10.1008   -1.9194   -2.1322 C.2       1 <0>         0.0000
      4 C4          6.9652   -1.5497    8.2091 C.3       1 <0>         0.0000
      5 C5         10.2247   -4.7499   -5.1923 C.3       1 <0>         0.0000
      6 C6         10.2047   -2.2405   -5.5572 C.3       1 <0>         0.0000
      7 C7          6.2205   -1.1639    6.9265 C.3       1 <0>         0.0000
      8 C8          6.9432   -1.6288    5.6563 C.3       1 <0>         0.0000
      9 C9          6.1954   -1.2422    4.3729 C.3       1 <0>         0.0000
     10 C10        11.5551   -3.2331   -3.6421 C.3       1 <0>         0.0000
     11 C11         6.9431   -1.7009    3.1240 C.3       1 <0>         0.0000
     12 C12        11.0231   -3.4443   -5.0723 C.3       1 <0>         0.0000
     13 N1          8.4533   -3.1716   -0.7581 N.2       1 <0>         0.0000
     14 N2          7.4505   -2.9989    0.1585 N.2       1 <0>         0.0000
     15 N3         10.5042   -3.1102   -2.6362 N.am      1 <0>         0.0000
     16 O1         10.5630   -0.8157   -2.4240 O.2       1 <0>         0.0000
     17 O2          6.1409    0.3766    1.5758 O.2       1 <0>         0.0000
     18 S1          8.3161   -0.6160   -0.3856 S.3       1 <0>         0.0000
     19 S2          6.0269   -1.1344    1.6182 S.o       1 <0>         0.0000
     20 H1          7.0794   -2.6369    8.2888 H         1 <0>         0.0000
     21 H2          7.9683   -1.1084    8.2317 H         1 <0>         0.0000
     22 H3          6.4292   -1.2045    9.0994 H         1 <0>         0.0000
     23 H4          9.3056   -4.7076   -4.5960 H         1 <0>         0.0000
     24 H5          9.9283   -4.9313   -6.2306 H         1 <0>         0.0000
     25 H6         10.8094   -5.6144   -4.8561 H         1 <0>         0.0000
     26 H7          9.2946   -2.1189   -4.9603 H         1 <0>         0.0000
     27 H8          9.9018   -2.3755   -6.6010 H         1 <0>         0.0000
     28 H9         10.7756   -1.3104   -5.4804 H         1 <0>         0.0000
     29 H10         6.0915   -0.0747    6.8890 H         1 <0>         0.0000
     30 H11         5.2099   -1.5921    6.9453 H         1 <0>         0.0000
     31 H12         7.0774   -2.7184    5.6910 H         1 <0>         0.0000
     32 H13         7.9515   -1.1943    5.6334 H         1 <0>         0.0000
     33 H14         6.0682   -0.1549    4.3336 H         1 <0>         0.0000
     34 H15         5.1906   -1.6831    4.3861 H         1 <0>         0.0000
     35 H16        12.1990   -4.0726   -3.3563 H         1 <0>         0.0000
     36 H17        12.1495   -2.3184   -3.5926 H         1 <0>         0.0000
     37 H18         7.0182   -2.7902    3.0472 H         1 <0>         0.0000
     38 H19         7.9421   -1.2581    3.0629 H         1 <0>         0.0000
     39 H20        11.9167   -3.5313   -5.7056 H         1 <0>         0.0000
     40 H21        10.0158   -3.9348   -2.3049 H         1 <0>         0.0000
@<TRIPOS>BOND
     1    1    3 1
     2    1   13 2
     3    1   18 1
     4    2   14 2
     5    2   18 1
     6    2   19 1
     7    3   15 am
     8    3   16 2
     9    4    7 1
    10    4   20 1
    11    4   21 1
    12    4   22 1
    13    5   12 1
    14    5   23 1
    15    5   24 1
    16    5   25 1
    17    6   12 1
    18    6   26 1
    19    6   27 1
    20    6   28 1
    21    7    8 1
    22    7   29 1
    23    7   30 1
    24    8    9 1
    25    8   31 1
    26    8   32 1
    27    9   11 1
    28    9   33 1
    29    9   34 1
    30   10   12 1
    31   10   15 1
    32   10   35 1
    33   10   36 1
    34   11   19 1
    35   11   37 1
    36   11   38 1
    37   12   39 1
    38   13   14 1
    39   15   40 1
    40   17   19 2
