@<TRIPOS>MOLECULE
*****
   30    32     0     0     0
SMALL
NO_CHARGES

@<TRIPOS>ATOM
      1 C1          1.0547    1.0251   -0.5102 C.ar      1 <0>         0.0000
      2 C2          5.2055    5.2716   -2.0540 C.ar      1 <0>         0.0000
      3 C3         -0.3398    0.9109   -0.5888 C.ar      1 <0>         0.0000
      4 C4          5.3095    4.6459   -3.3002 C.ar      1 <0>         0.0000
      5 C5          1.6473    2.2716   -0.6798 C.ar      1 <0>         0.0000
      6 C6          3.9788    5.2910   -1.3909 C.ar      1 <0>         0.0000
      7 C7         -1.1216    2.0419   -0.8033 C.ar      1 <0>         0.0000
      8 C8          4.1855    4.0544   -3.8811 C.ar      1 <0>         0.0000
      9 C9          0.8780    3.4278   -0.9065 C.ar      1 <0>         0.0000
     10 C10         2.8399    4.6823   -1.9421 C.ar      1 <0>         0.0000
     11 C11        -0.5284    3.3071   -0.9508 C.ar      1 <0>         0.0000
     12 C12         2.9653    4.0756   -3.2022 C.ar      1 <0>         0.0000
     13 C13         1.5617    4.7195   -1.1646 C.2       1 <0>         0.0000
     14 C14        -1.2741    5.6810   -0.6754 C.2       1 <0>         0.0000
     15 C15         0.0029    5.9472    0.1135 C.3       1 <0>         0.0000
     16 N1          1.1858    5.8701   -0.7337 N.2       1 <0>         0.0000
     17 N2         -1.3633    4.4073   -1.2183 N.am      1 <0>         0.0000
     18 O1         -2.1681    6.4993   -0.8300 O.2       1 <0>         0.0000
     19 Cl1         1.5683    3.3771   -4.0104 Cl        1 <0>         0.0000
     20 H1          1.6691    0.1473   -0.3328 H         1 <0>         0.0000
     21 H2          6.0743    5.7430   -1.6032 H         1 <0>         0.0000
     22 H3         -0.8177   -0.0584   -0.4759 H         1 <0>         0.0000
     23 H4          6.2587    4.6243   -3.8287 H         1 <0>         0.0000
     24 H5          2.7292    2.3630   -0.6562 H         1 <0>         0.0000
     25 H6          3.8770    5.7813   -0.4276 H         1 <0>         0.0000
     26 H7         -2.2047    1.9563   -0.8531 H         1 <0>         0.0000
     27 H8          4.2457    3.5885   -4.8596 H         1 <0>         0.0000
     28 H9         -0.0788    6.9532    0.5240 H         1 <0>         0.0000
     29 H10         0.0513    5.2235    0.9417 H         1 <0>         0.0000
     30 H11        -2.2760    4.2086   -1.6160 H         1 <0>         0.0000
@<TRIPOS>BOND
     1    1    3 ar
     2    1    5 ar
     3    1   20 1
     4    2    4 ar
     5    2    6 ar
     6    2   21 1
     7    3    7 ar
     8    3   22 1
     9    4    8 ar
    10    4   23 1
    11    5    9 ar
    12    5   24 1
    13    6   10 ar
    14    6   25 1
    15    7   11 ar
    16    7   26 1
    17    8   12 ar
    18    8   27 1
    19    9   11 ar
    20    9   13 1
    21   10   12 ar
    22   10   13 1
    23   11   17 1
    24   12   19 1
    25   13   16 2
    26   14   15 1
    27   14   17 am
    28   14   18 2
    29   15   16 1
    30   15   28 1
    31   15   29 1
    32   17   30 1
