@<TRIPOS>MOLECULE
*****
   22    22     0     0     0
SMALL
NO_CHARGES

@<TRIPOS>ATOM
      1 C1          1.8851   -1.0363   -0.1124 C.ar      1 <0>         0.0000
      2 C2          0.8066   -0.4630    0.5610 C.ar      1 <0>         0.0000
      3 C3          2.8783   -1.6520    2.0022 C.ar      1 <0>         0.0000
      4 C4          2.9210   -1.6309    0.6081 C.ar      1 <0>         0.0000
      5 C5          0.7638   -0.4841    1.9551 C.ar      1 <0>         0.0000
      6 C6          1.7997   -1.0786    2.6757 C.ar      1 <0>         0.0000
      7 C7          4.0441   -2.2301   -0.0953 C.2       1 <0>         0.0000
      8 C8          4.9849   -4.7726   -1.8221 C.3       1 <0>         0.0000
      9 C9          4.8094   -3.3430   -2.2072 C.3       1 <0>         0.0000
     10 N1          3.8034   -2.7027   -1.3906 N.am      1 <0>         0.0000
     11 O1          5.1549   -2.3273    0.4558 O.2       1 <0>         0.0000
     12 F1         -0.2808    0.0722    2.5853 F         1 <0>         0.0000
     13 Br1         1.7504   -1.1096    4.5660 Br        1 <0>         0.0000
     14 H1          1.9071   -1.0145   -1.1990 H         1 <0>         0.0000
     15 H2         -0.0002   -0.0002    0.0000 H         1 <0>         0.0000
     16 H3          3.6894   -2.1175    2.5581 H         1 <0>         0.0000
     17 H4          5.3026   -4.8597   -0.7774 H         1 <0>         0.0000
     18 H5          4.0539   -5.3321   -1.9642 H         1 <0>         0.0000
     19 H6          5.7567   -5.2342   -2.4496 H         1 <0>         0.0000
     20 H7          4.4922   -3.2633   -3.2513 H         1 <0>         0.0000
     21 H8          5.7442   -2.7893   -2.0796 H         1 <0>         0.0000
     22 H9          2.8631   -2.6557   -1.7691 H         1 <0>         0.0000
@<TRIPOS>BOND
     1    1    2 ar
     2    1    4 ar
     3    1   14 1
     4    2    5 ar
     5    2   15 1
     6    3    4 ar
     7    3    6 ar
     8    3   16 1
     9    4    7 1
    10    5    6 ar
    11    5   12 1
    12    6   13 1
    13    7   10 am
    14    7   11 2
    15    8    9 1
    16    8   17 1
    17    8   18 1
    18    8   19 1
    19    9   10 1
    20    9   20 1
    21    9   21 1
    22   10   22 1
