@<TRIPOS>MOLECULE
*****
   74    78     0     0     0
SMALL
NO_CHARGES

@<TRIPOS>ATOM
      1 C1          3.6925   -1.0484   -4.2196 C.ar      1 <0>         0.0000
      2 C2          3.9660   -1.7811   -3.0587 C.ar      1 <0>         0.0000
      3 C3          2.7622   -0.0052   -4.1683 C.ar      1 <0>         0.0000
      4 C4          2.2807  -15.1729   -8.5376 C.ar      1 <0>         0.0000
      5 C5          1.6752  -14.8182   -9.7459 C.ar      1 <0>         0.0000
      6 C6          3.3102   -1.4800   -1.8649 C.ar      1 <0>         0.0000
      7 C7          2.1139    0.3008   -2.9690 C.ar      1 <0>         0.0000
      8 C8          1.1393   -3.5135    0.7309 C.ar      1 <0>         0.0000
      9 C9          0.3709   -2.7847   -1.4264 C.ar      1 <0>         0.0000
     10 C10        -0.6514   -1.1095    2.0732 C.ar      1 <0>         0.0000
     11 C11         0.9550   -4.8499    0.3606 C.ar      1 <0>         0.0000
     12 C12         0.1731   -4.1052   -1.8081 C.ar      1 <0>         0.0000
     13 C13        -1.1397   -0.7695    3.3343 C.ar      1 <0>         0.0000
     14 C14         2.4914  -14.1817   -7.5803 C.ar      1 <0>         0.0000
     15 C15         0.9227    0.4230    3.7759 C.ar      1 <0>         0.0000
     16 C16         1.3119  -13.4823   -9.9357 C.ar      1 <0>         0.0000
     17 C17         0.8714   -2.4576   -0.1509 C.ar      1 <0>         0.0000
     18 C18         2.3656   -0.4389   -1.7996 C.ar      1 <0>         0.0000
     19 C19         0.6090   -0.6809    1.6294 C.ar      1 <0>         0.0000
     20 C20         1.4102    0.0882    2.5104 C.ar      1 <0>         0.0000
     21 C21         0.4711   -5.1514   -0.9195 C.ar      1 <0>         0.0000
     22 C22        -0.3466    0.0055    4.1888 C.ar      1 <0>         0.0000
     23 C23         2.0876  -12.8671   -7.8623 C.ar      1 <0>         0.0000
     24 C24         1.0899   -1.0483    0.2698 C.2       1 <0>         0.0000
     25 C25         1.6811   -0.1116   -0.5227 C.2       1 <0>         0.0000
     26 C26         2.7963    0.5206    2.0899 C.3       1 <0>         0.0000
     27 C27         1.7133    1.3380   -0.0724 C.3       1 <0>         0.0000
     28 C28         2.7920    1.6083    0.9959 C.3       1 <0>         0.0000
     29 C29         2.2683  -11.7676   -6.8537 C.3       1 <0>         0.0000
     30 C30         1.1077   -9.0047   -2.5227 C.3       1 <0>         0.0000
     31 C31         0.2283   -8.8040   -1.2834 C.3       1 <0>         0.0000
     32 C32         0.7909  -10.3136   -3.2565 C.3       1 <0>         0.0000
     33 C33         0.5359   -7.5211   -0.5252 C.3       1 <0>         0.0000
     34 C34         1.6537  -10.4948   -4.5032 C.3       1 <0>         0.0000
     35 N1          1.5076  -12.5216   -9.0225 N.ar      1 <0>         0.0000
     36 O1         -0.2618  -11.8581   -5.8231 O.2       1 <0>         0.0000
     37 O2         -0.7572    0.3765    5.4481 O.3       1 <0>         0.0000
     38 O3          0.2474   -6.4180   -1.3884 O.3       1 <0>         0.0000
     39 S1          1.1731  -12.0523   -5.3714 S.o       1 <0>         0.0000
     40 H1          4.2005   -1.2850   -5.1510 H         1 <0>         0.0000
     41 H2          4.6935   -2.5888   -3.0840 H         1 <0>         0.0000
     42 H3          2.5390    0.5700   -5.0636 H         1 <0>         0.0000
     43 H4          2.5809  -16.1997   -8.3454 H         1 <0>         0.0000
     44 H5          1.4874  -15.5533  -10.5231 H         1 <0>         0.0000
     45 H6          3.5230   -2.0566   -0.9699 H         1 <0>         0.0000
     46 H7          1.3834    1.1057   -2.9480 H         1 <0>         0.0000
     47 H8          1.5064   -3.2907    1.7292 H         1 <0>         0.0000
     48 H9          0.1346   -1.9890   -2.1256 H         1 <0>         0.0000
     49 H10        -1.2633   -1.7182    1.4134 H         1 <0>         0.0000
     50 H11         1.1856   -5.6334    1.0735 H         1 <0>         0.0000
     51 H12        -0.2171   -4.3525   -2.7912 H         1 <0>         0.0000
     52 H13        -2.1263   -1.1056    3.6503 H         1 <0>         0.0000
     53 H14         2.9537  -14.4184   -6.6253 H         1 <0>         0.0000
     54 H15         1.5275    1.0064    4.4652 H         1 <0>         0.0000
     55 H16         0.8394  -13.1664  -10.8645 H         1 <0>         0.0000
     56 H17         3.3599    0.8718    2.9598 H         1 <0>         0.0000
     57 H18         3.3259   -0.3549    1.6977 H         1 <0>         0.0000
     58 H19         1.8884    1.9980   -0.9263 H         1 <0>         0.0000
     59 H20         0.7380    1.6049    0.3482 H         1 <0>         0.0000
     60 H21         2.6018    2.5927    1.4403 H         1 <0>         0.0000
     61 H22         3.7857    1.6484    0.5346 H         1 <0>         0.0000
     62 H23         3.2938  -11.7259   -6.4714 H         1 <0>         0.0000
     63 H24         1.9823  -10.8103   -7.2944 H         1 <0>         0.0000
     64 H25         0.9673   -8.1572   -3.2020 H         1 <0>         0.0000
     65 H26         2.1649   -8.9939   -2.2231 H         1 <0>         0.0000
     66 H27        -0.8288   -8.7981   -1.5738 H         1 <0>         0.0000
     67 H28         0.3623   -9.6433   -0.5888 H         1 <0>         0.0000
     68 H29         0.9393  -11.1639   -2.5780 H         1 <0>         0.0000
     69 H30        -0.2623  -10.3270   -3.5565 H         1 <0>         0.0000
     70 H31         1.5936   -7.4916   -0.2270 H         1 <0>         0.0000
     71 H32        -0.0791   -7.4524    0.3822 H         1 <0>         0.0000
     72 H33         1.5007   -9.6734   -5.2112 H         1 <0>         0.0000
     73 H34         2.7194  -10.5685   -4.2567 H         1 <0>         0.0000
     74 H35        -1.6486    0.0262    5.6034 H         1 <0>         0.0000
@<TRIPOS>BOND
     1    1    3 ar
     2    1    2 ar
     3    1   40 1
     4    2    6 ar
     5    2   41 1
     6    3    7 ar
     7    3   42 1
     8    4    5 ar
     9    4   14 ar
    10    4   43 1
    11    5   16 ar
    12    5   44 1
    13    6   18 ar
    14    6   45 1
    15    7   18 ar
    16    7   46 1
    17    8   11 ar
    18    8   17 ar
    19    8   47 1
    20    9   12 ar
    21    9   17 ar
    22    9   48 1
    23   10   13 ar
    24   10   19 ar
    25   10   49 1
    26   11   21 ar
    27   11   50 1
    28   12   21 ar
    29   12   51 1
    30   13   22 ar
    31   13   52 1
    32   14   23 ar
    33   14   53 1
    34   15   20 ar
    35   15   22 ar
    36   15   54 1
    37   16   35 ar
    38   16   55 1
    39   17   24 1
    40   18   25 1
    41   19   20 ar
    42   19   24 1
    43   20   26 1
    44   21   38 1
    45   22   37 1
    46   23   29 1
    47   23   35 ar
    48   24   25 2
    49   25   27 1
    50   26   28 1
    51   26   56 1
    52   26   57 1
    53   27   28 1
    54   27   58 1
    55   27   59 1
    56   28   60 1
    57   28   61 1
    58   29   39 1
    59   29   62 1
    60   29   63 1
    61   30   31 1
    62   30   32 1
    63   30   64 1
    64   30   65 1
    65   31   33 1
    66   31   66 1
    67   31   67 1
    68   32   34 1
    69   32   68 1
    70   32   69 1
    71   33   38 1
    72   33   70 1
    73   33   71 1
    74   34   39 1
    75   34   72 1
    76   34   73 1
    77   36   39 2
    78   37   74 1
