@<TRIPOS>MOLECULE
*****
   66    69     0     0     0
SMALL
NO_CHARGES

@<TRIPOS>ATOM
      1 C1          1.9742    7.8735    5.1939 C.ar      1 <0>         0.0000
      2 C2          4.7356    3.9950    2.7370 C.ar      1 <0>         0.0000
      3 C3          5.2405    2.9857    4.8838 C.ar      1 <0>         0.0000
      4 C4          4.9334    2.7703    2.1123 C.ar      1 <0>         0.0000
      5 C5          5.4526    1.7562    4.2607 C.ar      1 <0>         0.0000
      6 C6          3.2444    7.2852    5.2374 C.ar      1 <0>         0.0000
      7 C7          0.9226    7.2283    4.5514 C.ar      1 <0>         0.0000
      8 C8          4.8616    4.1102    4.1325 C.ar      1 <0>         0.0000
      9 C9          5.2807    1.6504    2.8783 C.ar      1 <0>         0.0000
     10 C10         1.2016    5.9866    3.9106 C.ar      1 <0>         0.0000
     11 C11         3.3967    6.0322    4.6397 C.ar      1 <0>         0.0000
     12 C12        -1.3924    7.1743    3.7999 C.2       1 <0>         0.0000
     13 C13         0.6952    0.9368    2.1457 C.3       1 <0>         0.0000
     14 C14         1.3246    1.4291    0.8333 C.3       1 <0>         0.0000
     15 C15         1.2675    1.6164    3.4036 C.3       1 <0>         0.0000
     16 C16         1.0387    2.8900    0.4584 C.3       1 <0>         0.0000
     17 C17         0.6064    2.9391    3.8196 C.3       1 <0>         0.0000
     18 C18         1.3897    3.9349    1.5306 C.3       1 <0>         0.0000
     19 C19        -0.9635    6.0987    2.8070 C.3       1 <0>         0.0000
     20 C20         0.3723    3.9716    2.6913 C.3       1 <0>         0.0000
     21 C21        -0.7531    6.7469    1.4233 C.3       1 <0>         0.0000
     22 C22        -0.7475    8.8086    5.4924 C.3       1 <0>         0.0000
     23 C23         7.5010    0.9751    0.5381 C.3       1 <0>         0.0000
     24 C24         8.1004   -0.0308    2.7048 C.3       1 <0>         0.0000
     25 N1          2.4138    5.4212    3.9723 N.ar      1 <0>         0.0000
     26 N2         -0.4042    7.7143    4.5882 N.am      1 <0>         0.0000
     27 N3          0.1831    5.3200    3.2757 N.pl3     1 <0>         0.0000
     28 N4          4.6306    5.3476    4.7588 N.pl3     1 <0>         0.0000
     29 N5          7.1407    0.0233    1.5957 N.pl3     1 <0>         0.0000
     30 O1         -2.5613    7.5547    3.8317 O.2       1 <0>         0.0000
     31 O2          5.3522   -0.9747    3.0824 O.2       1 <0>         0.0000
     32 O3          4.7275    0.0865    0.8365 O.2       1 <0>         0.0000
     33 S1          5.5144    0.0725    2.0723 S.o2      1 <0>         0.0000
     34 H1          1.8165    8.8292    5.6812 H         1 <0>         0.0000
     35 H2          4.4582    4.8677    2.1570 H         1 <0>         0.0000
     36 H3          5.3226    3.0630    5.9655 H         1 <0>         0.0000
     37 H4          4.7907    2.6688    1.0414 H         1 <0>         0.0000
     38 H5          5.6942    0.8732    4.8436 H         1 <0>         0.0000
     39 H6          4.0759    7.7820    5.7268 H         1 <0>         0.0000
     40 H7         -0.3977    1.0565    2.1160 H         1 <0>         0.0000
     41 H8          0.8804   -0.1410    2.2162 H         1 <0>         0.0000
     42 H9          2.4079    1.2734    0.8959 H         1 <0>         0.0000
     43 H10         0.9792    0.7898    0.0110 H         1 <0>         0.0000
     44 H11         1.1795    0.9322    4.2557 H         1 <0>         0.0000
     45 H12         2.3430    1.7721    3.2621 H         1 <0>         0.0000
     46 H13         1.6033    3.1227   -0.4535 H         1 <0>         0.0000
     47 H14        -0.0226    3.0000    0.1899 H         1 <0>         0.0000
     48 H15        -0.3670    2.7330    4.2815 H         1 <0>         0.0000
     49 H16         1.2290    3.3970    4.5898 H         1 <0>         0.0000
     50 H17         2.3900    3.7605    1.9214 H         1 <0>         0.0000
     51 H18         1.4096    4.9253    1.0650 H         1 <0>         0.0000
     52 H19        -1.8202    5.4239    2.7494 H         1 <0>         0.0000
     53 H20        -0.6015    3.7466    2.2444 H         1 <0>         0.0000
     54 H21         0.1242    7.4019    1.4332 H         1 <0>         0.0000
     55 H22        -1.6330    7.3368    1.1524 H         1 <0>         0.0000
     56 H23        -0.6025    5.9788    0.6603 H         1 <0>         0.0000
     57 H24        -0.2677    9.7416    5.1767 H         1 <0>         0.0000
     58 H25        -0.4292    8.5679    6.5115 H         1 <0>         0.0000
     59 H26        -1.8277    8.9380    5.4640 H         1 <0>         0.0000
     60 H27         6.7616    0.9265   -0.2609 H         1 <0>         0.0000
     61 H28         8.4711    0.6742    0.1330 H         1 <0>         0.0000
     62 H29         7.5800    2.0080    0.9103 H         1 <0>         0.0000
     63 H30         7.7850   -0.7892    3.4210 H         1 <0>         0.0000
     64 H31         8.2098    0.9391    3.2140 H         1 <0>         0.0000
     65 H32         9.0711   -0.3222    2.2943 H         1 <0>         0.0000
     66 H33         5.0463    5.4367    5.6779 H         1 <0>         0.0000
@<TRIPOS>BOND
     1    1    6 ar
     2    1    7 ar
     3    1   34 1
     4    2    4 ar
     5    2    8 ar
     6    2   35 1
     7    3    5 ar
     8    3    8 ar
     9    3   36 1
    10    4    9 ar
    11    4   37 1
    12    5    9 ar
    13    5   38 1
    14    6   11 ar
    15    6   39 1
    16    7   10 ar
    17    7   26 1
    18    8   28 1
    19    9   33 1
    20   10   25 ar
    21   10   27 1
    22   11   25 ar
    23   11   28 1
    24   12   19 1
    25   12   26 am
    26   12   30 2
    27   13   14 1
    28   13   15 1
    29   13   40 1
    30   13   41 1
    31   14   16 1
    32   14   42 1
    33   14   43 1
    34   15   17 1
    35   15   44 1
    36   15   45 1
    37   16   18 1
    38   16   46 1
    39   16   47 1
    40   17   20 1
    41   17   48 1
    42   17   49 1
    43   18   20 1
    44   18   50 1
    45   18   51 1
    46   19   21 1
    47   19   27 1
    48   19   52 1
    49   20   27 1
    50   20   53 1
    51   21   54 1
    52   21   55 1
    53   21   56 1
    54   22   26 1
    55   22   57 1
    56   22   58 1
    57   22   59 1
    58   23   29 1
    59   23   60 1
    60   23   61 1
    61   23   62 1
    62   24   29 1
    63   24   63 1
    64   24   64 1
    65   24   65 1
    66   28   66 1
    67   29   33 1
    68   31   33 2
    69   32   33 2
