@<TRIPOS>MOLECULE
*****
   59    63     0     0     0
SMALL
NO_CHARGES

@<TRIPOS>ATOM
      1 C1          5.2266    4.8486   -0.9241 C.ar      1 <0>         0.0000
      2 C2          5.4110    4.3586   -2.2315 C.ar      1 <0>         0.0000
      3 C3          4.5886    4.0722    0.0446 C.ar      1 <0>         0.0000
      4 C4          3.1273   -5.2294   -3.6823 C.ar      1 <0>         0.0000
      5 C5          2.7121   -6.3836   -1.5181 C.ar      1 <0>         0.0000
      6 C6          2.9319    1.6338    1.7202 C.ar      1 <0>         0.0000
      7 C7          4.9648    3.0877   -2.6012 C.ar      1 <0>         0.0000
      8 C8          2.9723   -4.1303   -4.4999 C.ar      1 <0>         0.0000
      9 C9          2.1609   -6.3857   -0.2616 C.ar      1 <0>         0.0000
     10 C10         2.2451    0.4790    2.0920 C.ar      1 <0>         0.0000
     11 C11         1.5985   -3.0450   -2.8009 C.ar      1 <0>         0.0000
     12 C12         1.2181   -4.1682   -0.6191 C.ar      1 <0>         0.0000
     13 C13         2.5632   -0.4924   -0.1348 C.ar      1 <0>         0.0000
     14 C14         2.5427   -5.2721   -2.3902 C.ar      1 <0>         0.0000
     15 C15         4.1270    2.7966   -0.3040 C.ar      1 <0>         0.0000
     16 C16         3.4256    1.7504    0.4154 C.ar      1 <0>         0.0000
     17 C17         1.7728   -4.1566   -1.9290 C.ar      1 <0>         0.0000
     18 C18         4.3205    2.3202   -1.6282 C.ar      1 <0>         0.0000
     19 C19         3.2270    0.6829   -0.5034 C.ar      1 <0>         0.0000
     20 C20         2.1953   -3.0395   -4.0418 C.ar      1 <0>         0.0000
     21 C21         1.4114   -5.2651    0.2017 C.ar      1 <0>         0.0000
     22 C22         2.0647   -0.5671    1.1666 C.ar      1 <0>         0.0000
     23 C23         4.9241   -0.3417   -3.4618 C.2       1 <0>         0.0000
     24 C24         1.3436   -2.0393   -6.0440 C.3       1 <0>         0.0000
     25 C25         3.6251    0.3088   -2.9596 C.3       1 <0>         0.0000
     26 C26         1.0347   -3.5321    3.0469 C.3       1 <0>         0.0000
     27 C27         0.1722   -4.3787    2.1132 C.3       1 <0>         0.0000
     28 C28         2.0494   -2.6299    2.3597 C.3       1 <0>         0.0000
     29 N1          3.7688    1.0429   -1.7344 N.pl3     1 <0>         0.0000
     30 O1          6.0048   -0.1828   -2.9484 O.2       1 <0>         0.0000
     31 O2          4.7671   -1.0810   -4.5860 O.3       1 <0>         0.0000
     32 O3          2.0950   -1.8840   -4.8259 O.3       1 <0>         0.0000
     33 O4          0.9429   -5.4115    1.4756 O.3       1 <0>         0.0000
     34 O5          1.3336   -1.6857    1.5422 O.3       1 <0>         0.0000
     35 H1          5.5917    5.8395   -0.6685 H         1 <0>         0.0000
     36 H2          5.9218    4.9755   -2.9661 H         1 <0>         0.0000
     37 H3          4.4522    4.4533    1.0536 H         1 <0>         0.0000
     38 H4          3.7279   -6.0722   -4.0160 H         1 <0>         0.0000
     39 H5          3.2925   -7.2382   -1.8573 H         1 <0>         0.0000
     40 H6          3.0647    2.4426    2.4342 H         1 <0>         0.0000
     41 H7          5.1439    2.7069   -3.6021 H         1 <0>         0.0000
     42 H8          3.4603   -4.0789   -5.4685 H         1 <0>         0.0000
     43 H9          2.2858   -7.2274    0.4131 H         1 <0>         0.0000
     44 H10         1.8253    0.3755    3.0884 H         1 <0>         0.0000
     45 H11         0.9945   -2.1956   -2.4933 H         1 <0>         0.0000
     46 H12         0.6864   -3.2893   -0.2750 H         1 <0>         0.0000
     47 H13         2.4375   -1.3346   -0.8057 H         1 <0>         0.0000
     48 H14         1.3471   -1.0647   -6.5351 H         1 <0>         0.0000
     49 H15         0.3160   -2.3368   -5.8112 H         1 <0>         0.0000
     50 H16         1.8031   -2.7848   -6.7010 H         1 <0>         0.0000
     51 H17         3.2580    0.9736   -3.7527 H         1 <0>         0.0000
     52 H18         2.8620   -0.4604   -2.8330 H         1 <0>         0.0000
     53 H19         0.3661   -2.9094    3.6537 H         1 <0>         0.0000
     54 H20         1.5693   -4.2023    3.7295 H         1 <0>         0.0000
     55 H21        -0.5792   -4.9145    2.6998 H         1 <0>         0.0000
     56 H22        -0.3528   -3.7632    1.3801 H         1 <0>         0.0000
     57 H23         2.7421   -3.2038    1.7307 H         1 <0>         0.0000
     58 H24         2.6396   -2.0933    3.1118 H         1 <0>         0.0000
     59 H25         3.8128   -1.2182   -4.7864 H         1 <0>         0.0000
@<TRIPOS>BOND
     1    1    2 ar
     2    1    3 ar
     3    1   35 1
     4    2    7 ar
     5    2   36 1
     6    3   15 ar
     7    3   37 1
     8    4    8 ar
     9    4   14 ar
    10    4   38 1
    11    5    9 ar
    12    5   14 ar
    13    5   39 1
    14    6   10 ar
    15    6   16 ar
    16    6   40 1
    17    7   18 ar
    18    7   41 1
    19    8   20 ar
    20    8   42 1
    21    9   21 ar
    22    9   43 1
    23   10   22 ar
    24   10   44 1
    25   11   17 ar
    26   11   20 ar
    27   11   45 1
    28   12   17 ar
    29   12   21 ar
    30   12   46 1
    31   13   19 ar
    32   13   22 ar
    33   13   47 1
    34   14   17 ar
    35   15   16 1
    36   15   18 ar
    37   16   19 ar
    38   18   29 1
    39   19   29 1
    40   20   32 1
    41   21   33 1
    42   22   34 1
    43   23   25 1
    44   23   30 2
    45   23   31 1
    46   24   32 1
    47   24   48 1
    48   24   49 1
    49   24   50 1
    50   25   29 1
    51   25   51 1
    52   25   52 1
    53   26   27 1
    54   26   28 1
    55   26   53 1
    56   26   54 1
    57   27   33 1
    58   27   55 1
    59   27   56 1
    60   28   34 1
    61   28   57 1
    62   28   58 1
    63   31   59 1
