@<TRIPOS>MOLECULE
*****
   58    60     0     0     0
SMALL
NO_CHARGES

@<TRIPOS>ATOM
      1 C1         -5.2678   -8.6428   13.0266 C.ar      1 <0>         0.0000
      2 C2         -4.0772   -8.3799   13.7124 C.ar      1 <0>         0.0000
      3 C3         -5.4971   -8.0356   11.7873 C.ar      1 <0>         0.0000
      4 C4          3.6633   -5.2921    7.4132 C.ar      1 <0>         0.0000
      5 C5         -3.1245   -7.5190   13.1591 C.ar      1 <0>         0.0000
      6 C6         -4.5405   -7.1750   11.2400 C.ar      1 <0>         0.0000
      7 C7          3.5636   -5.6354    6.0640 C.ar      1 <0>         0.0000
      8 C8          2.6050   -4.6868    8.0950 C.ar      1 <0>         0.0000
      9 C9          1.3039   -4.7589    6.0319 C.ar      1 <0>         0.0000
     10 C10         3.1377   -6.9935    0.9141 C.ar      1 <0>         0.0000
     11 C11        -3.3414   -6.9049   11.9165 C.ar      1 <0>         0.0000
     12 C12         2.3768   -5.3677    5.3536 C.ar      1 <0>         0.0000
     13 C13         1.4325   -4.4343    7.3791 C.ar      1 <0>         0.0000
     14 C14         4.3492   -7.6036    1.1932 C.ar      1 <0>         0.0000
     15 C15         4.8333   -7.5365    2.5255 C.ar      1 <0>         0.0000
     16 C16         2.9615   -6.3246    3.0755 C.ar      1 <0>         0.0000
     17 C17         5.9215   -8.6857    5.3246 C.3       1 <0>         0.0000
     18 C18        -2.2874   -6.0180   11.2947 C.3       1 <0>         0.0000
     19 C19        -1.2852   -6.8242   10.4493 C.3       1 <0>         0.0000
     20 C20        -0.2287   -5.9499    9.7712 C.3       1 <0>         0.0000
     21 C21         8.0827   -8.3036    4.1115 C.3       1 <0>         0.0000
     22 C22         6.6156   -7.8964    4.2094 C.3       1 <0>         0.0000
     23 N1          2.4185   -6.3490    1.8422 N.ar      1 <0>         0.0000
     24 N2          4.1182   -6.8781    3.4570 N.ar      1 <0>         0.0000
     25 N3          2.1888   -5.6444    3.9963 N.pl3     1 <0>         0.0000
     26 N4          5.9947   -8.1346    2.9022 N.pl3     1 <0>         0.0000
     27 N5         -0.8704   -5.0419    8.8050 N.pl3     1 <0>         0.0000
     28 O1          0.5089   -3.0185    9.4064 O.2       1 <0>         0.0000
     29 O2         -0.8473   -3.1001    7.2251 O.2       1 <0>         0.0000
     30 O3          8.6721   -7.6064    3.0098 O.3       1 <0>         0.0000
     31 S1          0.0117   -3.7298    8.2294 S.o2      1 <0>         0.0000
     32 Br1         5.3326   -8.5014   -0.1822 Br        1 <0>         0.0000
     33 H1         -6.0117   -9.3088   13.4562 H         1 <0>         0.0000
     34 H2         -3.8933   -8.8412   14.6797 H         1 <0>         0.0000
     35 H3         -6.4228   -8.2277   11.2504 H         1 <0>         0.0000
     36 H4          4.5931   -5.4928    7.9390 H         1 <0>         0.0000
     37 H5         -2.2031   -7.3149   13.7017 H         1 <0>         0.0000
     38 H6         -4.7295   -6.6998   10.2792 H         1 <0>         0.0000
     39 H7          4.3927   -6.0947    5.5473 H         1 <0>         0.0000
     40 H8          2.6861   -4.3937    9.1360 H         1 <0>         0.0000
     41 H9          0.3828   -4.5145    5.5086 H         1 <0>         0.0000
     42 H10         2.7260   -7.0224   -0.0927 H         1 <0>         0.0000
     43 H11         5.9944   -9.7620    5.1368 H         1 <0>         0.0000
     44 H12         4.8660   -8.4183    5.3824 H         1 <0>         0.0000
     45 H13         6.3859   -8.4678    6.2928 H         1 <0>         0.0000
     46 H14        -1.7378   -5.4813   12.0770 H         1 <0>         0.0000
     47 H15        -2.7536   -5.2571   10.6622 H         1 <0>         0.0000
     48 H16        -1.8273   -7.4068    9.6928 H         1 <0>         0.0000
     49 H17        -0.7701   -7.5556   11.0831 H         1 <0>         0.0000
     50 H18         0.5344   -6.5768    9.2887 H         1 <0>         0.0000
     51 H19         0.2701   -5.3224   10.5139 H         1 <0>         0.0000
     52 H20         8.5805   -8.0504    5.0566 H         1 <0>         0.0000
     53 H21         8.1522   -9.3917    3.9640 H         1 <0>         0.0000
     54 H22         6.5670   -6.8233    4.4331 H         1 <0>         0.0000
     55 H23         1.3313   -5.2998    3.5809 H         1 <0>         0.0000
     56 H24         6.6412   -8.3315    2.1453 H         1 <0>         0.0000
     57 H25        -1.3246   -5.5176    8.0263 H         1 <0>         0.0000
     58 H26         9.5897   -7.9019    2.9087 H         1 <0>         0.0000
@<TRIPOS>BOND
     1    1    3 ar
     2    1    2 ar
     3    1   33 1
     4    2    5 ar
     5    2   34 1
     6    3    6 ar
     7    3   35 1
     8    4    7 ar
     9    4    8 ar
    10    4   36 1
    11    5   11 ar
    12    5   37 1
    13    6   11 ar
    14    6   38 1
    15    7   12 ar
    16    7   39 1
    17    8   13 ar
    18    8   40 1
    19    9   12 ar
    20    9   13 ar
    21    9   41 1
    22   10   14 ar
    23   10   23 ar
    24   10   42 1
    25   11   18 1
    26   12   25 1
    27   13   31 1
    28   14   15 ar
    29   14   32 1
    30   15   24 ar
    31   15   26 1
    32   16   23 ar
    33   16   24 ar
    34   16   25 1
    35   17   22 1
    36   17   43 1
    37   17   44 1
    38   17   45 1
    39   18   19 1
    40   18   46 1
    41   18   47 1
    42   19   20 1
    43   19   48 1
    44   19   49 1
    45   20   27 1
    46   20   50 1
    47   20   51 1
    48   21   22 1
    49   21   30 1
    50   21   52 1
    51   21   53 1
    52   22   26 1
    53   22   54 1
    54   25   55 1
    55   26   56 1
    56   27   31 1
    57   27   57 1
    58   28   31 2
    59   29   31 2
    60   30   58 1
