@<TRIPOS>MOLECULE
*****
   26    28     0     0     0
SMALL
NO_CHARGES

@<TRIPOS>ATOM
      1 C1          1.3776   -0.1269   -1.6421 C.ar      1 <0>         0.0000
      2 C2          0.2175   -0.4688   -0.9561 C.ar      1 <0>         0.0000
      3 C3          1.6756   -0.7186   -2.8730 C.ar      1 <0>         0.0000
      4 C4         -0.6742   -1.4085   -1.4795 C.ar      1 <0>         0.0000
      5 C5          2.5421   -4.3141   -9.3778 C.2       1 <0>         0.0000
      6 C6          2.9399   -4.8470  -10.6272 C.2       1 <0>         0.0000
      7 C7          0.7916   -1.6713   -3.4245 C.ar      1 <0>         0.0000
      8 C8         -0.3685   -1.9990   -2.7163 C.ar      1 <0>         0.0000
      9 C9          1.3489   -4.9229   -9.0653 C.2       1 <0>         0.0000
     10 C10         1.9615   -5.7437  -10.9890 C.2       1 <0>         0.0000
     11 C11        -0.0585   -3.1484   -4.8253 C.2       1 <0>         0.0000
     12 C12         0.4555   -4.7803   -7.9024 C.2       1 <0>         0.0000
     13 N1          0.9552   -2.3379   -4.6301 N.2       1 <0>         0.0000
     14 N2          0.7235   -3.9719   -6.9291 N.2       1 <0>         0.0000
     15 N3         -0.1995   -3.9467   -5.9167 N.pl3     1 <0>         0.0000
     16 O1          0.9881   -5.7958  -10.0422 O.3       1 <0>         0.0000
     17 S1         -1.2595   -3.1758   -3.6075 S.3       1 <0>         0.0000
     18 Br1         1.9560   -6.7731  -12.5804 Br        1 <0>         0.0000
     19 H1          2.0593    0.6063   -1.2196 H         1 <0>         0.0000
     20 H2         -0.0004    0.0004   -0.0002 H         1 <0>         0.0000
     21 H3          2.5847   -0.4438   -3.4003 H         1 <0>         0.0000
     22 H4         -1.5781   -1.6706   -0.9383 H         1 <0>         0.0000
     23 H5          3.0636   -3.5775   -8.7833 H         1 <0>         0.0000
     24 H6          3.8317   -4.6023  -11.1869 H         1 <0>         0.0000
     25 H7         -0.4595   -5.4023   -7.9037 H         1 <0>         0.0000
     26 H8         -1.0250   -4.5650   -6.0108 H         1 <0>         0.0000
@<TRIPOS>BOND
     1    1    2 ar
     2    1    3 ar
     3    1   19 1
     4    2    4 ar
     5    2   20 1
     6    3    7 ar
     7    3   21 1
     8    4    8 ar
     9    4   22 1
    10    5    6 1
    11    5    9 2
    12    5   23 1
    13    6   10 2
    14    6   24 1
    15    7    8 ar
    16    7   13 1
    17    8   17 1
    18    9   12 1
    19    9   16 1
    20   10   16 1
    21   10   18 1
    22   11   13 2
    23   11   15 1
    24   11   17 1
    25   12   14 2
    26   12   25 1
    27   14   15 1
    28   15   26 1
