@<TRIPOS>MOLECULE
*****
   16    15     0     0     0
SMALL
NO_CHARGES

@<TRIPOS>ATOM
      1 C1          2.5670   -1.2380   -0.4290 C.2       1 <0>         0.0000
      2 C2          0.1340   -1.5680   -0.1780 C.3       1 <0>         0.0000
      3 C3          4.0580   -0.9440    2.2620 C.3       1 <0>         0.0000
      4 C4          3.7600   -0.3350   -0.1450 C.3       1 <0>         0.0000
      5 N1          1.3750   -0.8260    0.0140 N.am      1 <0>         0.0000
      6 O1          2.6840   -2.2990   -1.0340 O.2       1 <0>         0.0000
      7 O2          3.7180    0.0730    1.2820 O.3       1 <0>         0.0000
      8 H1         -0.7040   -1.0210    0.2570 H         1 <0>         0.0000
      9 H2          0.2120   -2.5470    0.2990 H         1 <0>         0.0000
     10 H3         -0.0470   -1.7140   -1.2450 H         1 <0>         0.0000
     11 H4          4.0100   -0.4860    3.2510 H         1 <0>         0.0000
     12 H5          5.0690   -1.3000    2.0600 H         1 <0>         0.0000
     13 H6          3.3380   -1.7600    2.1890 H         1 <0>         0.0000
     14 H7          3.6490    0.5510   -0.7540 H         1 <0>         0.0000
     15 H8          4.6690   -0.8800   -0.3560 H         1 <0>         0.0000
     16 H9          1.3720    0.0110    0.5790 H         1 <0>         0.0000
@<TRIPOS>BOND
     1    1    4 1
     2    1    5 am
     3    1    6 2
     4    2    5 1
     5    2    8 1
     6    2    9 1
     7    2   10 1
     8    3    7 1
     9    3   11 1
    10    3   12 1
    11    3   13 1
    12    4    7 1
    13    4   14 1
    14    4   15 1
    15    5   16 1
