@<TRIPOS>MOLECULE
*****
   27    29     0     0     0
SMALL
NO_CHARGES

@<TRIPOS>ATOM
      1 C1          1.8621   -1.0737   -0.0983 C.ar      1 <0>         0.0000
      2 C2          0.7201   -0.6147    0.5684 C.ar      1 <0>         0.0000
      3 C3          4.9171   -3.8079    4.3762 C.ar      1 <0>         0.0000
      4 C4          6.2014   -3.5236    3.9031 C.ar      1 <0>         0.0000
      5 C5          2.9454   -1.5608    0.6322 C.ar      1 <0>         0.0000
      6 C6          0.6887   -0.6137    1.9613 C.ar      1 <0>         0.0000
      7 C7          3.8279   -3.1741    3.7841 C.ar      1 <0>         0.0000
      8 C8          6.3245   -2.6248    2.8405 C.ar      1 <0>         0.0000
      9 C9          1.1089   -0.8360    6.2161 C.2       1 <0>         0.0000
     10 C10         2.4328   -0.5216    6.1673 C.2       1 <0>         0.0000
     11 C11         2.9174   -1.6015    2.0347 C.ar      1 <0>         0.0000
     12 C12         1.7851   -1.0844    2.7037 C.ar      1 <0>         0.0000
     13 C13         4.0522   -2.2656    2.7348 C.ar      1 <0>         0.0000
     14 C14         1.7071   -0.9573    4.1637 C.2       1 <0>         0.0000
     15 N1          5.2853   -2.0113    2.2608 N.ar      1 <0>         0.0000
     16 N2          0.6588   -1.1095    4.9295 N.2       1 <0>         0.0000
     17 O1          2.8297   -0.5864    4.8557 O.3       1 <0>         0.0000
     18 H1          1.9032   -1.0620   -1.1843 H         1 <0>         0.0000
     19 H2         -0.1330   -0.2440    0.0065 H         1 <0>         0.0000
     20 H3          4.7664   -4.5167    5.1865 H         1 <0>         0.0000
     21 H4          7.0826   -3.9904    4.3337 H         1 <0>         0.0000
     22 H5          3.8282   -1.9381    0.1259 H         1 <0>         0.0000
     23 H6         -0.1736   -0.2291    2.4970 H         1 <0>         0.0000
     24 H7          2.8163   -3.3884    4.1149 H         1 <0>         0.0000
     25 H8          7.3058   -2.3862    2.4322 H         1 <0>         0.0000
     26 H9          0.4530   -0.8884    7.0746 H         1 <0>         0.0000
     27 H10         3.1850   -0.2425    6.8896 H         1 <0>         0.0000
@<TRIPOS>BOND
     1    1    2 ar
     2    1    5 ar
     3    1   18 1
     4    2    6 ar
     5    2   19 1
     6    3    4 ar
     7    3    7 ar
     8    3   20 1
     9    4    8 ar
    10    4   21 1
    11    5   11 ar
    12    5   22 1
    13    6   12 ar
    14    6   23 1
    15    7   13 ar
    16    7   24 1
    17    8   15 ar
    18    8   25 1
    19    9   10 2
    20    9   16 1
    21    9   26 1
    22   10   17 1
    23   10   27 1
    24   11   12 ar
    25   11   13 1
    26   12   14 1
    27   13   15 ar
    28   14   16 2
    29   14   17 1
