@<TRIPOS>MOLECULE
*****
   30    30     0     0     0
SMALL
NO_CHARGES

@<TRIPOS>ATOM
      1 C1          5.7315   -2.2876   -1.4257 C.ar      1 <0>         0.0000
      2 C2          5.6719   -2.7444   -0.1041 C.ar      1 <0>         0.0000
      3 C3          4.9463   -1.1984   -1.8161 C.ar      1 <0>         0.0000
      4 C4          4.8377   -2.1121    0.8213 C.ar      1 <0>         0.0000
      5 C5          4.1130   -0.5637   -0.8886 C.ar      1 <0>         0.0000
      6 C6          4.0569   -1.0103    0.4406 C.ar      1 <0>         0.0000
      7 C7          4.5860    3.1158    1.6659 C.2       1 <0>         0.0000
      8 C8          5.1647    4.0267    0.5963 C.3       1 <0>         0.0000
      9 C9          5.0241    0.2543    3.1712 C.3       1 <0>         0.0000
     10 C10         3.1890   -0.3016    1.4663 C.3       1 <0>         0.0000
     11 C11         3.9336    0.8047    2.2373 C.3       1 <0>         0.0000
     12 N1          4.5134    1.7907    1.3385 N.am      1 <0>         0.0000
     13 O1          4.2032    3.5504    2.7531 O.2       1 <0>         0.0000
     14 O2          4.5251   -0.7121    4.1014 O.3       1 <0>         0.0000
     15 O3          2.0469    0.3251    0.8728 O.3       1 <0>         0.0000
     16 H1          6.3773   -2.7825   -2.1463 H         1 <0>         0.0000
     17 H2          6.2707   -3.5977    0.2041 H         1 <0>         0.0000
     18 H3          4.9780   -0.8454   -2.8439 H         1 <0>         0.0000
     19 H4          4.7882   -2.4747    1.8456 H         1 <0>         0.0000
     20 H5          3.4864    0.2703   -1.1941 H         1 <0>         0.0000
     21 H6          4.3846    4.7218    0.2729 H         1 <0>         0.0000
     22 H7          5.9720    4.6185    1.0348 H         1 <0>         0.0000
     23 H8          5.5449    3.4903   -0.2780 H         1 <0>         0.0000
     24 H9          5.4912    1.1013    3.6863 H         1 <0>         0.0000
     25 H10         5.7959   -0.2570    2.5912 H         1 <0>         0.0000
     26 H11         2.8729   -1.0320    2.2207 H         1 <0>         0.0000
     27 H12         3.1861    1.3307    2.8388 H         1 <0>         0.0000
     28 H13         4.8646    1.4776    0.4431 H         1 <0>         0.0000
     29 H14         3.9968   -0.2429    4.7660 H         1 <0>         0.0000
     30 H15         1.5251   -0.3668    0.4359 H         1 <0>         0.0000
@<TRIPOS>BOND
     1    1    3 ar
     2    1    2 ar
     3    1   16 1
     4    2    4 ar
     5    2   17 1
     6    3    5 ar
     7    3   18 1
     8    4    6 ar
     9    4   19 1
    10    5    6 ar
    11    5   20 1
    12    6   10 1
    13    7    8 1
    14    7   12 am
    15    7   13 2
    16    8   21 1
    17    8   22 1
    18    8   23 1
    19    9   11 1
    20    9   14 1
    21    9   24 1
    22    9   25 1
    23   10   11 1
    24   10   15 1
    25   10   26 1
    26   11   12 1
    27   11   27 1
    28   12   28 1
    29   14   29 1
    30   15   30 1
