@<TRIPOS>MOLECULE
*****
   26    25     0     0     0
SMALL
NO_CHARGES

@<TRIPOS>ATOM
      1 C1         -1.8287    1.0774    1.7884 C.2       1 <0>         0.0000
      2 C2         -0.3477    0.8799   -0.8221 C.2       1 <0>         0.0000
      3 C3         -2.5677    0.8745    3.1010 C.3       1 <0>         0.0000
      4 C4         -2.7121    1.6034   -1.3137 C.3       1 <0>         0.0000
      5 C5          0.3829   -1.1125    0.5793 C.3       1 <0>         0.0000
      6 C6          2.5036    0.1465   -1.7102 C.3       1 <0>         0.0000
      7 C7         -1.8491    0.5264   -0.6511 C.3       1 <0>         0.0000
      8 N1         -2.2569    0.2982    0.7412 N.am      1 <0>         0.0000
      9 N2          0.5683   -0.0790   -0.4264 N.am      1 <0>         0.0000
     10 O1         -0.8970    1.8682    1.6773 O.2       1 <0>         0.0000
     11 O2         -0.0119    1.8709   -1.4541 O.2       1 <0>         0.0000
     12 O3          1.9065    0.3599   -0.4230 O.3       1 <0>         0.0000
     13 H1         -1.8365    0.8173    3.9100 H         1 <0>         0.0000
     14 H2         -3.1976    1.7502    3.2865 H         1 <0>         0.0000
     15 H3         -3.1967   -0.0204    3.1166 H         1 <0>         0.0000
     16 H4         -2.5485    2.5658   -0.8250 H         1 <0>         0.0000
     17 H5         -3.7697    1.3300   -1.2326 H         1 <0>         0.0000
     18 H6         -2.4535    1.7124   -2.3689 H         1 <0>         0.0000
     19 H7          1.1255   -1.8940    0.4014 H         1 <0>         0.0000
     20 H8         -0.6124   -1.5452    0.4883 H         1 <0>         0.0000
     21 H9          0.5137   -0.7132    1.5917 H         1 <0>         0.0000
     22 H10         3.5478    0.4439   -1.5891 H         1 <0>         0.0000
     23 H11         2.0214    0.7721   -2.4654 H         1 <0>         0.0000
     24 H12         2.4487   -0.9119   -1.9945 H         1 <0>         0.0000
     25 H13        -2.0022   -0.4285   -1.1697 H         1 <0>         0.0000
     26 H14        -3.1140   -0.2241    0.8709 H         1 <0>         0.0000
@<TRIPOS>BOND
     1    1    3 1
     2    1    8 am
     3    1   10 2
     4    2    7 1
     5    2    9 am
     6    2   11 2
     7    3   13 1
     8    3   14 1
     9    3   15 1
    10    4    7 1
    11    4   16 1
    12    4   17 1
    13    4   18 1
    14    5    9 1
    15    5   19 1
    16    5   20 1
    17    5   21 1
    18    6   12 1
    19    6   22 1
    20    6   23 1
    21    6   24 1
    22    7    8 1
    23    7   25 1
    24    8   26 1
    25    9   12 1
