@<TRIPOS>MOLECULE
*****
   26    27     0     0     0
SMALL
NO_CHARGES

@<TRIPOS>ATOM
      1 C1          2.5739   -3.7576    2.9639 C.ar      1 <0>         0.0000
      2 C2          2.0136   -4.6473    2.0374 C.ar      1 <0>         0.0000
      3 C3          1.9768   -2.5111    3.1592 C.ar      1 <0>         0.0000
      4 C4          0.8727   -4.2929    1.3191 C.ar      1 <0>         0.0000
      5 C5          0.8307   -2.1379    2.4448 C.ar      1 <0>         0.0000
      6 C6          0.2804   -3.0383    1.5236 C.ar      1 <0>         0.0000
      7 C7          0.9519    1.5850   -0.3931 C.2       1 <0>         0.0000
      8 C8          1.0070    0.3671   -0.9465 C.2       1 <0>         0.0000
      9 C9         -0.7844   -0.3396    0.4492 C.2       1 <0>         0.0000
     10 C10        -0.2510    1.9514    0.4477 C.3       1 <0>         0.0000
     11 C11        -1.5336   -1.5516    0.9710 C.3       1 <0>         0.0000
     12 N1         -0.8923    0.7762    1.0640 N.2       1 <0>         0.0000
     13 N2         -0.0310   -0.5562   -0.7035 N.pl3     1 <0>         0.0000
     14 O1         -0.8386   -2.7821    0.7561 O.3       1 <0>         0.0000
     15 H1          3.4630   -4.0347    3.5234 H         1 <0>         0.0000
     16 H2          2.4651   -5.6227    1.8751 H         1 <0>         0.0000
     17 H3          2.4030   -1.8094    3.8714 H         1 <0>         0.0000
     18 H4          0.4218   -4.9731    0.6019 H         1 <0>         0.0000
     19 H5          0.3985   -1.1568    2.6045 H         1 <0>         0.0000
     20 H6          1.7650    2.2903   -0.5324 H         1 <0>         0.0000
     21 H7          1.8263    0.0118   -1.5627 H         1 <0>         0.0000
     22 H8          0.0295    2.6434    1.2492 H         1 <0>         0.0000
     23 H9         -1.0061    2.4788   -0.1574 H         1 <0>         0.0000
     24 H10        -2.4695   -1.6653    0.4173 H         1 <0>         0.0000
     25 H11        -1.7681   -1.3917    2.0264 H         1 <0>         0.0000
     26 H12         0.1534   -1.5302   -0.9155 H         1 <0>         0.0000
@<TRIPOS>BOND
     1    1    3 ar
     2    1    2 ar
     3    1   15 1
     4    2    4 ar
     5    2   16 1
     6    3    5 ar
     7    3   17 1
     8    4    6 ar
     9    4   18 1
    10    5    6 ar
    11    5   19 1
    12    6   14 1
    13    7    8 2
    14    7   10 1
    15    7   20 1
    16    8   13 1
    17    8   21 1
    18    9   11 1
    19    9   12 2
    20    9   13 1
    21   10   12 1
    22   10   22 1
    23   10   23 1
    24   11   14 1
    25   11   24 1
    26   11   25 1
    27   13   26 1
