@<TRIPOS>MOLECULE
*****
   26    25     0     0     0
SMALL
NO_CHARGES

@<TRIPOS>ATOM
      1 C1         -2.1507   -0.4289    1.8635 C.2       1 <0>         0.0000
      2 C2          0.1821    1.3026   -0.1300 C.2       1 <0>         0.0000
      3 C3         -2.5844   -0.2585    3.3090 C.3       1 <0>         0.0000
      4 C4         -2.1468    1.5326   -1.0777 C.3       1 <0>         0.0000
      5 C5          2.5094    0.9298    0.6099 C.3       1 <0>         0.0000
      6 C6          0.9846   -1.8975    0.2611 C.3       1 <0>         0.0000
      7 C7         -1.2471    0.7310   -0.1378 C.3       1 <0>         0.0000
      8 N1         -1.7621    0.7209    1.2280 N.am      1 <0>         0.0000
      9 N2          1.1879    0.4366    0.2459 N.am      1 <0>         0.0000
     10 O1         -2.1430   -1.5304    1.3147 O.2       1 <0>         0.0000
     11 O2          0.4294    2.4592   -0.4663 O.2       1 <0>         0.0000
     12 O3          0.7905   -0.6832    1.0020 O.3       1 <0>         0.0000
     13 H1         -3.5133   -0.8108    3.4664 H         1 <0>         0.0000
     14 H2         -1.8197   -0.7024    3.9536 H         1 <0>         0.0000
     15 H3         -2.7285    0.7849    3.6043 H         1 <0>         0.0000
     16 H4         -2.1938    2.5826   -0.7778 H         1 <0>         0.0000
     17 H5         -3.1535    1.1061   -1.0636 H         1 <0>         0.0000
     18 H6         -1.7608    1.4988   -2.1006 H         1 <0>         0.0000
     19 H7          2.5338    1.2487    1.6587 H         1 <0>         0.0000
     20 H8          2.7443    1.7768   -0.0338 H         1 <0>         0.0000
     21 H9          3.2430    0.1350    0.4555 H         1 <0>         0.0000
     22 H10         0.6098   -2.6873    0.9129 H         1 <0>         0.0000
     23 H11         2.0467   -2.0546    0.0384 H         1 <0>         0.0000
     24 H12         0.4056   -1.8860   -0.6673 H         1 <0>         0.0000
     25 H13        -1.2293   -0.3157   -0.4408 H         1 <0>         0.0000
     26 H14        -1.8031    1.6005    1.7262 H         1 <0>         0.0000
@<TRIPOS>BOND
     1    1    3 1
     2    1    8 am
     3    1   10 2
     4    2    7 1
     5    2    9 am
     6    2   11 2
     7    3   13 1
     8    3   14 1
     9    3   15 1
    10    4    7 1
    11    4   16 1
    12    4   17 1
    13    4   18 1
    14    5    9 1
    15    5   19 1
    16    5   20 1
    17    5   21 1
    18    6   12 1
    19    6   22 1
    20    6   23 1
    21    6   24 1
    22    7    8 1
    23    7   25 1
    24    8   26 1
    25    9   12 1
