@<TRIPOS>MOLECULE
*****
   27    28     0     0     0
SMALL
NO_CHARGES

@<TRIPOS>ATOM
      1 C1          0.0867    0.3686    1.8540 C.ar      1 <0>         0.0000
      2 C2         -0.0061   -5.6288    4.5189 C.ar      1 <0>         0.0000
      3 C3          0.4937   -0.4944    0.8318 C.ar      1 <0>         0.0000
      4 C4          1.2539   -6.0647    4.9431 C.ar      1 <0>         0.0000
      5 C5          0.0931   -0.0657    3.1777 C.ar      1 <0>         0.0000
      6 C6         -0.2489   -4.2597    4.4423 C.ar      1 <0>         0.0000
      7 C7          0.8931   -1.7796    1.1968 C.ar      1 <0>         0.0000
      8 C8          2.2110   -5.1030    5.2709 C.ar      1 <0>         0.0000
      9 C9          0.5209   -1.3828    3.4330 C.ar      1 <0>         0.0000
     10 C10         0.7853   -3.3841    4.7883 C.ar      1 <0>         0.0000
     11 C11         0.4953   -1.2323    5.9287 C.2       1 <0>         0.0000
     12 C12         0.5438   -2.0378    7.2144 C.3       1 <0>         0.0000
     13 N1          0.9100   -2.2167    2.4608 N.ar      1 <0>         0.0000
     14 N2          1.9884   -3.7822    5.1938 N.ar      1 <0>         0.0000
     15 N3          0.5512   -1.9618    4.7352 N.am      1 <0>         0.0000
     16 O1          0.3969   -0.0107    5.9534 O.2       1 <0>         0.0000
     17 H1         -0.2381    1.3808    1.6269 H         1 <0>         0.0000
     18 H2         -0.7832   -6.3418    4.2565 H         1 <0>         0.0000
     19 H3          0.5022   -0.1856   -0.2092 H         1 <0>         0.0000
     20 H4          1.4909   -7.1218    5.0197 H         1 <0>         0.0000
     21 H5         -0.2048    0.5833    3.9867 H         1 <0>         0.0000
     22 H6         -1.2054   -3.8654    4.1147 H         1 <0>         0.0000
     23 H7          1.2197   -2.4961    0.4444 H         1 <0>         0.0000
     24 H8          3.2025   -5.4000    5.6082 H         1 <0>         0.0000
     25 H9          1.5589   -2.4026    7.3899 H         1 <0>         0.0000
     26 H10        -0.1183   -2.9073    7.1872 H         1 <0>         0.0000
     27 H11         0.2508   -1.3715    8.0259 H         1 <0>         0.0000
@<TRIPOS>BOND
     1    1    3 ar
     2    1    5 ar
     3    1   17 1
     4    2    4 ar
     5    2    6 ar
     6    2   18 1
     7    3    7 ar
     8    3   19 1
     9    4    8 ar
    10    4   20 1
    11    5    9 ar
    12    5   21 1
    13    6   10 ar
    14    6   22 1
    15    7   13 ar
    16    7   23 1
    17    8   14 ar
    18    8   24 1
    19    9   13 ar
    20    9   15 1
    21   10   14 ar
    22   10   15 1
    23   11   12 1
    24   11   15 am
    25   11   16 2
    26   12   25 1
    27   12   26 1
    28   12   27 1
