@<TRIPOS>MOLECULE
*****
   30    30     0     0     0
SMALL
NO_CHARGES

@<TRIPOS>ATOM
      1 C1          5.3944   -1.9616   -1.7011 C.ar      1 <0>         0.0000
      2 C2          5.6226   -2.3864   -0.3871 C.ar      1 <0>         0.0000
      3 C3          4.4539   -0.9571   -1.9495 C.ar      1 <0>         0.0000
      4 C4          4.9116   -1.8106    0.6684 C.ar      1 <0>         0.0000
      5 C5          3.7472   -0.3768   -0.8911 C.ar      1 <0>         0.0000
      6 C6          3.9711   -0.7994    0.4255 C.ar      1 <0>         0.0000
      7 C7          3.5304    0.7921    4.7160 C.2       1 <0>         0.0000
      8 C8          2.5549    1.2480    5.7878 C.3       1 <0>         0.0000
      9 C9          4.4852    2.0885    1.4178 C.3       1 <0>         0.0000
     10 C10         3.2461   -0.1657    1.5974 C.3       1 <0>         0.0000
     11 C11         4.0976    0.9032    2.3085 C.3       1 <0>         0.0000
     12 N1          3.3894    1.4048    3.4876 N.am      1 <0>         0.0000
     13 O1          4.3982   -0.0472    4.9429 O.2       1 <0>         0.0000
     14 O2          5.3303    3.0015    2.1124 O.3       1 <0>         0.0000
     15 O3          2.0179    0.4776    1.2232 O.3       1 <0>         0.0000
     16 H1          5.9443   -2.4113   -2.5237 H         1 <0>         0.0000
     17 H2          6.3500   -3.1685   -0.1859 H         1 <0>         0.0000
     18 H3          4.2726   -0.6218   -2.9676 H         1 <0>         0.0000
     19 H4          5.0887   -2.1464    1.6884 H         1 <0>         0.0000
     20 H5          3.0254    0.4123   -1.0814 H         1 <0>         0.0000
     21 H6          1.9438    0.3934    6.0925 H         1 <0>         0.0000
     22 H7          3.1232    1.5720    6.6633 H         1 <0>         0.0000
     23 H8          1.8984    2.0608    5.4655 H         1 <0>         0.0000
     24 H9          3.5812    2.5909    1.0448 H         1 <0>         0.0000
     25 H10         5.0536    1.7337    0.5566 H         1 <0>         0.0000
     26 H11         3.0403   -0.9441    2.3448 H         1 <0>         0.0000
     27 H12         5.0075    0.4250    2.6744 H         1 <0>         0.0000
     28 H13         2.4923    1.8381    3.2948 H         1 <0>         0.0000
     29 H14         4.9258    3.1519    2.9836 H         1 <0>         0.0000
     30 H15         1.4255   -0.1978    0.8571 H         1 <0>         0.0000
@<TRIPOS>BOND
     1    1    3 ar
     2    1    2 ar
     3    1   16 1
     4    2    4 ar
     5    2   17 1
     6    3    5 ar
     7    3   18 1
     8    4    6 ar
     9    4   19 1
    10    5    6 ar
    11    5   20 1
    12    6   10 1
    13    7    8 1
    14    7   12 am
    15    7   13 2
    16    8   21 1
    17    8   22 1
    18    8   23 1
    19    9   11 1
    20    9   14 1
    21    9   24 1
    22    9   25 1
    23   10   11 1
    24   10   15 1
    25   10   26 1
    26   11   12 1
    27   11   27 1
    28   12   28 1
    29   14   29 1
    30   15   30 1
