@<TRIPOS>MOLECULE
*****
   21    22     0     0     0
SMALL
NO_CHARGES

@<TRIPOS>ATOM
      1 C1         -1.5248   -0.2833    0.6976 C.ar      1 <0>         0.0000
      2 C2         -0.1829   -0.5175    0.3115 C.ar      1 <0>         0.0000
      3 C3         -2.5176   -1.2246    0.4520 C.ar      1 <0>         0.0000
      4 C4          0.2069   -1.6855   -0.3390 C.ar      1 <0>         0.0000
      5 C5         -2.1380   -2.4059   -0.2034 C.ar      1 <0>         0.0000
      6 C6         -0.8037   -2.6243   -0.6024 C.ar      1 <0>         0.0000
      7 C7          0.1873   -4.6651   -1.8006 C.2       1 <0>         0.0000
      8 C8          2.2342   -4.5422   -3.1260 C.3       1 <0>         0.0000
      9 N1         -2.8932   -3.5150   -0.5580 N.2       1 <0>         0.0000
     10 N2         -2.1312   -4.3806   -1.1263 N.2       1 <0>         0.0000
     11 N3         -0.8423   -3.8773   -1.1815 N.am      1 <0>         0.0000
     12 N4          1.1563   -3.8930   -2.3822 N.am      1 <0>         0.0000
     13 O1          0.1786   -5.8782   -1.7656 O.2       1 <0>         0.0000
     14 H1         -1.7744    0.6450    1.2032 H         1 <0>         0.0000
     15 H2          0.5689    0.2339    0.5370 H         1 <0>         0.0000
     16 H3         -3.5483   -1.0678    0.7549 H         1 <0>         0.0000
     17 H4          1.2445   -1.8636   -0.6000 H         1 <0>         0.0000
     18 H5          3.0200   -3.8080   -3.3156 H         1 <0>         0.0000
     19 H6          1.8829   -4.9580   -4.0770 H         1 <0>         0.0000
     20 H7          2.6411   -5.3557   -2.5243 H         1 <0>         0.0000
     21 H8          0.8984   -2.9525   -2.6549 H         1 <0>         0.0000
@<TRIPOS>BOND
     1    1    2 ar
     2    1    3 ar
     3    1   14 1
     4    2    4 ar
     5    2   15 1
     6    3    5 ar
     7    3   16 1
     8    4    6 ar
     9    4   17 1
    10    5    6 ar
    11    5    9 1
    12    6   11 1
    13    7   11 am
    14    7   12 am
    15    7   13 2
    16    8   12 1
    17    8   18 1
    18    8   19 1
    19    8   20 1
    20    9   10 2
    21   10   11 1
    22   12   21 1
