@<TRIPOS>MOLECULE
*****
   27    28     0     0     0
SMALL
NO_CHARGES

@<TRIPOS>ATOM
      1 C1          1.9098   -1.4227   -0.0448 C.ar      1 <0>         0.0000
      2 C2          0.7421   -1.1670    0.6810 C.ar      1 <0>         0.0000
      3 C3          3.1588   -1.2417    0.5609 C.ar      1 <0>         0.0000
      4 C4          1.6683    1.0007    8.3299 C.ar      1 <0>         0.0000
      5 C5          0.4597    0.6177    8.9129 C.ar      1 <0>         0.0000
      6 C6          0.8213   -0.7462    2.0111 C.ar      1 <0>         0.0000
      7 C7          3.2389   -0.8124    1.8858 C.ar      1 <0>         0.0000
      8 C8          1.9445    0.6998    6.9914 C.ar      1 <0>         0.0000
      9 C9         -0.4886   -0.0745    8.1496 C.ar      1 <0>         0.0000
     10 C10         2.0718   -0.5744    2.6269 C.ar      1 <0>         0.0000
     11 C11         1.0010    0.0082    6.2192 C.ar      1 <0>         0.0000
     12 C12        -0.2186   -0.3741    6.8177 C.ar      1 <0>         0.0000
     13 C13         2.2428   -0.1098    4.0467 C.2       1 <0>         0.0000
     14 N1          1.1624   -0.3417    4.8662 N.am      1 <0>         0.0000
     15 O1          3.2852    0.4241    4.4267 O.2       1 <0>         0.0000
     16 O2         -1.1083   -1.0519    6.0017 O.3       1 <0>         0.0000
     17 H1          1.8468   -1.7522   -1.0787 H         1 <0>         0.0000
     18 H2         -0.2299   -1.2860    0.2096 H         1 <0>         0.0000
     19 H3          4.0688   -1.4320   -0.0020 H         1 <0>         0.0000
     20 H4          2.4097    1.5372    8.9152 H         1 <0>         0.0000
     21 H5          0.2478    0.8508    9.9524 H         1 <0>         0.0000
     22 H6         -0.0992   -0.5192    2.5431 H         1 <0>         0.0000
     23 H7          4.1979   -0.6515    2.3680 H         1 <0>         0.0000
     24 H8          2.8808    0.9891    6.5349 H         1 <0>         0.0000
     25 H9         -1.4366   -0.3788    8.5905 H         1 <0>         0.0000
     26 H10         0.3966   -0.8825    4.4859 H         1 <0>         0.0000
     27 H11        -1.9001   -1.2816    6.5123 H         1 <0>         0.0000
@<TRIPOS>BOND
     1    1    3 ar
     2    1    2 ar
     3    1   17 1
     4    2    6 ar
     5    2   18 1
     6    3    7 ar
     7    3   19 1
     8    4    5 ar
     9    4    8 ar
    10    4   20 1
    11    5    9 ar
    12    5   21 1
    13    6   10 ar
    14    6   22 1
    15    7   10 ar
    16    7   23 1
    17    8   11 ar
    18    8   24 1
    19    9   12 ar
    20    9   25 1
    21   10   13 1
    22   11   12 ar
    23   11   14 1
    24   12   16 1
    25   13   14 am
    26   13   15 2
    27   14   26 1
    28   16   27 1
