@<TRIPOS>MOLECULE
*****
   27    28     0     0     0
SMALL
NO_CHARGES

@<TRIPOS>ATOM
      1 C1          1.8099   -0.8230    1.5223 C.ar      1 <0>         0.0000
      2 C2          1.7866   -5.6458    5.9728 C.ar      1 <0>         0.0000
      3 C3          0.5271   -0.4099    1.1466 C.ar      1 <0>         0.0000
      4 C4          1.5880   -6.2800    4.7425 C.ar      1 <0>         0.0000
      5 C5          1.9834   -1.4095    2.7733 C.ar      1 <0>         0.0000
      6 C6          1.6034   -4.2693    6.0861 C.ar      1 <0>         0.0000
      7 C7         -0.5214   -0.6058    2.0470 C.ar      1 <0>         0.0000
      8 C8          1.2097   -5.4830    3.6626 C.ar      1 <0>         0.0000
      9 C9          0.8610   -1.5637    3.5934 C.ar      1 <0>         0.0000
     10 C10         1.2155   -3.5628    4.9315 C.ar      1 <0>         0.0000
     11 C11         0.8547   -1.3491    6.0365 C.2       1 <0>         0.0000
     12 C12         0.6567    0.1355    5.7898 C.3       1 <0>         0.0000
     13 N1         -0.3649   -1.1761    3.2513 N.ar      1 <0>         0.0000
     14 N2          1.0254   -4.1610    3.7490 N.ar      1 <0>         0.0000
     15 N3          1.0195   -2.1512    4.9012 N.am      1 <0>         0.0000
     16 O1          0.8811   -1.8011    7.1756 O.2       1 <0>         0.0000
     17 H1          2.6569   -0.6875    0.8549 H         1 <0>         0.0000
     18 H2          2.0856   -6.2173    6.8478 H         1 <0>         0.0000
     19 H3          0.3414    0.0531    0.1819 H         1 <0>         0.0000
     20 H4          1.7205   -7.3510    4.6219 H         1 <0>         0.0000
     21 H5          2.9545   -1.7536    3.1145 H         1 <0>         0.0000
     22 H6          1.7388   -3.7569    7.0260 H         1 <0>         0.0000
     23 H7         -1.5340   -0.2960    1.7946 H         1 <0>         0.0000
     24 H8          1.0415   -5.9204    2.6795 H         1 <0>         0.0000
     25 H9         -0.3513    0.3212    5.4105 H         1 <0>         0.0000
     26 H10         1.3627    0.5344    5.0565 H         1 <0>         0.0000
     27 H11         0.7856    0.6433    6.7457 H         1 <0>         0.0000
@<TRIPOS>BOND
     1    1    3 ar
     2    1    5 ar
     3    1   17 1
     4    2    4 ar
     5    2    6 ar
     6    2   18 1
     7    3    7 ar
     8    3   19 1
     9    4    8 ar
    10    4   20 1
    11    5    9 ar
    12    5   21 1
    13    6   10 ar
    14    6   22 1
    15    7   13 ar
    16    7   23 1
    17    8   14 ar
    18    8   24 1
    19    9   13 ar
    20    9   15 1
    21   10   14 ar
    22   10   15 1
    23   11   12 1
    24   11   15 am
    25   11   16 2
    26   12   25 1
    27   12   26 1
    28   12   27 1
