@<TRIPOS>MOLECULE
*****
   35    35     0     0     0
SMALL
NO_CHARGES

@<TRIPOS>ATOM
      1 C1          2.8838   -1.6860   -5.4323 C.2       1 <0>         0.0000
      2 C2          2.9693   -1.3456    0.0177 C.3       1 <0>         0.0000
      3 C3          0.9687   -0.3890   -0.8929 C.3       1 <0>         0.0000
      4 C4          2.7807   -2.5737   -0.8674 C.3       1 <0>         0.0000
      5 C5          0.7809   -1.6185   -1.7754 C.3       1 <0>         0.0000
      6 C6          3.3427   -0.2759   -5.7745 C.3       1 <0>         0.0000
      7 C7          3.1027   -4.7640   -4.7920 C.3       1 <0>         0.0000
      8 C8          1.8305    0.4126    1.2167 C.3       1 <0>         0.0000
      9 C9          1.9554   -3.3385   -3.0285 C.3       1 <0>         0.0000
     10 C10         3.2451   -3.5761   -3.8348 C.3       1 <0>         0.0000
     11 N1          1.6791   -0.7386    0.3372 N.3       1 <0>         0.0000
     12 N2          2.0777   -2.2160   -2.0999 N.3       1 <0>         0.0000
     13 N3          3.6737   -2.3509   -4.5297 N.am      1 <0>         0.0000
     14 O1          1.8745   -2.1748   -5.9418 O.2       1 <0>         0.0000
     15 H1          3.4598   -1.6421    0.9517 H         1 <0>         0.0000
     16 H2          3.6372   -0.6284   -0.5001 H         1 <0>         0.0000
     17 H3          1.5141    0.3852   -1.4678 H         1 <0>         0.0000
     18 H4         -0.0119    0.0215   -0.6276 H         1 <0>         0.0000
     19 H5          3.7642   -2.9866   -1.1148 H         1 <0>         0.0000
     20 H6          2.2277   -3.3467   -0.3008 H         1 <0>         0.0000
     21 H7          0.1202   -2.3369   -1.2551 H         1 <0>         0.0000
     22 H8          0.2900   -1.3235   -2.7082 H         1 <0>         0.0000
     23 H9          3.1835   -0.1020   -6.8404 H         1 <0>         0.0000
     24 H10         2.7214    0.4366   -5.2219 H         1 <0>         0.0000
     25 H11         4.3919   -0.0887   -5.5280 H         1 <0>         0.0000
     26 H12         2.2872   -4.5990   -5.4979 H         1 <0>         0.0000
     27 H13         4.0277   -4.9083   -5.3580 H         1 <0>         0.0000
     28 H14         2.9013   -5.6779   -4.2227 H         1 <0>         0.0000
     29 H15         2.3211    0.1063    2.1466 H         1 <0>         0.0000
     30 H16         0.8448    0.8161    1.4704 H         1 <0>         0.0000
     31 H17         2.4290    1.2270    0.7642 H         1 <0>         0.0000
     32 H18         1.6811   -4.2753   -2.5095 H         1 <0>         0.0000
     33 H19         1.1571   -3.1160   -3.7397 H         1 <0>         0.0000
     34 H20         4.0613   -3.8039   -3.1408 H         1 <0>         0.0000
     35 H21         4.3015   -1.7607   -4.0002 H         1 <0>         0.0000
@<TRIPOS>BOND
     1    1    6 1
     2    1   13 am
     3    1   14 2
     4    2    4 1
     5    2   11 1
     6    2   15 1
     7    2   16 1
     8    3    5 1
     9    3   11 1
    10    3   17 1
    11    3   18 1
    12    4   12 1
    13    4   19 1
    14    4   20 1
    15    5   12 1
    16    5   21 1
    17    5   22 1
    18    6   23 1
    19    6   24 1
    20    6   25 1
    21    7   10 1
    22    7   26 1
    23    7   27 1
    24    7   28 1
    25    8   11 1
    26    8   29 1
    27    8   30 1
    28    8   31 1
    29    9   10 1
    30    9   12 1
    31    9   32 1
    32    9   33 1
    33   10   13 1
    34   10   34 1
    35   13   35 1
