@<TRIPOS>MOLECULE
*****
   30    30     0     0     0
SMALL
NO_CHARGES

@<TRIPOS>ATOM
      1 C1          5.7489   -2.2083   -1.3397 C.ar      1 <0>         0.0000
      2 C2          5.5682   -2.5869   -0.0051 C.ar      1 <0>         0.0000
      3 C3          5.0421   -1.1131   -1.8480 C.ar      1 <0>         0.0000
      4 C4          4.6960   -1.8656    0.8151 C.ar      1 <0>         0.0000
      5 C5          4.1705   -0.3930   -1.0250 C.ar      1 <0>         0.0000
      6 C6          3.9982   -0.7567    0.3180 C.ar      1 <0>         0.0000
      7 C7          3.7253    3.2038    0.4660 C.2       1 <0>         0.0000
      8 C8          4.3838    4.0270   -0.6228 C.3       1 <0>         0.0000
      9 C9          5.0340    0.7256    2.8509 C.3       1 <0>         0.0000
     10 C10         3.1202    0.0750    1.2335 C.3       1 <0>         0.0000
     11 C11         3.9123    1.2113    1.9292 C.3       1 <0>         0.0000
     12 N1          4.4729    2.1678    0.9715 N.am      1 <0>         0.0000
     13 O1          2.5954    3.4674    0.8843 O.2       1 <0>         0.0000
     14 O2          5.5550    1.7842    3.6482 O.3       1 <0>         0.0000
     15 O3          2.0329    0.6064    0.4829 O.3       1 <0>         0.0000
     16 H1          6.4228   -2.7706   -1.9809 H         1 <0>         0.0000
     17 H2          6.0992   -3.4473    0.3942 H         1 <0>         0.0000
     18 H3          5.1616   -0.8264   -2.8900 H         1 <0>         0.0000
     19 H4          4.5524   -2.1753    1.8483 H         1 <0>         0.0000
     20 H5          3.5899    0.4337   -1.4219 H         1 <0>         0.0000
     21 H6          3.7654    3.9729   -1.5229 H         1 <0>         0.0000
     22 H7          4.4073    5.0723   -0.3041 H         1 <0>         0.0000
     23 H8          5.3995    3.7018   -0.8628 H         1 <0>         0.0000
     24 H9          5.8301    0.2461    2.2636 H         1 <0>         0.0000
     25 H10         4.6426   -0.0185    3.5495 H         1 <0>         0.0000
     26 H11         2.7338   -0.5716    2.0359 H         1 <0>         0.0000
     27 H12         3.2056    1.7766    2.5433 H         1 <0>         0.0000
     28 H13         5.2434    1.8354    0.4014 H         1 <0>         0.0000
     29 H14         5.7485    2.5258    3.0506 H         1 <0>         0.0000
     30 H15         1.8346    1.5079    0.7978 H         1 <0>         0.0000
@<TRIPOS>BOND
     1    1    3 ar
     2    1    2 ar
     3    1   16 1
     4    2    4 ar
     5    2   17 1
     6    3    5 ar
     7    3   18 1
     8    4    6 ar
     9    4   19 1
    10    5    6 ar
    11    5   20 1
    12    6   10 1
    13    7    8 1
    14    7   12 am
    15    7   13 2
    16    8   21 1
    17    8   22 1
    18    8   23 1
    19    9   11 1
    20    9   14 1
    21    9   24 1
    22    9   25 1
    23   10   11 1
    24   10   15 1
    25   10   26 1
    26   11   12 1
    27   11   27 1
    28   12   28 1
    29   14   29 1
    30   15   30 1
