@<TRIPOS>MOLECULE
*****
   34    35     0     0     0
SMALL
NO_CHARGES

@<TRIPOS>ATOM
      1 C1         -0.5604   -3.4449   -0.8693 C.2       1 <0>         0.0000
      2 C2         -1.8877   -3.3754   -0.3563 C.2       1 <0>         0.0000
      3 C3          0.0522   -2.3278   -1.3682 C.2       1 <0>         0.0000
      4 C4         -2.5266   -2.1682   -0.3785 C.2       1 <0>         0.0000
      5 C5         -0.6049   -1.0382   -1.3948 C.2       1 <0>         0.0000
      6 C6         -3.1172    0.5644    0.5836 C.2       1 <0>         0.0000
      7 C7         -2.5125    1.1940    2.8623 C.3       1 <0>         0.0000
      8 C8         -0.7581    1.2242    1.1723 C.3       1 <0>         0.0000
      9 C9         -1.7100    0.1579    3.6514 C.3       1 <0>         0.0000
     10 C10         0.0254    0.1870    1.9776 C.3       1 <0>         0.0000
     11 C11         0.5054   -0.6325    4.1965 C.3       1 <0>         0.0000
     12 C12        -2.6751    0.2256   -0.8463 C.3       1 <0>         0.0000
     13 N1         -1.9218   -1.0403   -0.8696 N.am      1 <0>         0.0000
     14 N2         -2.1913    1.0829    1.4375 N.am      1 <0>         0.0000
     15 N3         -0.2747    0.3116    3.4051 N.3       1 <0>         0.0000
     16 O1         -0.0955    0.0108   -1.8148 O.2       1 <0>         0.0000
     17 O2         -4.2843    0.3243    0.9151 O.2       1 <0>         0.0000
     18 H1         -0.0309   -4.3949   -0.8638 H         1 <0>         0.0000
     19 H2         -2.3953   -4.2474    0.0393 H         1 <0>         0.0000
     20 H3          1.0616   -2.3499   -1.7650 H         1 <0>         0.0000
     21 H4         -3.5351   -2.0282   -0.0023 H         1 <0>         0.0000
     22 H5         -3.5830    1.0393    2.9888 H         1 <0>         0.0000
     23 H6         -2.2491    2.2025    3.2009 H         1 <0>         0.0000
     24 H7         -0.4539    2.2280    1.4910 H         1 <0>         0.0000
     25 H8         -0.5347    1.1248    0.1122 H         1 <0>         0.0000
     26 H9         -1.8992    0.2938    4.7218 H         1 <0>         0.0000
     27 H10        -2.0649   -0.8542    3.3745 H         1 <0>         0.0000
     28 H11        -0.2144   -0.8248    1.5964 H         1 <0>         0.0000
     29 H12         1.0972    0.3514    1.8247 H         1 <0>         0.0000
     30 H13         0.3001   -0.4803    5.2609 H         1 <0>         0.0000
     31 H14         1.5733   -0.4600    4.0285 H         1 <0>         0.0000
     32 H15         0.2840   -1.6882    3.9499 H         1 <0>         0.0000
     33 H16        -2.0458    0.9824   -1.3110 H         1 <0>         0.0000
     34 H17        -3.5894    0.1101   -1.4302 H         1 <0>         0.0000
@<TRIPOS>BOND
     1    1    3 2
     2    1    2 1
     3    1   18 1
     4    2    4 2
     5    2   19 1
     6    3    5 1
     7    3   20 1
     8    4   13 1
     9    4   21 1
    10    5   13 am
    11    5   16 2
    12    6   12 1
    13    6   14 am
    14    6   17 2
    15    7    9 1
    16    7   14 1
    17    7   22 1
    18    7   23 1
    19    8   10 1
    20    8   14 1
    21    8   24 1
    22    8   25 1
    23    9   15 1
    24    9   26 1
    25    9   27 1
    26   10   15 1
    27   10   28 1
    28   10   29 1
    29   11   15 1
    30   11   30 1
    31   11   31 1
    32   11   32 1
    33   12   13 1
    34   12   33 1
    35   12   34 1
