@<TRIPOS>MOLECULE
*****
   31    33     0     0     0
SMALL
NO_CHARGES

@<TRIPOS>ATOM
      1 C1         -5.9697    5.6379    4.1654 C.1       1 <0>         0.0000
      2 C2         -3.4021   -2.8929    1.7801 C.ar      1 <0>         0.0000
      3 C3         -3.8649   -3.6637    2.8425 C.ar      1 <0>         0.0000
      4 C4         -4.6339   -1.6697    4.0515 C.ar      1 <0>         0.0000
      5 C5         -3.5679    0.7236    1.4926 C.2       1 <0>         0.0000
      6 C6         -6.1170    5.4580    2.7644 C.2       1 <0>         0.0000
      7 C7         -4.1637   -0.8791    2.9875 C.ar      1 <0>         0.0000
      8 C8         -4.1658    0.5494    2.7367 C.2       1 <0>         0.0000
      9 C9         -3.5565   -1.5052    1.8678 C.ar      1 <0>         0.0000
     10 C10        -4.4709   -3.0452    3.9560 C.ar      1 <0>         0.0000
     11 C11        -5.7589    4.3879    1.9779 C.2       1 <0>         0.0000
     12 C12        -6.6449    5.9554    0.7366 C.2       1 <0>         0.0000
     13 C13        -4.6291    1.5510    3.6880 C.2       1 <0>         0.0000
     14 C14        -7.1092    6.5397   -0.5484 C.3       1 <0>         0.0000
     15 N1         -5.8579    5.8249    5.3112 N.1       1 <0>         0.0000
     16 N2         -6.6810    6.4418    1.9291 N.2       1 <0>         0.0000
     17 N3         -5.0580    2.7510    3.4836 N.2       1 <0>         0.0000
     18 N4         -3.2018   -0.5006    0.9804 N.pl3     1 <0>         0.0000
     19 N5         -5.1238    3.1862    2.1774 N.pl3     1 <0>         0.0000
     20 O1         -6.0812    4.6777    0.6868 O.3       1 <0>         0.0000
     21 Br1        -5.1005   -4.1612    5.3848 Br        1 <0>         0.0000
     22 H1         -2.9382   -3.3643    0.9179 H         1 <0>         0.0000
     23 H2         -3.7636   -4.7433    2.8168 H         1 <0>         0.0000
     24 H3         -5.1157   -1.2275    4.9173 H         1 <0>         0.0000
     25 H4         -3.3065    1.6336    0.9702 H         1 <0>         0.0000
     26 H5         -4.6342    1.2648    4.7380 H         1 <0>         0.0000
     27 H6         -6.2844    6.6238   -1.2636 H         1 <0>         0.0000
     28 H7         -7.8882    5.9191   -1.0036 H         1 <0>         0.0000
     29 H8         -7.5143    7.5327   -0.3517 H         1 <0>         0.0000
     30 H9         -2.7331   -0.6393    0.0958 H         1 <0>         0.0000
     31 H10        -5.2788    2.4881    1.4462 H         1 <0>         0.0000
@<TRIPOS>BOND
     1    1    6 1
     2    1   15 3
     3    2    3 ar
     4    2    9 ar
     5    2   22 1
     6    3   10 ar
     7    3   23 1
     8    4    7 ar
     9    4   10 ar
    10    4   24 1
    11    5    8 2
    12    5   18 1
    13    5   25 1
    14    6   11 2
    15    6   16 1
    16    7    8 1
    17    7    9 ar
    18    8   13 1
    19    9   18 1
    20   10   21 1
    21   11   19 1
    22   11   20 1
    23   12   14 1
    24   12   16 2
    25   12   20 1
    26   13   17 2
    27   13   26 1
    28   14   27 1
    29   14   28 1
    30   14   29 1
    31   17   19 1
    32   18   30 1
    33   19   31 1
