@<TRIPOS>MOLECULE
*****
   26    28     0     0     0
SMALL
NO_CHARGES

@<TRIPOS>ATOM
      1 C1          3.9777   -0.3349    6.7198 C.1       1 <0>         0.0000
      2 C2          2.2907   -2.6743    9.0653 C.ar      1 <0>         0.0000
      3 C3          1.2733   -3.2076    8.2674 C.ar      1 <0>         0.0000
      4 C4          2.0193   -0.2647    0.6318 C.ar      1 <0>         0.0000
      5 C5          0.6247   -0.4748    0.7282 C.ar      1 <0>         0.0000
      6 C6          3.1767   -1.7453    8.5223 C.ar      1 <0>         0.0000
      7 C7          1.1520   -2.8137    6.9348 C.ar      1 <0>         0.0000
      8 C8          2.8617   -0.4638    1.7232 C.ar      1 <0>         0.0000
      9 C9          0.0285   -0.8944    1.9180 C.ar      1 <0>         0.0000
     10 C10         3.0571   -1.3391    7.1820 C.ar      1 <0>         0.0000
     11 C11         2.0341   -1.8796    6.3667 C.ar      1 <0>         0.0000
     12 C12         2.2818   -0.8798    2.9315 C.ar      1 <0>         0.0000
     13 C13         0.8805   -1.0951    3.0084 C.ar      1 <0>         0.0000
     14 C14         1.8909   -1.4943    4.9606 C.2       1 <0>         0.0000
     15 N1          4.7499    0.5019    6.4742 N.1       1 <0>         0.0000
     16 N2          2.8731   -1.1387    4.1593 N.2       1 <0>         0.0000
     17 N3          0.6597   -1.5092    4.3141 N.pl3     1 <0>         0.0000
     18 H1          2.3937   -2.9802   10.1023 H         1 <0>         0.0000
     19 H2          0.5837   -3.9397    8.6781 H         1 <0>         0.0000
     20 H3          2.4384    0.0617   -0.3160 H         1 <0>         0.0000
     21 H4          0.0016   -0.3065   -0.1460 H         1 <0>         0.0000
     22 H5          3.9662   -1.3154    9.1307 H         1 <0>         0.0000
     23 H6          0.3856   -3.2690    6.3138 H         1 <0>         0.0000
     24 H7          3.9330   -0.2993    1.6578 H         1 <0>         0.0000
     25 H8         -1.0441   -1.0570    1.9835 H         1 <0>         0.0000
     26 H9         -0.2412   -1.6004    4.7637 H         1 <0>         0.0000
@<TRIPOS>BOND
     1    1   10 1
     2    1   15 3
     3    2    3 ar
     4    2    6 ar
     5    2   18 1
     6    3    7 ar
     7    3   19 1
     8    4    5 ar
     9    4    8 ar
    10    4   20 1
    11    5    9 ar
    12    5   21 1
    13    6   10 ar
    14    6   22 1
    15    7   11 ar
    16    7   23 1
    17    8   12 ar
    18    8   24 1
    19    9   13 ar
    20    9   25 1
    21   10   11 ar
    22   11   14 1
    23   12   13 ar
    24   12   16 1
    25   13   17 1
    26   14   16 2
    27   14   17 1
    28   17   26 1
