@<TRIPOS>MOLECULE
*****
   20    21     0     0     0
SMALL
NO_CHARGES

@<TRIPOS>ATOM
      1 C1          1.8923   -0.5373    0.0650 C.ar      1 <0>         0.0000
      2 C2          0.7614   -0.4033    0.8805 C.ar      1 <0>         0.0000
      3 C3          3.0412   -1.1453    0.5674 C.ar      1 <0>         0.0000
      4 C4          0.7818   -0.8712    2.1964 C.ar      1 <0>         0.0000
      5 C5          4.8856   -5.3121    4.3212 C.2       1 <0>         0.0000
      6 C6          3.6975   -5.8326    3.8612 C.2       1 <0>         0.0000
      7 C7          3.0765   -1.6546    1.8766 C.ar      1 <0>         0.0000
      8 C8          1.9358   -1.4876    2.6682 C.ar      1 <0>         0.0000
      9 C9          4.2611   -3.5947    3.0814 C.2       1 <0>         0.0000
     10 C10         4.3475   -2.2874    2.3646 C.2       1 <0>         0.0000
     11 N1          5.1980   -4.0606    3.8688 N.2       1 <0>         0.0000
     12 O1          5.4315   -1.7815    2.1174 O.2       1 <0>         0.0000
     13 F1          1.9557   -1.8990    3.9609 F         1 <0>         0.0000
     14 S1          2.9158   -4.7002    2.8278 S.3       1 <0>         0.0000
     15 H1          1.8773   -0.1638   -0.9547 H         1 <0>         0.0000
     16 H2         -0.1353    0.0759    0.4972 H         1 <0>         0.0000
     17 H3          3.9335   -1.2423   -0.0439 H         1 <0>         0.0000
     18 H4         -0.0694   -0.7563    2.8603 H         1 <0>         0.0000
     19 H5          5.5646   -5.8220    4.9963 H         1 <0>         0.0000
     20 H6          3.2626   -6.8015    4.0711 H         1 <0>         0.0000
@<TRIPOS>BOND
     1    1    2 ar
     2    1    3 ar
     3    1   15 1
     4    2    4 ar
     5    2   16 1
     6    3    7 ar
     7    3   17 1
     8    4    8 ar
     9    4   18 1
    10    5    6 2
    11    5   11 1
    12    5   19 1
    13    6   14 1
    14    6   20 1
    15    7    8 ar
    16    7   10 1
    17    8   13 1
    18    9   10 1
    19    9   11 2
    20    9   14 1
    21   10   12 2
