@<TRIPOS>MOLECULE
*****
   27    28     0     0     0
SMALL
NO_CHARGES

@<TRIPOS>ATOM
      1 C1          1.0747    2.8611    1.8826 C.1       1 <0>         0.0000
      2 C2          1.2634    1.6810    1.6736 C.1       1 <0>         0.0000
      3 C3          0.9489   -1.7622    0.2602 C.ar      1 <0>         0.0000
      4 C4          0.7104   -0.4073    0.4811 C.ar      1 <0>         0.0000
      5 C5          1.9445   -2.4532    0.9564 C.ar      1 <0>         0.0000
      6 C6          6.2654   -4.9492    3.2120 C.ar      1 <0>         0.0000
      7 C7          2.4883   -0.3977    2.1317 C.ar      1 <0>         0.0000
      8 C8          5.4120   -3.3895    4.8315 C.ar      1 <0>         0.0000
      9 C9          7.2690   -5.2651    4.1240 C.ar      1 <0>         0.0000
     10 C10         1.4871    0.2879    1.4273 C.ar      1 <0>         0.0000
     11 C11         5.3206   -3.9771    3.5667 C.ar      1 <0>         0.0000
     12 C12         2.7197   -1.7610    1.9016 C.ar      1 <0>         0.0000
     13 C13         6.4610   -3.8005    5.6637 C.ar      1 <0>         0.0000
     14 C14         4.2311   -3.6518    2.5756 C.2       1 <0>         0.0000
     15 N1          7.3727   -4.6987    5.3392 N.ar      1 <0>         0.0000
     16 N2          3.7405   -2.3714    2.6661 N.am      1 <0>         0.0000
     17 O1          3.8504   -4.4901    1.7632 O.2       1 <0>         0.0000
     18 Cl1         6.5836   -3.0810    7.2640 Cl        1 <0>         0.0000
     19 H1          0.9054    3.9015    2.0640 H         1 <0>         0.0000
     20 H2          0.3508   -2.3000   -0.4703 H         1 <0>         0.0000
     21 H3         -0.0648    0.1202   -0.0656 H         1 <0>         0.0000
     22 H4          2.1266   -3.5028    0.7742 H         1 <0>         0.0000
     23 H5          6.2014   -5.4402    2.2471 H         1 <0>         0.0000
     24 H6          3.0840    0.1454    2.8618 H         1 <0>         0.0000
     25 H7          4.6856   -2.6718    5.1982 H         1 <0>         0.0000
     26 H8          8.0278   -6.0056    3.8810 H         1 <0>         0.0000
     27 H9          4.2269   -1.7495    3.2990 H         1 <0>         0.0000
@<TRIPOS>BOND
     1    1    2 3
     2    1   19 1
     3    2   10 1
     4    3    4 ar
     5    3    5 ar
     6    3   20 1
     7    4   10 ar
     8    4   21 1
     9    5   12 ar
    10    5   22 1
    11    6    9 ar
    12    6   11 ar
    13    6   23 1
    14    7   10 ar
    15    7   12 ar
    16    7   24 1
    17    8   11 ar
    18    8   13 ar
    19    8   25 1
    20    9   15 ar
    21    9   26 1
    22   11   14 1
    23   12   16 1
    24   13   15 ar
    25   13   18 1
    26   14   16 am
    27   14   17 2
    28   16   27 1
