@<TRIPOS>MOLECULE
*****
   23    24     0     0     0
SMALL
NO_CHARGES

@<TRIPOS>ATOM
      1 C1         -1.0090   -0.9757   -4.4535 C.2       1 <0>         0.0000
      2 C2         -1.9129   -1.6365   -3.5709 C.2       1 <0>         0.0000
      3 C3          0.1973   -0.6912   -3.8624 C.2       1 <0>         0.0000
      4 C4         -7.8169   -1.5213   -0.8018 C.2       1 <0>         0.0000
      5 C5         -1.3831   -1.8552   -2.3080 C.2       1 <0>         0.0000
      6 C6         -7.3082   -2.5073   -0.0047 C.2       1 <0>         0.0000
      7 C7         -5.4410   -1.9957   -1.0761 C.2       1 <0>         0.0000
      8 C8         -1.9413   -2.5255   -1.1362 C.2       1 <0>         0.0000
      9 C9         -8.0780   -3.3060    1.0050 C.3       1 <0>         0.0000
     10 N1         -5.9558   -2.7722   -0.1721 N.2       1 <0>         0.0000
     11 N2         -3.1776   -2.6282   -0.7690 N.2       1 <0>         0.0000
     12 N3         -4.1305   -2.0235   -1.5301 N.pl3     1 <0>         0.0000
     13 S1          0.2508   -1.2311   -2.2215 S.3       1 <0>         0.0000
     14 S2         -6.5645   -0.8550   -1.8253 S.3       1 <0>         0.0000
     15 H1         -1.2406   -0.7298   -5.4845 H         1 <0>         0.0000
     16 H2         -2.8847   -2.0048   -3.8813 H         1 <0>         0.0000
     17 H3          1.0536   -0.1913   -4.2971 H         1 <0>         0.0000
     18 H4         -8.8304   -1.1472   -0.8559 H         1 <0>         0.0000
     19 H5         -1.2403   -2.9994   -0.4518 H         1 <0>         0.0000
     20 H6         -8.0273   -4.3732    0.7650 H         1 <0>         0.0000
     21 H7         -7.6459   -3.1753    2.0027 H         1 <0>         0.0000
     22 H8         -9.1272   -3.0016    1.0341 H         1 <0>         0.0000
     23 H9         -3.8457   -1.2609   -2.1443 H         1 <0>         0.0000
@<TRIPOS>BOND
     1    1    2 1
     2    1    3 2
     3    1   15 1
     4    2    5 2
     5    2   16 1
     6    3   13 1
     7    3   17 1
     8    4    6 2
     9    4   14 1
    10    4   18 1
    11    5    8 1
    12    5   13 1
    13    6    9 1
    14    6   10 1
    15    7   10 2
    16    7   12 1
    17    7   14 1
    18    8   11 2
    19    8   19 1
    20    9   20 1
    21    9   21 1
    22    9   22 1
    23   11   12 1
    24   12   23 1
