@<TRIPOS>MOLECULE
*****
   51    54     0     0     0
SMALL
NO_CHARGES

@<TRIPOS>ATOM
      1 C1         -2.1471    2.1832   -2.8001 C.1       1 <0>         0.0000
      2 C2         -3.9616   -0.5212   -4.5488 C.ar      1 <0>         0.0000
      3 C3         -2.4843    0.8714   -3.2537 C.ar      1 <0>         0.0000
      4 C4         -3.6802    0.7237   -3.9899 C.ar      1 <0>         0.0000
      5 C5         -3.0392   -1.5666   -4.3949 C.ar      1 <0>         0.0000
      6 C6         -1.6334   -0.2705   -3.0772 C.ar      1 <0>         0.0000
      7 C7          0.0400   -0.5647    0.7945 C.2       1 <0>         0.0000
      8 C8          1.2727    2.0508    1.0940 C.3       1 <0>         0.0000
      9 C9         -2.7225    1.2494    3.6518 C.3       1 <0>         0.0000
     10 C10        -3.1244   -0.0888    4.2402 C.3       1 <0>         0.0000
     11 C11         1.9038    1.0399    0.1405 C.3       1 <0>         0.0000
     12 C12         1.4427   -1.0587   -1.2496 C.3       1 <0>         0.0000
     13 C13         0.7253    1.3299    2.3198 C.3       1 <0>         0.0000
     14 C14         0.3235   -1.4781   -2.2033 C.3       1 <0>         0.0000
     15 C15        -0.1695    0.7421   -1.3148 C.3       1 <0>         0.0000
     16 C16        -2.2698   -0.0379    2.9956 C.3       1 <0>         0.0000
     17 C17         0.8451    0.0523   -0.3601 C.3       1 <0>         0.0000
     18 C18        -4.6075    1.8950   -4.1867 C.3       1 <0>         0.0000
     19 C19        -3.2716   -2.9152   -5.0277 C.3       1 <0>         0.0000
     20 C20        -0.8231   -0.4790    3.0604 C.3       1 <0>         0.0000
     21 N1         -1.9109    3.2816   -2.4791 N.1       1 <0>         0.0000
     22 N2         -1.9172   -1.4425   -3.6821 N.ar      1 <0>         0.0000
     23 N3         -0.4967   -0.2601   -2.3282 N.pl3     1 <0>         0.0000
     24 N4         -0.0081    0.1042    1.9862 N.am      1 <0>         0.0000
     25 O1         -0.5902   -1.6159    0.6252 O.2       1 <0>         0.0000
     26 H1         -4.8708   -0.6732   -5.1220 H         1 <0>         0.0000
     27 H2          2.0035    2.7970    1.4222 H         1 <0>         0.0000
     28 H3          0.4681    2.5929    0.5850 H         1 <0>         0.0000
     29 H4         -3.4820    1.8431    3.1515 H         1 <0>         0.0000
     30 H5         -1.9885    1.8338    4.2005 H         1 <0>         0.0000
     31 H6         -2.6500   -0.3918    5.1703 H         1 <0>         0.0000
     32 H7         -4.1571   -0.4090    4.1406 H         1 <0>         0.0000
     33 H8          2.3652    1.5429   -0.7165 H         1 <0>         0.0000
     34 H9          2.7021    0.4906    0.6571 H         1 <0>         0.0000
     35 H10         1.8113   -1.9028   -0.6632 H         1 <0>         0.0000
     36 H11         2.2839   -0.6362   -1.8106 H         1 <0>         0.0000
     37 H12         1.5526    1.0696    2.9972 H         1 <0>         0.0000
     38 H13         0.0504    1.9893    2.8736 H         1 <0>         0.0000
     39 H14         0.6917   -1.7864   -3.1852 H         1 <0>         0.0000
     40 H15        -0.2750   -2.2893   -1.7861 H         1 <0>         0.0000
     41 H16        -1.0696    1.0684   -0.7882 H         1 <0>         0.0000
     42 H17         0.2882    1.6301   -1.7645 H         1 <0>         0.0000
     43 H18        -2.7603   -0.3058    2.0637 H         1 <0>         0.0000
     44 H19        -4.9167    2.3192   -3.2262 H         1 <0>         0.0000
     45 H20        -4.1091    2.6980   -4.7399 H         1 <0>         0.0000
     46 H21        -5.5006    1.5960   -4.7399 H         1 <0>         0.0000
     47 H22        -2.4205   -3.1820   -5.6622 H         1 <0>         0.0000
     48 H23        -3.3481   -3.6837   -4.2516 H         1 <0>         0.0000
     49 H24        -4.1830   -2.9310   -5.6305 H         1 <0>         0.0000
     50 H25        -0.7647   -1.5660    2.9767 H         1 <0>         0.0000
     51 H26        -0.3772   -0.1844    4.0172 H         1 <0>         0.0000
@<TRIPOS>BOND
     1    1    3 1
     2    1   21 3
     3    2    4 ar
     4    2    5 ar
     5    2   26 1
     6    3    4 ar
     7    3    6 ar
     8    4   18 1
     9    5   19 1
    10    5   22 ar
    11    6   22 ar
    12    6   23 1
    13    7   17 1
    14    7   24 am
    15    7   25 2
    16    8   11 1
    17    8   13 1
    18    8   27 1
    19    8   28 1
    20    9   10 1
    21    9   16 1
    22    9   29 1
    23    9   30 1
    24   10   16 1
    25   10   31 1
    26   10   32 1
    27   11   17 1
    28   11   33 1
    29   11   34 1
    30   12   14 1
    31   12   17 1
    32   12   35 1
    33   12   36 1
    34   13   24 1
    35   13   37 1
    36   13   38 1
    37   14   23 1
    38   14   39 1
    39   14   40 1
    40   15   17 1
    41   15   23 1
    42   15   41 1
    43   15   42 1
    44   16   20 1
    45   16   43 1
    46   18   44 1
    47   18   45 1
    48   18   46 1
    49   19   47 1
    50   19   48 1
    51   19   49 1
    52   20   24 1
    53   20   50 1
    54   20   51 1
