@<TRIPOS>MOLECULE
*****
   31    33     0     0     0
SMALL
NO_CHARGES

@<TRIPOS>ATOM
      1 C1          8.2196    3.6560   -1.7520 C.ar      1 <0>         0.0000
      2 C2          7.1201    4.4283   -2.1993 C.ar      1 <0>         0.0000
      3 C3          8.0152    2.5719   -0.9198 C.ar      1 <0>         0.0000
      4 C4         10.1395    0.0029    2.0423 C.ar      1 <0>         0.0000
      5 C5          5.8354    4.1074   -1.8101 C.ar      1 <0>         0.0000
      6 C6         11.5131    0.2023    1.9276 C.ar      1 <0>         0.0000
      7 C7         10.4339   -2.3222    1.4560 C.ar      1 <0>         0.0000
      8 C8          4.1601    1.6727    0.2066 C.ar      1 <0>         0.0000
      9 C9          6.7040    2.2209   -0.5058 C.ar      1 <0>         0.0000
     10 C10         9.5774   -1.2645    1.7962 C.ar      1 <0>         0.0000
     11 C11         5.5977    2.9992   -0.9561 C.ar      1 <0>         0.0000
     12 C12        12.3569   -0.8517    1.5619 C.ar      1 <0>         0.0000
     13 C13        11.8098   -2.1236    1.3302 C.ar      1 <0>         0.0000
     14 C14         6.3647    1.1165    0.3580 C.ar      1 <0>         0.0000
     15 C15         8.1265   -1.5369    1.9281 C.2       1 <0>         0.0000
     16 N1          4.3091    2.7109   -0.5891 N.ar      1 <0>         0.0000
     17 N2          5.1191    0.8544    0.7085 N.ar      1 <0>         0.0000
     18 N3          7.1295   -0.8216    1.5319 N.2       1 <0>         0.0000
     19 N4          7.3856    0.3293    0.8563 N.pl3     1 <0>         0.0000
     20 Cl1        14.0672   -0.5532    1.4193 Cl        1 <0>         0.0000
     21 Cl2        12.8170   -3.4764    0.8869 Cl        1 <0>         0.0000
     22 H1          9.2266    3.9168   -2.0656 H         1 <0>         0.0000
     23 H2          7.2936    5.2784   -2.8539 H         1 <0>         0.0000
     24 H3          8.8818    2.0015   -0.5948 H         1 <0>         0.0000
     25 H4          9.5118    0.8260    2.3701 H         1 <0>         0.0000
     26 H5          4.9764    4.6841   -2.1395 H         1 <0>         0.0000
     27 H6         11.9460    1.1767    2.1312 H         1 <0>         0.0000
     28 H7         10.0281   -3.3134    1.2762 H         1 <0>         0.0000
     29 H8          3.1432    1.4282    0.5104 H         1 <0>         0.0000
     30 H9          7.8398   -2.4750    2.4009 H         1 <0>         0.0000
     31 H10         8.3229    0.4912    0.5019 H         1 <0>         0.0000
@<TRIPOS>BOND
     1    1    2 ar
     2    1    3 ar
     3    1   22 1
     4    2    5 ar
     5    2   23 1
     6    3    9 ar
     7    3   24 1
     8    4    6 ar
     9    4   10 ar
    10    4   25 1
    11    5   11 ar
    12    5   26 1
    13    6   12 ar
    14    6   27 1
    15    7   10 ar
    16    7   13 ar
    17    7   28 1
    18    8   16 ar
    19    8   17 ar
    20    8   29 1
    21    9   11 ar
    22    9   14 ar
    23   10   15 1
    24   11   16 ar
    25   12   13 ar
    26   12   20 1
    27   13   21 1
    28   14   17 ar
    29   14   19 1
    30   15   18 2
    31   15   30 1
    32   18   19 1
    33   19   31 1
