@<TRIPOS>MOLECULE
*****
   37    39     0     0     0
SMALL
NO_CHARGES

@<TRIPOS>ATOM
      1 C1         -0.8315    4.8422    1.5566 C.1       1 <0>         0.0000
      2 C2          3.0652    2.4525    5.3067 C.ar      1 <0>         0.0000
      3 C3          2.4935    4.8116    5.1175 C.ar      1 <0>         0.0000
      4 C4          3.9618    2.7425    6.3389 C.ar      1 <0>         0.0000
      5 C5          3.3850    5.1087    6.1518 C.ar      1 <0>         0.0000
      6 C6          2.3427    3.4838    4.6825 C.ar      1 <0>         0.0000
      7 C7          4.0872    4.0666    6.7635 C.ar      1 <0>         0.0000
      8 C8         -0.2939    2.3746    1.5649 C.2       1 <0>         0.0000
      9 C9         -0.9188    0.5752    0.4914 C.2       1 <0>         0.0000
     10 C10        -0.0876    3.7301    2.0748 C.2       1 <0>         0.0000
     11 C11        -1.6301   -0.3362   -0.4524 C.3       1 <0>         0.0000
     12 C12        -3.1670   -0.2658   -0.3381 C.3       1 <0>         0.0000
     13 C13        -3.8006    0.9891   -0.9561 C.3       1 <0>         0.0000
     14 C14        -3.4019    2.3307   -0.3232 C.3       1 <0>         0.0000
     15 C15        -1.9151    2.6827   -0.4439 C.3       1 <0>         0.0000
     16 N1         -1.4553    5.7307    1.1292 N.1       1 <0>         0.0000
     17 N2          0.3020    1.3173    2.1173 N.2       1 <0>         0.0000
     18 N3         -0.0946    0.1904    1.4471 N.2       1 <0>         0.0000
     19 N4          0.7384    4.0564    3.0495 N.2       1 <0>         0.0000
     20 N5         -1.0777    1.9418    0.5113 N.pl3     1 <0>         0.0000
     21 N6          1.4571    3.1348    3.6532 N.pl3     1 <0>         0.0000
     22 I1          6.0330    4.6274    7.8776 I         1 <0>         0.0000
     23 H1          2.9355    1.4232    4.9803 H         1 <0>         0.0000
     24 H2          1.9206    5.5999    4.6421 H         1 <0>         0.0000
     25 H3          4.5309    1.9440    6.8029 H         1 <0>         0.0000
     26 H4          3.5103    6.1360    6.4775 H         1 <0>         0.0000
     27 H5         -1.3269   -0.1208   -1.4859 H         1 <0>         0.0000
     28 H6         -1.2795   -1.3446   -0.2205 H         1 <0>         0.0000
     29 H7         -3.5821   -1.1444   -0.8441 H         1 <0>         0.0000
     30 H8         -3.4502   -0.3511    0.7179 H         1 <0>         0.0000
     31 H9         -3.5541    1.0197   -2.0265 H         1 <0>         0.0000
     32 H10        -4.8908    0.8920   -0.8986 H         1 <0>         0.0000
     33 H11        -3.9632    3.1302   -0.8195 H         1 <0>         0.0000
     34 H12        -3.6866    2.3612    0.7352 H         1 <0>         0.0000
     35 H13        -1.5465    2.4608   -1.4516 H         1 <0>         0.0000
     36 H14        -1.7655    3.7441   -0.2747 H         1 <0>         0.0000
     37 H15         1.3401    2.1482    3.3639 H         1 <0>         0.0000
@<TRIPOS>BOND
     1    1   10 1
     2    1   16 3
     3    2    4 ar
     4    2    6 ar
     5    2   23 1
     6    3    5 ar
     7    3    6 ar
     8    3   24 1
     9    4    7 ar
    10    4   25 1
    11    5    7 ar
    12    5   26 1
    13    6   21 1
    14    7   22 1
    15    8   10 1
    16    8   17 2
    17    8   20 1
    18    9   11 1
    19    9   18 2
    20    9   20 1
    21   10   19 2
    22   11   12 1
    23   11   27 1
    24   11   28 1
    25   12   13 1
    26   12   29 1
    27   12   30 1
    28   13   14 1
    29   13   31 1
    30   13   32 1
    31   14   15 1
    32   14   33 1
    33   14   34 1
    34   15   20 1
    35   15   35 1
    36   15   36 1
    37   17   18 1
    38   19   21 1
    39   21   37 1
