@<TRIPOS>MOLECULE
*****
   20    21     0     0     0
SMALL
NO_CHARGES

@<TRIPOS>ATOM
      1 C1          1.6362   -1.7420   -0.1960 C.ar      1 <0>         0.0000
      2 C2          0.6092   -1.0151    0.4028 C.ar      1 <0>         0.0000
      3 C3          2.7746   -2.0924    0.5400 C.ar      1 <0>         0.0000
      4 C4         -0.4337    3.1685    4.4075 C.2       1 <0>         0.0000
      5 C5          0.8017    3.5206    3.9121 C.2       1 <0>         0.0000
      6 C6          0.7085   -0.6002    1.7409 C.ar      1 <0>         0.0000
      7 C7          2.8630   -1.7071    1.8712 C.ar      1 <0>         0.0000
      8 C8          1.8426   -0.9667    2.4689 C.ar      1 <0>         0.0000
      9 C9         -0.1254    1.4250    3.0884 C.2       1 <0>         0.0000
     10 C10        -0.4354    0.1713    2.3427 C.2       1 <0>         0.0000
     11 N1         -0.9494    1.9966    3.9314 N.2       1 <0>         0.0000
     12 O1         -1.5878   -0.1876    2.1617 O.2       1 <0>         0.0000
     13 F1          3.9358   -2.0536    2.6110 F         1 <0>         0.0000
     14 F2          1.9586   -0.6507    3.7745 F         1 <0>         0.0000
     15 S1          1.3612    2.3241    2.8104 S.3       1 <0>         0.0000
     16 H1          1.5550   -2.0444   -1.2355 H         1 <0>         0.0000
     17 H2         -0.2858   -0.7529   -0.1524 H         1 <0>         0.0000
     18 H3          3.5866   -2.6662    0.1036 H         1 <0>         0.0000
     19 H4         -1.0003    3.7495    5.1273 H         1 <0>         0.0000
     20 H5          1.3874    4.4037    4.1332 H         1 <0>         0.0000
@<TRIPOS>BOND
     1    1    2 ar
     2    1    3 ar
     3    1   16 1
     4    2    6 ar
     5    2   17 1
     6    3    7 ar
     7    3   18 1
     8    4    5 2
     9    4   11 1
    10    4   19 1
    11    5   15 1
    12    5   20 1
    13    6    8 ar
    14    6   10 1
    15    7    8 ar
    16    7   13 1
    17    8   14 1
    18    9   10 1
    19    9   11 2
    20    9   15 1
    21   10   12 2
