@<TRIPOS>MOLECULE
*****
   31    33     0     0     0
SMALL
NO_CHARGES

@<TRIPOS>ATOM
      1 C1          7.6311    5.0282   -2.2689 C.ar      1 <0>         0.0000
      2 C2          7.1240    6.2852   -1.8583 C.ar      1 <0>         0.0000
      3 C3          7.2786    3.8793   -1.5868 C.ar      1 <0>         0.0000
      4 C4          8.6235   -1.8831   -0.5257 C.ar      1 <0>         0.0000
      5 C5          6.2691    6.3759   -0.7784 C.ar      1 <0>         0.0000
      6 C6          9.4597   -2.2267   -1.5836 C.ar      1 <0>         0.0000
      7 C7          7.3181   -0.4909   -2.0057 C.ar      1 <0>         0.0000
      8 C8          4.7070    4.2161    1.6089 C.ar      1 <0>         0.0000
      9 C9          6.4074    3.9473   -0.4686 C.ar      1 <0>         0.0000
     10 C10         7.5506   -0.9943   -0.7143 C.ar      1 <0>         0.0000
     11 C11         5.8886    5.2114   -0.0623 C.ar      1 <0>         0.0000
     12 C12         9.2377   -1.7014   -2.8617 C.ar      1 <0>         0.0000
     13 C13         8.1530   -0.8364   -3.0705 C.ar      1 <0>         0.0000
     14 C14         5.9707    2.8236    0.3230 C.ar      1 <0>         0.0000
     15 C15         6.6858   -0.6542    0.4387 C.2       1 <0>         0.0000
     16 N1          5.0269    5.3365    0.9964 N.ar      1 <0>         0.0000
     17 N2          5.1313    2.9569    1.3326 N.ar      1 <0>         0.0000
     18 N3          6.1644    0.4808    0.7609 N.2       1 <0>         0.0000
     19 N4          6.4312    1.5635   -0.0147 N.pl3     1 <0>         0.0000
     20 Cl1        10.3131   -2.1451   -4.1580 Cl        1 <0>         0.0000
     21 Cl2         7.8080   -0.1751   -4.6482 Cl        1 <0>         0.0000
     22 H1          8.2971    4.9672   -3.1250 H         1 <0>         0.0000
     23 H2          7.4094    7.1816   -2.4025 H         1 <0>         0.0000
     24 H3          7.6774    2.9303   -1.9366 H         1 <0>         0.0000
     25 H4          8.8107   -2.2992    0.4606 H         1 <0>         0.0000
     26 H5          5.8627    7.3270   -0.4481 H         1 <0>         0.0000
     27 H6         10.2940   -2.9039   -1.4304 H         1 <0>         0.0000
     28 H7          6.4559    0.1361   -2.2079 H         1 <0>         0.0000
     29 H8          4.0170    4.2941    2.4480 H         1 <0>         0.0000
     30 H9          6.4719   -1.4557    1.1442 H         1 <0>         0.0000
     31 H10         7.1899    1.5094   -0.6870 H         1 <0>         0.0000
@<TRIPOS>BOND
     1    1    2 ar
     2    1    3 ar
     3    1   22 1
     4    2    5 ar
     5    2   23 1
     6    3    9 ar
     7    3   24 1
     8    4    6 ar
     9    4   10 ar
    10    4   25 1
    11    5   11 ar
    12    5   26 1
    13    6   12 ar
    14    6   27 1
    15    7   10 ar
    16    7   13 ar
    17    7   28 1
    18    8   16 ar
    19    8   17 ar
    20    8   29 1
    21    9   11 ar
    22    9   14 ar
    23   10   15 1
    24   11   16 ar
    25   12   13 ar
    26   12   20 1
    27   13   21 1
    28   14   17 ar
    29   14   19 1
    30   15   18 2
    31   15   30 1
    32   18   19 1
    33   19   31 1
