@<TRIPOS>MOLECULE
*****
   30    31     0     0     0
SMALL
NO_CHARGES

@<TRIPOS>ATOM
      1 C1         -1.7055   -4.3228   -1.3477 C.ar      1 <0>         0.0000
      2 C2         -1.1600   -3.0418   -1.2643 C.ar      1 <0>         0.0000
      3 C3         -3.0426   -4.5749   -1.0264 C.ar      1 <0>         0.0000
      4 C4         -3.3188   -2.2061   -0.5184 C.ar      1 <0>         0.0000
      5 C5          3.7897    0.8712   -2.0457 C.2       1 <0>         0.0000
      6 C6          1.4905    1.3097   -1.3293 C.2       1 <0>         0.0000
      7 C7         -1.9702   -1.9712   -0.8460 C.ar      1 <0>         0.0000
      8 C8          2.4751    0.4095   -1.7317 C.2       1 <0>         0.0000
      9 C9         -3.8291   -3.4971   -0.6139 C.ar      1 <0>         0.0000
     10 C10         4.0626    2.1977   -1.9461 C.2       1 <0>         0.0000
     11 C11         1.8020    2.7206   -1.2294 C.2       1 <0>         0.0000
     12 C12         0.1412    0.9055   -0.9962 C.2       1 <0>         0.0000
     13 C13         5.3774    2.8461   -2.2350 C.3       1 <0>         0.0000
     14 N1         -0.2182   -0.3402   -1.0655 N.2       1 <0>         0.0000
     15 N2         -1.4872   -0.6717   -0.7323 N.pl3     1 <0>         0.0000
     16 O1          1.0467    3.6123   -0.8937 O.2       1 <0>         0.0000
     17 O2          3.1222    3.0926   -1.5573 O.3       1 <0>         0.0000
     18 O3          2.2461   -0.9031   -1.8419 O.3       1 <0>         0.0000
     19 Cl1        -5.5156   -3.7690   -0.2010 Cl        1 <0>         0.0000
     20 H1         -1.0742   -5.1457   -1.6719 H         1 <0>         0.0000
     21 H2         -0.1214   -2.8745   -1.5204 H         1 <0>         0.0000
     22 H3         -3.4629   -5.5723   -1.0931 H         1 <0>         0.0000
     23 H4         -3.9597   -1.3914   -0.1924 H         1 <0>         0.0000
     24 H5          4.5491    0.1647   -2.3575 H         1 <0>         0.0000
     25 H6         -0.5501    1.6940   -0.6857 H         1 <0>         0.0000
     26 H7          5.2631    3.5938   -3.0269 H         1 <0>         0.0000
     27 H8          6.1153    2.1047   -2.5462 H         1 <0>         0.0000
     28 H9          5.7448    3.3667   -1.3444 H         1 <0>         0.0000
     29 H10        -2.1341    0.0720   -0.4811 H         1 <0>         0.0000
     30 H11         1.2945   -1.0622   -1.5903 H         1 <0>         0.0000
@<TRIPOS>BOND
     1    1    2 ar
     2    1    3 ar
     3    1   20 1
     4    2    7 ar
     5    2   21 1
     6    3    9 ar
     7    3   22 1
     8    4    7 ar
     9    4    9 ar
    10    4   23 1
    11    5    8 1
    12    5   10 2
    13    5   24 1
    14    6    8 2
    15    6   11 1
    16    6   12 1
    17    7   15 1
    18    8   18 1
    19    9   19 1
    20   10   13 1
    21   10   17 1
    22   11   16 2
    23   11   17 1
    24   12   14 2
    25   12   25 1
    26   13   26 1
    27   13   27 1
    28   13   28 1
    29   14   15 1
    30   15   29 1
    31   18   30 1
