@<TRIPOS>MOLECULE
*****
   15    15     0     0     0
SMALL
NO_CHARGES

@<TRIPOS>ATOM
      1 C1          0.1358   -0.3059    1.0477 C.ar      1 <0>         0.0000
      2 C2          1.6178   -1.5404    2.5164 C.ar      1 <0>         0.0000
      3 C3         -0.9247   -0.9941    1.6408 C.ar      1 <0>         0.0000
      4 C4          1.4193   -0.5994    1.5082 C.ar      1 <0>         0.0000
      5 C5          0.4697   -2.1597    3.0317 C.ar      1 <0>         0.0000
      6 C6          2.1754   -3.5796    4.7990 C.3       1 <0>         0.0000
      7 N1         -0.7710   -1.9013    2.6121 N.ar      1 <0>         0.0000
      8 F1          2.7286   -2.4353    5.2631 F         1 <0>         0.0000
      9 F2          2.9696   -4.0144    3.7926 F         1 <0>         0.0000
     10 F3          2.2216   -4.4934    5.7864 F         1 <0>         0.0000
     11 S1          0.4274   -3.4030    4.3244 S.3       1 <0>         0.0000
     12 Br1         2.9270    0.2934    0.7513 Br        1 <0>         0.0000
     13 H1         -0.0376    0.4228    0.2640 H         1 <0>         0.0000
     14 H2          2.6141   -1.7686    2.8692 H         1 <0>         0.0000
     15 H3         -1.9471   -0.8057    1.3195 H         1 <0>         0.0000
@<TRIPOS>BOND
     1    1    3 ar
     2    1    4 ar
     3    1   13 1
     4    2    4 ar
     5    2    5 ar
     6    2   14 1
     7    3    7 ar
     8    3   15 1
     9    4   12 1
    10    5    7 ar
    11    5   11 1
    12    6    8 1
    13    6    9 1
    14    6   10 1
    15    6   11 1
