@<TRIPOS>MOLECULE
*****
   35    37     0     0     0
SMALL
NO_CHARGES

@<TRIPOS>ATOM
      1 C1         -0.0104   -4.3136    1.6775 C.ar      1 <0>         0.0000
      2 C2         -0.3007   -1.8344    0.7020 C.ar      1 <0>         0.0000
      3 C3         -0.7075    0.3081    4.2006 C.2       1 <0>         0.0000
      4 C4         -0.2692   -0.7764   -0.2830 C.2       1 <0>         0.0000
      5 C5          0.5499   -0.1927    4.6858 C.2       1 <0>         0.0000
      6 C6         -1.1864    1.0605    5.2370 C.2       1 <0>         0.0000
      7 C7         -0.9477   -2.2065    1.9183 C.ar      1 <0>         0.0000
      8 C8          0.5154   -2.8253    0.1365 C.ar      1 <0>         0.0000
      9 C9         -1.0144    0.5237   -0.3687 C.3       1 <0>         0.0000
     10 C10         1.5137   -1.0999    3.9850 C.3       1 <0>         0.0000
     11 C11        -2.4287    1.8576    5.4439 C.3       1 <0>         0.0000
     12 C12        -2.4986   -1.9452    3.7747 C.3       1 <0>         0.0000
     13 C13        -1.3289    0.0429    2.8605 C.3       1 <0>         0.0000
     14 N1         -0.8133   -3.4763    2.3511 N.ar      1 <0>         0.0000
     15 N2          0.7209   -4.0616    0.5869 N.ar      1 <0>         0.0000
     16 N3          0.5170   -1.0987   -1.2840 N.2       1 <0>         0.0000
     17 N4          0.7995    0.2339    5.9036 N.2       1 <0>         0.0000
     18 N5         -1.7195   -1.3656    2.6783 N.pl3     1 <0>         0.0000
     19 O1         -0.3042    1.0352    6.2612 O.3       1 <0>         0.0000
     20 O2          1.0431   -2.3869   -1.0229 O.3       1 <0>         0.0000
     21 H1          0.0635   -5.3213    2.0822 H         1 <0>         0.0000
     22 H2         -0.5442    1.3045    0.2369 H         1 <0>         0.0000
     23 H3         -1.0216    0.8636   -1.4061 H         1 <0>         0.0000
     24 H4         -2.0454    0.4020   -0.0263 H         1 <0>         0.0000
     25 H5          1.7459   -0.7266    2.9822 H         1 <0>         0.0000
     26 H6          2.4410   -1.1761    4.5560 H         1 <0>         0.0000
     27 H7          1.0886   -2.1018    3.8725 H         1 <0>         0.0000
     28 H8         -2.9798    1.4927    6.3165 H         1 <0>         0.0000
     29 H9         -2.1905    2.9120    5.6171 H         1 <0>         0.0000
     30 H10        -3.0790    1.7893    4.5694 H         1 <0>         0.0000
     31 H11        -3.2327   -1.2019    4.0970 H         1 <0>         0.0000
     32 H12        -1.8753   -2.2238    4.6312 H         1 <0>         0.0000
     33 H13        -3.0174   -2.8358    3.4220 H         1 <0>         0.0000
     34 H14        -2.2052    0.6842    2.7181 H         1 <0>         0.0000
     35 H15        -0.6145    0.2970    2.0824 H         1 <0>         0.0000
@<TRIPOS>BOND
     1    1   14 ar
     2    1   15 ar
     3    1   21 1
     4    2    4 1
     5    2    7 ar
     6    2    8 ar
     7    3    5 1
     8    3    6 2
     9    3   13 1
    10    4    9 1
    11    4   16 2
    12    5   10 1
    13    5   17 2
    14    6   11 1
    15    6   19 1
    16    7   14 ar
    17    7   18 1
    18    8   15 ar
    19    8   20 1
    20    9   22 1
    21    9   23 1
    22    9   24 1
    23   10   25 1
    24   10   26 1
    25   10   27 1
    26   11   28 1
    27   11   29 1
    28   11   30 1
    29   12   18 1
    30   12   31 1
    31   12   32 1
    32   12   33 1
    33   13   18 1
    34   13   34 1
    35   13   35 1
    36   16   20 1
    37   17   19 1
