@<TRIPOS>MOLECULE
*****
   30    31     0     0     0
SMALL
NO_CHARGES

@<TRIPOS>ATOM
      1 C1         -3.3566   -3.6550    0.4371 C.ar      1 <0>         0.0000
      2 C2         -2.9543   -2.3220    0.4249 C.ar      1 <0>         0.0000
      3 C3         -2.5514   -4.6606   -0.1095 C.ar      1 <0>         0.0000
      4 C4         -0.8940   -2.9621   -0.6981 C.ar      1 <0>         0.0000
      5 C5          3.5688    1.3336   -2.1409 C.2       1 <0>         0.0000
      6 C6          1.3898    1.5740   -1.0520 C.2       1 <0>         0.0000
      7 C7         -1.7167   -1.9659   -0.1447 C.ar      1 <0>         0.0000
      8 C8          2.3494    0.7666   -1.6597 C.2       1 <0>         0.0000
      9 C9         -1.3290   -4.2859   -0.6687 C.ar      1 <0>         0.0000
     10 C10         3.7763    2.6677   -1.9965 C.2       1 <0>         0.0000
     11 C11         1.6309    2.9947   -0.9072 C.2       1 <0>         0.0000
     12 C12         0.1353    1.0621   -0.5439 C.2       1 <0>         0.0000
     13 C13         4.9892    3.4189   -2.4409 C.3       1 <0>         0.0000
     14 N1         -0.1575   -0.1999   -0.6315 N.2       1 <0>         0.0000
     15 N2         -1.3481   -0.6253   -0.1483 N.pl3     1 <0>         0.0000
     16 O1          0.8875    3.8128   -0.4002 O.2       1 <0>         0.0000
     17 O2          2.8585    3.4734   -1.4089 O.3       1 <0>         0.0000
     18 O3          2.1839   -0.5496   -1.8209 O.3       1 <0>         0.0000
     19 Cl1        -0.2912   -5.5222   -1.3639 Cl        1 <0>         0.0000
     20 H1         -4.3132   -3.9190    0.8794 H         1 <0>         0.0000
     21 H2         -3.5946   -1.5546    0.8541 H         1 <0>         0.0000
     22 H3         -2.8610   -5.6998   -0.1020 H         1 <0>         0.0000
     23 H4          0.0612   -2.7141   -1.1413 H         1 <0>         0.0000
     24 H5          4.3091    0.6988   -2.6120 H         1 <0>         0.0000
     25 H6         -0.5460    1.7861   -0.0880 H         1 <0>         0.0000
     26 H7          4.7083    4.1999   -3.1552 H         1 <0>         0.0000
     27 H8          5.7105    2.7475   -2.9097 H         1 <0>         0.0000
     28 H9          5.4615    3.9127   -1.5851 H         1 <0>         0.0000
     29 H10        -1.9569    0.0491    0.3091 H         1 <0>         0.0000
     30 H11         1.2956   -0.7894   -1.4390 H         1 <0>         0.0000
@<TRIPOS>BOND
     1    1    2 ar
     2    1    3 ar
     3    1   20 1
     4    2    7 ar
     5    2   21 1
     6    3    9 ar
     7    3   22 1
     8    4    7 ar
     9    4    9 ar
    10    4   23 1
    11    5    8 1
    12    5   10 2
    13    5   24 1
    14    6    8 2
    15    6   11 1
    16    6   12 1
    17    7   15 1
    18    8   18 1
    19    9   19 1
    20   10   13 1
    21   10   17 1
    22   11   16 2
    23   11   17 1
    24   12   14 2
    25   12   25 1
    26   13   26 1
    27   13   27 1
    28   13   28 1
    29   14   15 1
    30   15   29 1
    31   18   30 1
