@<TRIPOS>MOLECULE
*****
   28    29     0     0     0
SMALL
NO_CHARGES

@<TRIPOS>ATOM
      1 C1          0.2458   -2.7958   -0.2885 C.ar      1 <0>         0.0000
      2 C2         -0.4581   -3.1946   -1.4287 C.ar      1 <0>         0.0000
      3 C3          0.2103   -0.5241   -1.0834 C.ar      1 <0>         0.0000
      4 C4          0.6003   -1.4523   -0.1099 C.ar      1 <0>         0.0000
      5 C5         -0.5106   -0.8962   -2.2250 C.ar      1 <0>         0.0000
      6 C6         -0.8119   -2.2558   -2.3865 C.ar      1 <0>         0.0000
      7 C7         -3.3986    0.1008   -0.6837 C.3       1 <0>         0.0000
      8 C8         -2.8082    1.4802   -0.9803 C.3       1 <0>         0.0000
      9 C9         -3.2508    0.4342   -2.9766 C.3       1 <0>         0.0000
     10 C10         1.4054   -1.0082    1.0904 C.3       1 <0>         0.0000
     11 C11        -2.0337    0.1191   -3.8464 C.3       1 <0>         0.0000
     12 O1         -3.3938   -0.5512   -1.9600 O.3       1 <0>         0.0000
     13 O2         -3.1805    1.7022   -2.3453 O.3       1 <0>         0.0000
     14 O3         -0.7958    0.1025   -3.1211 O.3       1 <0>         0.0000
     15 F1         -1.4714   -2.6842   -3.4985 F         1 <0>         0.0000
     16 H1          0.5233   -3.5372    0.4560 H         1 <0>         0.0000
     17 H2         -0.7338   -4.2322   -1.5932 H         1 <0>         0.0000
     18 H3          0.4665    0.5271   -0.9780 H         1 <0>         0.0000
     19 H4         -2.7879   -0.4887    0.0051 H         1 <0>         0.0000
     20 H5         -4.4269    0.1675   -0.3074 H         1 <0>         0.0000
     21 H6         -3.2444    2.2794   -0.3767 H         1 <0>         0.0000
     22 H7         -1.7189    1.4876   -0.8734 H         1 <0>         0.0000
     23 H8         -4.1410    0.4413   -3.6228 H         1 <0>         0.0000
     24 H9          2.4727   -0.9470    0.8458 H         1 <0>         0.0000
     25 H10         1.0939   -0.0185    1.4391 H         1 <0>         0.0000
     26 H11         1.2982   -1.7093    1.9231 H         1 <0>         0.0000
     27 H12        -1.9147    0.9236   -4.5757 H         1 <0>         0.0000
     28 H13        -2.2042   -0.8211   -4.3737 H         1 <0>         0.0000
@<TRIPOS>BOND
     1    1    2 ar
     2    1    4 ar
     3    1   16 1
     4    2    6 ar
     5    2   17 1
     6    3    4 ar
     7    3    5 ar
     8    3   18 1
     9    4   10 1
    10    5    6 ar
    11    5   14 1
    12    6   15 1
    13    7    8 1
    14    7   12 1
    15    7   19 1
    16    7   20 1
    17    8   13 1
    18    8   21 1
    19    8   22 1
    20    9   11 1
    21    9   13 1
    22    9   12 1
    23    9   23 1
    24   10   24 1
    25   10   25 1
    26   10   26 1
    27   11   14 1
    28   11   27 1
    29   11   28 1
