@<TRIPOS>MOLECULE
*****
   49    52     0     0     0
SMALL
NO_CHARGES

@<TRIPOS>ATOM
      1 C1          4.8593   -5.5632    3.6467 C.ar      1 <0>         0.0000
      2 C2          3.4687   -5.6832    3.6681 C.ar      1 <0>         0.0000
      3 C3          5.4827   -4.7300    2.7148 C.ar      1 <0>         0.0000
      4 C4          7.1056    0.1300    3.2568 C.ar      1 <0>         0.0000
      5 C5          3.3236   -4.1459    1.8147 C.ar      1 <0>         0.0000
      6 C6          5.2835    1.9651    4.3774 C.ar      1 <0>         0.0000
      7 C7          0.2653   -4.1515    2.2275 C.2       1 <0>         0.0000
      8 C8          0.4214   -6.0878    3.2939 C.2       1 <0>         0.0000
      9 C9          5.7287    0.0424    2.9267 C.ar      1 <0>         0.0000
     10 C10         2.6775   -4.9756    2.7470 C.ar      1 <0>         0.0000
     11 C11         1.2121   -5.0750    2.7589 C.2       1 <0>         0.0000
     12 C12         4.7128   -4.0126    1.7884 C.ar      1 <0>         0.0000
     13 C13         4.8089    0.9695    3.4823 C.ar      1 <0>         0.0000
     14 C14         7.5504    1.0999    4.1263 C.ar      1 <0>         0.0000
     15 C15         6.6233    2.0261    4.6945 C.ar      1 <0>         0.0000
     16 C16         5.1544   -0.9409    2.0457 C.ar      1 <0>         0.0000
     17 C17         3.0740    0.0041    2.3491 C.ar      1 <0>         0.0000
     18 C18         1.6074   -0.0760    2.0158 C.3       1 <0>         0.0000
     19 C19         6.4401   -3.7371   -0.0667 C.3       1 <0>         0.0000
     20 C20         6.3715    3.9079    6.1573 C.3       1 <0>         0.0000
     21 C21         5.3612   -3.0653    0.7861 C.3       1 <0>         0.0000
     22 N1         -0.9933   -4.5505    2.4172 N.2       1 <0>         0.0000
     23 N2          3.4709    0.9438    3.1873 N.ar      1 <0>         0.0000
     24 N3          3.8571   -0.9428    1.7637 N.ar      1 <0>         0.0000
     25 N4         -0.8722   -5.7320    3.0662 N.pl3     1 <0>         0.0000
     26 N5          5.9455   -1.8894    1.4479 N.pl3     1 <0>         0.0000
     27 O1          8.8770    1.1888    4.4487 O.3       1 <0>         0.0000
     28 O2          7.2126    2.9312    5.5405 O.3       1 <0>         0.0000
     29 H1          5.4584   -6.1130    4.3684 H         1 <0>         0.0000
     30 H2          2.9956   -6.3097    4.4201 H         1 <0>         0.0000
     31 H3          6.5669   -4.6405    2.7183 H         1 <0>         0.0000
     32 H4          7.8488   -0.5388    2.8330 H         1 <0>         0.0000
     33 H5          2.7340   -3.5785    1.1013 H         1 <0>         0.0000
     34 H6          4.5554    2.6557    4.7865 H         1 <0>         0.0000
     35 H7          0.4546   -3.2075    1.7324 H         1 <0>         0.0000
     36 H8          0.6786   -7.0160    3.7857 H         1 <0>         0.0000
     37 H9          1.4652   -0.1800    0.9359 H         1 <0>         0.0000
     38 H10         1.1688   -0.9616    2.4904 H         1 <0>         0.0000
     39 H11         1.0838    0.8100    2.3774 H         1 <0>         0.0000
     40 H12         7.2807   -4.0868    0.5437 H         1 <0>         0.0000
     41 H13         6.0245   -4.6071   -0.5820 H         1 <0>         0.0000
     42 H14         6.8273   -3.0351   -0.8113 H         1 <0>         0.0000
     43 H15         7.0264    4.5186    6.7793 H         1 <0>         0.0000
     44 H16         5.6106    3.4268    6.7818 H         1 <0>         0.0000
     45 H17         5.8867    4.5362    5.4020 H         1 <0>         0.0000
     46 H18         4.5777   -2.6847    0.1293 H         1 <0>         0.0000
     47 H19        -1.7085   -6.2429    3.3140 H         1 <0>         0.0000
     48 H20         6.8483   -2.0445    1.8767 H         1 <0>         0.0000
     49 H21         8.9768    1.9365    5.0647 H         1 <0>         0.0000
@<TRIPOS>BOND
     1    1    2 ar
     2    1    3 ar
     3    1   29 1
     4    2   10 ar
     5    2   30 1
     6    3   12 ar
     7    3   31 1
     8    4    9 ar
     9    4   14 ar
    10    4   32 1
    11    5   10 ar
    12    5   12 ar
    13    5   33 1
    14    6   13 ar
    15    6   15 ar
    16    6   34 1
    17    7   11 1
    18    7   22 2
    19    7   35 1
    20    8   11 2
    21    8   25 1
    22    8   36 1
    23    9   13 ar
    24    9   16 ar
    25   10   11 1
    26   12   21 1
    27   13   23 ar
    28   14   15 ar
    29   14   27 1
    30   15   28 1
    31   16   24 ar
    32   16   26 1
    33   17   18 1
    34   17   23 ar
    35   17   24 ar
    36   18   37 1
    37   18   38 1
    38   18   39 1
    39   19   21 1
    40   19   40 1
    41   19   41 1
    42   19   42 1
    43   20   28 1
    44   20   43 1
    45   20   44 1
    46   20   45 1
    47   21   26 1
    48   21   46 1
    49   22   25 1
    50   25   47 1
    51   26   48 1
    52   27   49 1
