@<TRIPOS>MOLECULE
*****
   41    43     0     0     0
SMALL
NO_CHARGES

@<TRIPOS>ATOM
      1 C1          9.1701   -0.5191   -0.2649 C.1       1 <0>         0.0000
      2 C2          3.6032    4.8736   -2.7784 C.ar      1 <0>         0.0000
      3 C3          4.0517    5.2412   -1.5047 C.ar      1 <0>         0.0000
      4 C4          3.1651    3.5653   -3.0250 C.ar      1 <0>         0.0000
      5 C5          4.0923    4.3133   -0.4540 C.ar      1 <0>         0.0000
      6 C6          7.0882    2.4174   -0.2768 C.2       1 <0>         0.0000
      7 C7          8.1862    0.4913   -0.1254 C.cat     1 <0>         0.0000
      8 C8          3.2099    2.6295   -1.9950 C.ar      1 <0>         0.0000
      9 C9          3.6887    3.0084   -0.7362 C.ar      1 <0>         0.0000
     10 C10         6.3499    1.5693    0.5181 C.2       1 <0>         0.0000
     11 C11         2.7170    1.2014   -1.9589 C.3       1 <0>         0.0000
     12 C12         3.3443    0.6410   -0.6673 C.3       1 <0>         0.0000
     13 C13        10.7576    4.0286   -0.0990 C.3       1 <0>         0.0000
     14 C14        11.8023    1.7763   -0.5935 C.3       1 <0>         0.0000
     15 N1          9.9867   -1.3442   -0.3506 N.1       1 <0>         0.0000
     16 N2          8.2200    1.7327   -0.6584 N.pl3     1 <0>         0.0000
     17 N3          7.0464    0.3845    0.5914 N.pl3     1 <0>         0.0000
     18 N4          3.6398    1.8686    0.1506 N.pl3     1 <0>         0.0000
     19 N5         10.8180    2.8232   -0.9551 N.pl3     1 <0>         0.0000
     20 O1          4.5937    0.3782    1.9463 O.2       1 <0>         0.0000
     21 O2          4.8036    2.9314    2.1379 O.2       1 <0>         0.0000
     22 O3          9.8167    1.2998   -2.7007 O.2       1 <0>         0.0000
     23 O4          8.8333    3.6435   -2.2771 O.2       1 <0>         0.0000
     24 S1          4.7426    1.7081    1.3638 S.o2      1 <0>         0.0000
     25 S2          9.5591    2.4593   -1.8836 S.o2      1 <0>         0.0000
     26 H1          3.5752    5.6116   -3.5744 H         1 <0>         0.0000
     27 H2          4.3575    6.2661   -1.3152 H         1 <0>         0.0000
     28 H3          2.7894    3.2860   -4.0058 H         1 <0>         0.0000
     29 H4          4.3988    4.6112    0.5420 H         1 <0>         0.0000
     30 H5          6.8843    3.4249   -0.6106 H         1 <0>         0.0000
     31 H6          1.6242    1.1843   -1.8948 H         1 <0>         0.0000
     32 H7          3.0088    0.6160   -2.8340 H         1 <0>         0.0000
     33 H8          2.6928   -0.0208   -0.0999 H         1 <0>         0.0000
     34 H9          4.2780    0.1120   -0.8944 H         1 <0>         0.0000
     35 H10        10.1458    4.7939   -0.5730 H         1 <0>         0.0000
     36 H11        11.7771    4.4051   -0.0012 H         1 <0>         0.0000
     37 H12        10.3637    3.7802    0.8919 H         1 <0>         0.0000
     38 H13        11.7860    0.9742   -1.3283 H         1 <0>         0.0000
     39 H14        11.5927    1.3807    0.4044 H         1 <0>         0.0000
     40 H15        12.7879    2.2453   -0.6028 H         1 <0>         0.0000
     41 H16         6.7295   -0.4226    1.1334 H         1 <0>         0.0000
@<TRIPOS>BOND
     1    1    7 1
     2    1   15 3
     3    2    3 ar
     4    2    4 ar
     5    2   26 1
     6    3    5 ar
     7    3   27 1
     8    4    8 ar
     9    4   28 1
    10    5    9 ar
    11    5   29 1
    12    6   10 2
    13    6   16 1
    14    6   30 1
    15    7   16 1
    16    7   17 2
    17    8    9 ar
    18    8   11 1
    19    9   18 1
    20   10   17 1
    21   10   24 1
    22   11   12 1
    23   11   31 1
    24   11   32 1
    25   12   18 1
    26   12   33 1
    27   12   34 1
    28   13   19 1
    29   13   35 1
    30   13   36 1
    31   13   37 1
    32   14   19 1
    33   14   38 1
    34   14   39 1
    35   14   40 1
    36   16   25 1
    37   17   41 1
    38   18   24 1
    39   19   25 1
    40   20   24 2
    41   21   24 2
    42   22   25 2
    43   23   25 2
