@<TRIPOS>MOLECULE
*****
   52    55     0     0     0
SMALL
NO_CHARGES

@<TRIPOS>ATOM
      1 C1         -8.1660    2.2582    4.1693 C.ar      1 <0>         0.0000
      2 C2         -3.2901   -3.1886   -3.0928 C.ar      1 <0>         0.0000
      3 C3         -6.8007    1.9731    4.1224 C.ar      1 <0>         0.0000
      4 C4         -9.0723    1.3870    3.5524 C.ar      1 <0>         0.0000
      5 C5         -1.8970   -3.0842   -2.9771 C.ar      1 <0>         0.0000
      6 C6         -4.0127   -3.8790   -2.1214 C.ar      1 <0>         0.0000
      7 C7         -6.3367    0.8194    3.4787 C.ar      1 <0>         0.0000
      8 C8         -8.6150    0.2470    2.8925 C.ar      1 <0>         0.0000
      9 C9         -1.2280   -3.6894   -1.9121 C.ar      1 <0>         0.0000
     10 C10        -3.3630   -4.4829   -1.0300 C.ar      1 <0>         0.0000
     11 C11        -7.2434   -0.0502    2.8583 C.ar      1 <0>         0.0000
     12 C12        -1.9544   -4.4017   -0.9562 C.ar      1 <0>         0.0000
     13 C13        -3.3206   -5.9494    0.9081 C.2       1 <0>         0.0000
     14 C14        -4.0404   -5.1640    0.0815 C.2       1 <0>         0.0000
     15 C15        -5.4262   -1.3155    1.7814 C.3       1 <0>         0.0000
     16 C16        -7.2557   -2.4873    2.7905 C.3       1 <0>         0.0000
     17 C17        -5.2254   -2.4225    0.7550 C.3       1 <0>         0.0000
     18 C18        -7.1181   -3.6412    1.8063 C.3       1 <0>         0.0000
     19 C19        -1.8417   -6.1642    0.6788 C.3       1 <0>         0.0000
     20 C20        -1.6110   -7.3458   -0.2737 C.3       1 <0>         0.0000
     21 C21        -1.0922   -6.3487    1.9964 C.3       1 <0>         0.0000
     22 C22        -5.4977   -4.9285    0.3684 C.3       1 <0>         0.0000
     23 N1         -6.8244   -1.2394    2.1687 N.pl3     1 <0>         0.0000
     24 N2         -5.6911   -3.7487    1.3193 N.4       1 <0>         0.0000
     25 O1         -1.2760   -4.9537    0.0925 O.3       1 <0>         0.0000
     26 H1         -8.5220    3.1519    4.6730 H         1 <0>         0.0000
     27 H2         -3.8042   -2.7392   -3.9368 H         1 <0>         0.0000
     28 H3         -6.0878    2.6428    4.5952 H         1 <0>         0.0000
     29 H4        -10.1361    1.6070    3.5675 H         1 <0>         0.0000
     30 H5         -1.3288   -2.5429   -3.7280 H         1 <0>         0.0000
     31 H6         -5.0912   -3.9585   -2.2304 H         1 <0>         0.0000
     32 H7         -5.2710    0.6136    3.4742 H         1 <0>         0.0000
     33 H8         -9.3193   -0.4025    2.3787 H         1 <0>         0.0000
     34 H9         -0.1483   -3.6311   -1.8134 H         1 <0>         0.0000
     35 H10        -3.7858   -6.4810    1.7373 H         1 <0>         0.0000
     36 H11        -4.7486   -1.4875    2.6395 H         1 <0>         0.0000
     37 H12        -5.1237   -0.3760    1.3131 H         1 <0>         0.0000
     38 H13        -8.3048   -2.4170    3.0810 H         1 <0>         0.0000
     39 H14        -6.6822   -2.7083    3.7112 H         1 <0>         0.0000
     40 H15        -5.8184   -2.2416   -0.1427 H         1 <0>         0.0000
     41 H16        -4.1771   -2.5312    0.4804 H         1 <0>         0.0000
     42 H17        -7.3807   -4.5961    2.2668 H         1 <0>         0.0000
     43 H18        -7.7376   -3.4774    0.9225 H         1 <0>         0.0000
     44 H19        -0.5391   -7.4733   -0.4505 H         1 <0>         0.0000
     45 H20        -2.1087   -7.1804   -1.2331 H         1 <0>         0.0000
     46 H21        -2.0049   -8.2688    0.1624 H         1 <0>         0.0000
     47 H22        -0.0207   -6.4398    1.8037 H         1 <0>         0.0000
     48 H23        -1.4311   -7.2573    2.5025 H         1 <0>         0.0000
     49 H24        -1.2521   -5.4928    2.6583 H         1 <0>         0.0000
     50 H25        -5.9417   -5.7884    0.8733 H         1 <0>         0.0000
     51 H26        -6.0919   -4.7043   -0.5178 H         1 <0>         0.0000
     52 H27        -5.0959   -3.9454    2.1333 H         1 <0>         0.0000
@<TRIPOS>BOND
     1    1    4 ar
     2    1    3 ar
     3    1   26 1
     4    2    5 ar
     5    2    6 ar
     6    2   27 1
     7    3    7 ar
     8    3   28 1
     9    4    8 ar
    10    4   29 1
    11    5    9 ar
    12    5   30 1
    13    6   10 ar
    14    6   31 1
    15    7   11 ar
    16    7   32 1
    17    8   11 ar
    18    8   33 1
    19    9   12 ar
    20    9   34 1
    21   10   12 ar
    22   10   14 1
    23   11   23 1
    24   12   25 1
    25   13   14 2
    26   13   19 1
    27   13   35 1
    28   14   22 1
    29   15   17 1
    30   15   23 1
    31   15   36 1
    32   15   37 1
    33   16   18 1
    34   16   23 1
    35   16   38 1
    36   16   39 1
    37   17   24 1
    38   17   40 1
    39   17   41 1
    40   18   24 1
    41   18   42 1
    42   18   43 1
    43   19   20 1
    44   19   21 1
    45   19   25 1
    46   20   44 1
    47   20   45 1
    48   20   46 1
    49   21   47 1
    50   21   48 1
    51   21   49 1
    52   22   24 1
    53   22   50 1
    54   22   51 1
    55   24   52 1
