@<TRIPOS>MOLECULE
*****
   52    55     0     0     0
SMALL
NO_CHARGES

@<TRIPOS>ATOM
      1 C1         -8.3447    1.2850    4.9423 C.ar      1 <0>         0.0000
      2 C2         -1.8315   -5.8366    3.1738 C.ar      1 <0>         0.0000
      3 C3         -6.9552    1.1700    5.0027 C.ar      1 <0>         0.0000
      4 C4         -9.0601    0.5064    4.0243 C.ar      1 <0>         0.0000
      5 C5         -0.5240   -5.3387    3.2603 C.ar      1 <0>         0.0000
      6 C6         -2.6003   -5.5540    2.0447 C.ar      1 <0>         0.0000
      7 C7         -6.2785    0.2746    4.1655 C.ar      1 <0>         0.0000
      8 C8         -8.3902   -0.3724    3.1739 C.ar      1 <0>         0.0000
      9 C9          0.0218   -4.5913    2.2156 C.ar      1 <0>         0.0000
     10 C10        -2.0782   -4.7832    0.9871 C.ar      1 <0>         0.0000
     11 C11        -6.9940   -0.5014    3.2440 C.ar      1 <0>         0.0000
     12 C12        -0.7435   -4.3312    1.0759 C.ar      1 <0>         0.0000
     13 C13        -2.2026   -3.8291   -1.2440 C.2       1 <0>         0.0000
     14 C14        -2.8495   -4.3341   -0.1784 C.2       1 <0>         0.0000
     15 C15        -4.9260   -1.2429    2.1328 C.3       1 <0>         0.0000
     16 C16        -6.6655   -2.8284    2.5946 C.3       1 <0>         0.0000
     17 C17        -4.4832   -2.0269    0.9044 C.3       1 <0>         0.0000
     18 C18        -6.2777   -3.6745    1.3887 C.3       1 <0>         0.0000
     19 C19        -0.6902   -3.8027   -1.2773 C.3       1 <0>         0.0000
     20 C20        -0.1722   -2.6125   -2.0807 C.3       1 <0>         0.0000
     21 C21        -0.1273   -5.1293   -1.8031 C.3       1 <0>         0.0000
     22 C22        -4.3477   -4.3432   -0.0956 C.3       1 <0>         0.0000
     23 N1         -6.3524   -1.4235    2.3480 N.pl3     1 <0>         0.0000
     24 N2         -4.8136   -3.4909    1.0777 N.4       1 <0>         0.0000
     25 O1         -0.1959   -3.5773    0.0829 O.3       1 <0>         0.0000
     26 H1         -8.8660    1.9777    5.5962 H         1 <0>         0.0000
     27 H2         -2.2386   -6.4490    3.9724 H         1 <0>         0.0000
     28 H3         -6.3892    1.7705    5.7094 H         1 <0>         0.0000
     29 H4        -10.1404    0.5990    3.9563 H         1 <0>         0.0000
     30 H5          0.0799   -5.5512    4.1377 H         1 <0>         0.0000
     31 H6         -3.5963   -5.9887    1.9672 H         1 <0>         0.0000
     32 H7         -5.1994    0.1920    4.2482 H         1 <0>         0.0000
     33 H8         -8.9465   -0.9425    2.4340 H         1 <0>         0.0000
     34 H9          1.0393   -4.2148    2.2602 H         1 <0>         0.0000
     35 H10        -2.7411   -3.4433   -2.1069 H         1 <0>         0.0000
     36 H11        -4.3141   -1.5530    3.0008 H         1 <0>         0.0000
     37 H12        -4.7152   -0.1874    1.9464 H         1 <0>         0.0000
     38 H13        -7.7369   -2.9478    2.7601 H         1 <0>         0.0000
     39 H14        -6.1553   -3.2104    3.4994 H         1 <0>         0.0000
     40 H15        -5.0138   -1.6905    0.0112 H         1 <0>         0.0000
     41 H16        -3.4074   -1.9534    0.7436 H         1 <0>         0.0000
     42 H17        -6.4429   -4.7381    1.5751 H         1 <0>         0.0000
     43 H18        -6.8314   -3.3678    0.4991 H         1 <0>         0.0000
     44 H19         0.9185   -2.5761   -2.0302 H         1 <0>         0.0000
     45 H20        -0.5689   -1.6732   -1.6853 H         1 <0>         0.0000
     46 H21        -0.4674   -2.7073   -3.1295 H         1 <0>         0.0000
     47 H22         0.9659   -5.0969   -1.7966 H         1 <0>         0.0000
     48 H23        -0.4651   -5.3029   -2.8292 H         1 <0>         0.0000
     49 H24        -0.4591   -5.9700   -1.1877 H         1 <0>         0.0000
     50 H25        -4.7513   -5.3441    0.0806 H         1 <0>         0.0000
     51 H26        -4.8114   -3.9339   -0.9941 H         1 <0>         0.0000
     52 H27        -4.2760   -3.8202    1.8929 H         1 <0>         0.0000
@<TRIPOS>BOND
     1    1    4 ar
     2    1    3 ar
     3    1   26 1
     4    2    5 ar
     5    2    6 ar
     6    2   27 1
     7    3    7 ar
     8    3   28 1
     9    4    8 ar
    10    4   29 1
    11    5    9 ar
    12    5   30 1
    13    6   10 ar
    14    6   31 1
    15    7   11 ar
    16    7   32 1
    17    8   11 ar
    18    8   33 1
    19    9   12 ar
    20    9   34 1
    21   10   12 ar
    22   10   14 1
    23   11   23 1
    24   12   25 1
    25   13   14 2
    26   13   19 1
    27   13   35 1
    28   14   22 1
    29   15   17 1
    30   15   23 1
    31   15   36 1
    32   15   37 1
    33   16   18 1
    34   16   23 1
    35   16   38 1
    36   16   39 1
    37   17   24 1
    38   17   40 1
    39   17   41 1
    40   18   24 1
    41   18   42 1
    42   18   43 1
    43   19   20 1
    44   19   21 1
    45   19   25 1
    46   20   44 1
    47   20   45 1
    48   20   46 1
    49   21   47 1
    50   21   48 1
    51   21   49 1
    52   22   24 1
    53   22   50 1
    54   22   51 1
    55   24   52 1
