@<TRIPOS>MOLECULE
*****
   50    51     0     0     0
SMALL
NO_CHARGES

@<TRIPOS>ATOM
      1 C1          0.4159    2.4289   -1.2681 C.2       1 <0>         0.0000
      2 C2         -0.3498    2.2349    1.7243 C.2       1 <0>         0.0000
      3 C3         -0.5516    0.1567   -0.6177 C.3       1 <0>         0.0000
      4 C4         -0.2534   -1.1912    0.0266 C.3       1 <0>         0.0000
      5 C5          2.0696   -0.8994   -0.0306 C.3       1 <0>         0.0000
      6 C6          1.9545    0.5190   -0.6129 C.3       1 <0>         0.0000
      7 C7          0.5777    1.1772   -0.3660 C.3       1 <0>         0.0000
      8 C8          1.5132    4.0224   -3.5796 C.3       1 <0>         0.0000
      9 C9          0.3602    2.2123   -4.9035 C.3       1 <0>         0.0000
     10 C10        -1.0247    3.8109   -3.5318 C.3       1 <0>         0.0000
     11 C11        -1.8611    2.9474    4.2934 C.3       1 <0>         0.0000
     12 C12         0.3502    4.0718    4.7710 C.3       1 <0>         0.0000
     13 C13        -1.0566    4.8799    2.8386 C.3       1 <0>         0.0000
     14 C14         0.3125    3.0767   -3.6443 C.3       1 <0>         0.0000
     15 C15        -0.6586    3.6766    3.6940 C.3       1 <0>         0.0000
     16 N1          0.6968    1.6046    1.0298 N.am      1 <0>         0.0000
     17 O1          0.3199    3.5542   -0.8304 O.2       1 <0>         0.0000
     18 O2         -1.4973    2.2470    1.3232 O.2       1 <0>         0.0000
     19 O3          2.7580    1.1192    2.5409 O.2       1 <0>         0.0000
     20 O4          2.6334    3.4000    1.4769 O.2       1 <0>         0.0000
     21 O5          0.9882   -1.7149   -0.4526 O.3       1 <0>         0.0000
     22 O6          2.9190    1.4010    0.0174 O.3       1 <0>         0.0000
     23 O7          0.4187    2.0654   -2.5577 O.3       1 <0>         0.0000
     24 O8          0.1312    2.7299    2.8640 O.3       1 <0>         0.0000
     25 S1          2.3440    1.9823    1.4495 S.o2      1 <0>         0.0000
     26 H1         -0.6212    0.0192   -1.6994 H         1 <0>         0.0000
     27 H2         -1.4959    0.5672   -0.2590 H         1 <0>         0.0000
     28 H3         -0.2285   -1.1120    1.1227 H         1 <0>         0.0000
     29 H4         -1.0193   -1.9190   -0.2505 H         1 <0>         0.0000
     30 H5          2.9886   -1.3628   -0.3957 H         1 <0>         0.0000
     31 H6          2.1173   -0.8535    1.0642 H         1 <0>         0.0000
     32 H7          2.1898    0.5296   -1.6758 H         1 <0>         0.0000
     33 H8          1.4890    4.6422   -2.6830 H         1 <0>         0.0000
     34 H9          2.4488    3.4546   -3.5929 H         1 <0>         0.0000
     35 H10         1.5009    4.6767   -4.4571 H         1 <0>         0.0000
     36 H11        -0.4737    1.5044   -4.9193 H         1 <0>         0.0000
     37 H12         1.2961    1.6478   -4.9508 H         1 <0>         0.0000
     38 H13         0.2935    2.8461   -5.7924 H         1 <0>         0.0000
     39 H14        -1.8518    3.0950   -3.4984 H         1 <0>         0.0000
     40 H15        -1.0637    4.4393   -2.6418 H         1 <0>         0.0000
     41 H16        -1.1599    4.4450   -4.4139 H         1 <0>         0.0000
     42 H17        -2.5720    2.6519    3.5208 H         1 <0>         0.0000
     43 H18        -1.5338    2.0561    4.8376 H         1 <0>         0.0000
     44 H19        -2.3677    3.6119    5.0008 H         1 <0>         0.0000
     45 H20         1.2279    4.5404    4.3183 H         1 <0>         0.0000
     46 H21         0.6786    3.1922    5.3316 H         1 <0>         0.0000
     47 H22        -0.1102    4.7793    5.4668 H         1 <0>         0.0000
     48 H23        -0.1748    5.3052    2.3514 H         1 <0>         0.0000
     49 H24        -1.7845    4.6061    2.0736 H         1 <0>         0.0000
     50 H25        -1.4998    5.6450    3.4839 H         1 <0>         0.0000
@<TRIPOS>BOND
     1    1    7 1
     2    1   17 2
     3    1   23 1
     4    2   16 am
     5    2   18 2
     6    2   24 1
     7    3    4 1
     8    3    7 1
     9    3   26 1
    10    3   27 1
    11    4   21 1
    12    4   28 1
    13    4   29 1
    14    5    6 1
    15    5   21 1
    16    5   30 1
    17    5   31 1
    18    6    7 1
    19    6   22 1
    20    6   32 1
    21    7   16 1
    22    8   14 1
    23    8   33 1
    24    8   34 1
    25    8   35 1
    26    9   14 1
    27    9   36 1
    28    9   37 1
    29    9   38 1
    30   10   14 1
    31   10   39 1
    32   10   40 1
    33   10   41 1
    34   11   15 1
    35   11   42 1
    36   11   43 1
    37   11   44 1
    38   12   15 1
    39   12   45 1
    40   12   46 1
    41   12   47 1
    42   13   15 1
    43   13   48 1
    44   13   49 1
    45   13   50 1
    46   14   23 1
    47   15   24 1
    48   16   25 1
    49   19   25 2
    50   20   25 2
    51   22   25 1
