@<TRIPOS>MOLECULE
*****
   45    47     0     0     0
SMALL
NO_CHARGES

@<TRIPOS>ATOM
      1 C1          0.9605    3.1433   -0.7780 C.ar      1 <0>         0.0000
      2 C2          1.5072    2.6763    1.5411 C.ar      1 <0>         0.0000
      3 C3          0.9897    4.5165   -0.5058 C.ar      1 <0>         0.0000
      4 C4          1.5430    4.0432    1.8148 C.ar      1 <0>         0.0000
      5 C5         -1.1705   -1.1371   -4.5042 C.2       1 <0>         0.0000
      6 C6         -2.4589   -0.1589   -3.1596 C.2       1 <0>         0.0000
      7 C7          1.2121    2.2226    0.2475 C.ar      1 <0>         0.0000
      8 C8          1.2767    4.9427    0.7846 C.ar      1 <0>         0.0000
      9 C9         -0.8975   -0.1182    1.8954 C.2       1 <0>         0.0000
     10 C10         0.9180   -1.8613    1.7650 C.3       1 <0>         0.0000
     11 C11        -0.3785   -2.5952    1.6635 C.3       1 <0>         0.0000
     12 C12        -0.2546   -1.1859    1.0678 C.3       1 <0>         0.0000
     13 C13        -2.6007    2.9478    0.8815 C.3       1 <0>         0.0000
     14 C14        -1.6298   -1.2879   -1.0314 C.3       1 <0>         0.0000
     15 C15        -2.1134    1.9337    1.8992 C.3       1 <0>         0.0000
     16 C16         0.2994    0.3439   -0.9131 C.3       1 <0>         0.0000
     17 C17        -0.2111   -1.0489   -0.4615 C.3       1 <0>         0.0000
     18 N1         -2.1591   -0.2013   -4.4532 N.2       1 <0>         0.0000
     19 N2         -0.8502   -1.6709   -3.3282 N.2       1 <0>         0.0000
     20 N3         -1.6936   -1.0310   -2.4666 N.pl3     1 <0>         0.0000
     21 O1         -0.8422   -0.0708    3.1118 O.2       1 <0>         0.0000
     22 O2          0.6623   -2.0735   -0.9378 O.3       1 <0>         0.0000
     23 O3          1.1952    0.8639    0.0687 O.3       1 <0>         0.0000
     24 O4         -1.5702    0.8043    1.1607 O.3       1 <0>         0.0000
     25 F1          1.3004    6.2772    1.0516 F         1 <0>         0.0000
     26 H1          0.7526    2.8048   -1.7875 H         1 <0>         0.0000
     27 H2          1.6895    1.9448    2.3224 H         1 <0>         0.0000
     28 H3          0.7976    5.2473   -1.2854 H         1 <0>         0.0000
     29 H4          1.7626    4.4130    2.8117 H         1 <0>         0.0000
     30 H5         -0.6754   -1.4368   -5.4187 H         1 <0>         0.0000
     31 H6         -3.2065    0.4692   -2.6920 H         1 <0>         0.0000
     32 H7          1.1900   -1.4397    2.7256 H         1 <0>         0.0000
     33 H8          1.7270   -2.1722    1.1171 H         1 <0>         0.0000
     34 H9         -0.4387   -3.4081    0.9479 H         1 <0>         0.0000
     35 H10        -0.9910   -2.6860    2.5543 H         1 <0>         0.0000
     36 H11        -1.7735    3.3015    0.2603 H         1 <0>         0.0000
     37 H12        -3.3737    2.5202    0.2345 H         1 <0>         0.0000
     38 H13        -3.0312    3.8097    1.4011 H         1 <0>         0.0000
     39 H14        -1.9107   -2.3267   -0.8436 H         1 <0>         0.0000
     40 H15        -2.3504   -0.6266   -0.5519 H         1 <0>         0.0000
     41 H16        -2.9177    1.5703    2.5451 H         1 <0>         0.0000
     42 H17        -1.3237    2.3425    2.5323 H         1 <0>         0.0000
     43 H18         0.8163    0.2357   -1.8728 H         1 <0>         0.0000
     44 H19        -0.5397    1.0309   -1.0374 H         1 <0>         0.0000
     45 H20         0.4951   -2.1761   -1.8969 H         1 <0>         0.0000
@<TRIPOS>BOND
     1    1    3 ar
     2    1    7 ar
     3    1   26 1
     4    2    4 ar
     5    2    7 ar
     6    2   27 1
     7    3    8 ar
     8    3   28 1
     9    4    8 ar
    10    4   29 1
    11    5   18 1
    12    5   19 2
    13    5   30 1
    14    6   18 2
    15    6   20 1
    16    6   31 1
    17    7   23 1
    18    8   25 1
    19    9   12 1
    20    9   21 2
    21    9   24 1
    22   10   11 1
    23   10   12 1
    24   10   32 1
    25   10   33 1
    26   11   12 1
    27   11   34 1
    28   11   35 1
    29   12   17 1
    30   13   15 1
    31   13   36 1
    32   13   37 1
    33   13   38 1
    34   14   17 1
    35   14   20 1
    36   14   39 1
    37   14   40 1
    38   15   24 1
    39   15   41 1
    40   15   42 1
    41   16   17 1
    42   16   23 1
    43   16   43 1
    44   16   44 1
    45   17   22 1
    46   19   20 1
    47   22   45 1
