@<TRIPOS>MOLECULE
*****
   59    61     0     0     0
SMALL
NO_CHARGES

@<TRIPOS>ATOM
      1 C1          1.8987    0.5875   -0.2751 C.ar      1 <0>         0.0000
      2 C2         -2.4325    1.0079    3.3386 C.ar      1 <0>         0.0000
      3 C3         -3.0332    2.8399    1.8827 C.ar      1 <0>         0.0000
      4 C4          2.6352   -0.0052   -1.3051 C.ar      1 <0>         0.0000
      5 C5         -3.2491    1.5258    4.3438 C.ar      1 <0>         0.0000
      6 C6         -3.8538    3.3709    2.8760 C.ar      1 <0>         0.0000
      7 C7          0.8226   -1.5789   -1.6240 C.ar      1 <0>         0.0000
      8 C8         -2.3039    1.6540    2.0947 C.ar      1 <0>         0.0000
      9 C9          0.6244    0.1360    0.0895 C.ar      1 <0>         0.0000
     10 C10         0.0876   -0.9827   -0.6017 C.ar      1 <0>         0.0000
     11 C11         2.0901   -1.0995   -1.9877 C.ar      1 <0>         0.0000
     12 C12        -3.9619    2.7009    4.0976 C.ar      1 <0>         0.0000
     13 C13        -1.4464    1.0986    1.0164 C.2       1 <0>         0.0000
     14 C14        -0.1358    0.7896    1.1904 C.2       1 <0>         0.0000
     15 C15        -1.2644   -1.5369   -0.2137 C.3       1 <0>         0.0000
     16 C16        -2.1066    0.8737   -0.3347 C.3       1 <0>         0.0000
     17 C17        -2.4366   -0.6096   -0.5968 C.3       1 <0>         0.0000
     18 C18         4.0012   -1.3216   -3.4092 C.3       1 <0>         0.0000
     19 C19        -6.6363    2.5557    4.9789 C.3       1 <0>         0.0000
     20 C20         0.6279    1.0574    2.4688 C.3       1 <0>         0.0000
     21 C21         1.0810   -0.2369    3.1730 C.3       1 <0>         0.0000
     22 C22         1.6821    0.0040    4.5653 C.3       1 <0>         0.0000
     23 C23         0.6321    0.3543    5.6277 C.3       1 <0>         0.0000
     24 C24         1.2422    0.6203    6.9960 C.3       1 <0>         0.0000
     25 O1         -4.6155    2.8473    6.6697 O.2       1 <0>         0.0000
     26 O2         -5.2286    4.7975    5.1201 O.2       1 <0>         0.0000
     27 O3          0.1708    0.8472    7.9182 O.3       1 <0>         0.0000
     28 O4          2.7098   -1.7686   -3.0091 O.3       1 <0>         0.0000
     29 S1         -5.0576    3.3551    5.3617 S.o2      1 <0>         0.0000
     30 H1          2.3310    1.4403    0.2411 H         1 <0>         0.0000
     31 H2         -1.8873    0.0868    3.5173 H         1 <0>         0.0000
     32 H3         -2.9321    3.3680    0.9385 H         1 <0>         0.0000
     33 H4          3.6119    0.3912   -1.5586 H         1 <0>         0.0000
     34 H5         -3.3226    1.0387    5.3119 H         1 <0>         0.0000
     35 H6         -4.3870    4.3047    2.7235 H         1 <0>         0.0000
     36 H7          0.4281   -2.4398   -2.1576 H         1 <0>         0.0000
     37 H8         -1.4099   -2.5219   -0.6676 H         1 <0>         0.0000
     38 H9         -1.2804   -1.6819    0.8721 H         1 <0>         0.0000
     39 H10        -3.0256    1.4612   -0.4143 H         1 <0>         0.0000
     40 H11        -1.4333    1.2222   -1.1248 H         1 <0>         0.0000
     41 H12        -2.6795   -0.7273   -1.6596 H         1 <0>         0.0000
     42 H13        -3.3249   -0.9105   -0.0287 H         1 <0>         0.0000
     43 H14         4.3074   -1.9818   -4.2218 H         1 <0>         0.0000
     44 H15         4.7237   -1.3985   -2.5871 H         1 <0>         0.0000
     45 H16         3.9716   -0.2872   -3.7735 H         1 <0>         0.0000
     46 H17        -7.3503    2.9211    5.7203 H         1 <0>         0.0000
     47 H18        -6.9446    2.8443    3.9731 H         1 <0>         0.0000
     48 H19        -6.5143    1.4750    5.0626 H         1 <0>         0.0000
     49 H20         0.0287    1.6699    3.1435 H         1 <0>         0.0000
     50 H21         1.5241    1.6489    2.2407 H         1 <0>         0.0000
     51 H22         0.2281   -0.9226    3.2622 H         1 <0>         0.0000
     52 H23         1.8109   -0.7464    2.5345 H         1 <0>         0.0000
     53 H24         2.2215   -0.8977    4.8826 H         1 <0>         0.0000
     54 H25         2.4329    0.8041    4.5026 H         1 <0>         0.0000
     55 H26         0.0522    1.2357    5.3337 H         1 <0>         0.0000
     56 H27        -0.0811   -0.4740    5.7253 H         1 <0>         0.0000
     57 H28         1.9066    1.4966    6.9446 H         1 <0>         0.0000
     58 H29         1.8497   -0.2427    7.3115 H         1 <0>         0.0000
     59 H30         0.5486    1.0998    8.7744 H         1 <0>         0.0000
@<TRIPOS>BOND
     1    1    4 ar
     2    1    9 ar
     3    1   30 1
     4    2    5 ar
     5    2    8 ar
     6    2   31 1
     7    3    6 ar
     8    3    8 ar
     9    3   32 1
    10    4   11 ar
    11    4   33 1
    12    5   12 ar
    13    5   34 1
    14    6   12 ar
    15    6   35 1
    16    7   10 ar
    17    7   11 ar
    18    7   36 1
    19    8   13 1
    20    9   10 ar
    21    9   14 1
    22   10   15 1
    23   11   28 1
    24   12   29 1
    25   13   14 2
    26   13   16 1
    27   14   20 1
    28   15   17 1
    29   15   37 1
    30   15   38 1
    31   16   17 1
    32   16   39 1
    33   16   40 1
    34   17   41 1
    35   17   42 1
    36   18   28 1
    37   18   43 1
    38   18   44 1
    39   18   45 1
    40   19   29 1
    41   19   46 1
    42   19   47 1
    43   19   48 1
    44   20   21 1
    45   20   49 1
    46   20   50 1
    47   21   22 1
    48   21   51 1
    49   21   52 1
    50   22   23 1
    51   22   53 1
    52   22   54 1
    53   23   24 1
    54   23   55 1
    55   23   56 1
    56   24   27 1
    57   24   57 1
    58   24   58 1
    59   25   29 2
    60   26   29 2
    61   27   59 1
