@<TRIPOS>MOLECULE
*****
   54    56     0     0     0
SMALL
NO_CHARGES

@<TRIPOS>ATOM
      1 C1          6.6356   -1.7373   -1.3199 C.ar      1 <0>         0.0000
      2 C2          5.3367   -1.4303   -1.7121 C.ar      1 <0>         0.0000
      3 C3          7.2710   -0.9843   -0.3256 C.ar      1 <0>         0.0000
      4 C4          5.2965    0.4700   -0.1578 C.ar      1 <0>         0.0000
      5 C5          4.6848   -0.3432   -1.1302 C.ar      1 <0>         0.0000
      6 C6          6.6001    0.1168    0.2386 C.ar      1 <0>         0.0000
      7 C7         10.9547   -1.0140   -0.6803 C.2       1 <0>         0.0000
      8 C8          9.8491   -3.3112   -1.0153 C.2       1 <0>         0.0000
      9 C9          8.6282   -1.4309    0.1380 C.2       1 <0>         0.0000
     10 C10        11.8944   -1.5680    0.3776 C.3       1 <0>         0.0000
     11 C11        11.1125   -3.8617   -0.3878 C.3       1 <0>         0.0000
     12 C12        11.6013   -3.0178    0.7977 C.3       1 <0>         0.0000
     13 C13         3.8981    6.8907   -0.1725 C.3       1 <0>         0.0000
     14 C14         3.9515    6.1767   -1.5307 C.3       1 <0>         0.0000
     15 C15         3.3900    5.9490    0.9282 C.3       1 <0>         0.0000
     16 C16         4.7850    4.8893   -1.4568 C.3       1 <0>         0.0000
     17 C17         4.2299    4.6636    0.9982 C.3       1 <0>         0.0000
     18 C18         9.6530   -1.7805   -0.9612 C.3       1 <0>         0.0000
     19 C19         4.2686    3.9595   -0.3627 C.3       1 <0>         0.0000
     20 C20         1.9696   -0.6942   -0.3859 C.3       1 <0>         0.0000
     21 C21         4.6452    1.7186    0.4020 C.3       1 <0>         0.0000
     22 O1         11.2066   -0.0073   -1.3159 O.2       1 <0>         0.0000
     23 O2          9.0181   -4.0112   -1.5666 O.2       1 <0>         0.0000
     24 O3          8.9126   -1.5270    1.3187 O.2       1 <0>         0.0000
     25 O4          2.7265    1.3816   -1.8755 O.2       1 <0>         0.0000
     26 O5          2.7899   -0.9578   -2.8855 O.2       1 <0>         0.0000
     27 O6          5.1331    2.8123   -0.3574 O.3       1 <0>         0.0000
     28 S1          2.9874   -0.0579   -1.7398 S.o2      1 <0>         0.0000
     29 Cl1         7.4336    1.1264    1.4001 Cl        1 <0>         0.0000
     30 H1          7.1524   -2.5830   -1.7649 H         1 <0>         0.0000
     31 H2          4.8311   -2.0134   -2.4741 H         1 <0>         0.0000
     32 H3         12.9049   -1.4627   -0.0313 H         1 <0>         0.0000
     33 H4         11.8368   -0.8950    1.2400 H         1 <0>         0.0000
     34 H5         10.9294   -4.9044   -0.1167 H         1 <0>         0.0000
     35 H6         11.8722   -3.8677   -1.1843 H         1 <0>         0.0000
     36 H7         10.8455   -3.0283    1.5854 H         1 <0>         0.0000
     37 H8         12.5075   -3.4679    1.2130 H         1 <0>         0.0000
     38 H9          3.2585    7.7791   -0.2348 H         1 <0>         0.0000
     39 H10         4.9046    7.2436    0.0911 H         1 <0>         0.0000
     40 H11         2.9299    5.9308   -1.8510 H         1 <0>         0.0000
     41 H12         4.3658    6.8430   -2.2958 H         1 <0>         0.0000
     42 H13         3.4006    6.4546    1.9008 H         1 <0>         0.0000
     43 H14         2.3426    5.6869    0.7237 H         1 <0>         0.0000
     44 H15         4.7682    4.3546   -2.4116 H         1 <0>         0.0000
     45 H16         5.8327    5.1328   -1.2381 H         1 <0>         0.0000
     46 H17         5.2602    4.9019    1.2925 H         1 <0>         0.0000
     47 H18         3.8230    3.9935    1.7652 H         1 <0>         0.0000
     48 H19         9.2761   -1.4500   -1.9294 H         1 <0>         0.0000
     49 H20         3.2560    3.6230   -0.6306 H         1 <0>         0.0000
     50 H21         0.9333   -0.5691   -0.7073 H         1 <0>         0.0000
     51 H22         2.2037   -1.7498   -0.2431 H         1 <0>         0.0000
     52 H23         2.1605   -0.1193    0.5208 H         1 <0>         0.0000
     53 H24         3.5570    1.6622    0.3220 H         1 <0>         0.0000
     54 H25         4.9002    1.8235    1.4628 H         1 <0>         0.0000
@<TRIPOS>BOND
     1    1    2 ar
     2    1    3 ar
     3    1   30 1
     4    2    5 ar
     5    2   31 1
     6    3    6 ar
     7    3    9 1
     8    4    5 ar
     9    4    6 ar
    10    4   21 1
    11    5   28 1
    12    6   29 1
    13    7   10 1
    14    7   18 1
    15    7   22 2
    16    8   11 1
    17    8   18 1
    18    8   23 2
    19    9   18 1
    20    9   24 2
    21   10   12 1
    22   10   32 1
    23   10   33 1
    24   11   12 1
    25   11   34 1
    26   11   35 1
    27   12   36 1
    28   12   37 1
    29   13   15 1
    30   13   14 1
    31   13   38 1
    32   13   39 1
    33   14   16 1
    34   14   40 1
    35   14   41 1
    36   15   17 1
    37   15   42 1
    38   15   43 1
    39   16   19 1
    40   16   44 1
    41   16   45 1
    42   17   19 1
    43   17   46 1
    44   17   47 1
    45   18   48 1
    46   19   27 1
    47   19   49 1
    48   20   28 1
    49   20   50 1
    50   20   51 1
    51   20   52 1
    52   21   27 1
    53   21   53 1
    54   21   54 1
    55   25   28 2
    56   26   28 2
