@<TRIPOS>MOLECULE
*****
   76    79     0     0     0
SMALL
NO_CHARGES

@<TRIPOS>ATOM
      1 C1          9.7517   -5.3458    7.1241 C.ar      1 <0>         0.0000
      2 C2          9.0605   -6.5024    6.7445 C.ar      1 <0>         0.0000
      3 C3          9.1057   -4.4025    7.9245 C.ar      1 <0>         0.0000
      4 C4          7.7446   -6.7042    7.1639 C.ar      1 <0>         0.0000
      5 C5          7.7852   -4.6112    8.3420 C.ar      1 <0>         0.0000
      6 C6          3.3756   -5.0345    4.0869 C.ar      1 <0>         0.0000
      7 C7          2.1748   -4.9359    3.3766 C.ar      1 <0>         0.0000
      8 C8         -0.8979   -1.0338    2.2213 C.ar      1 <0>         0.0000
      9 C9         -1.0720   -2.5811    0.3814 C.ar      1 <0>         0.0000
     10 C10         1.0835   -4.0897    5.3919 C.ar      1 <0>         0.0000
     11 C11        -0.5446   -2.0792    3.0898 C.ar      1 <0>         0.0000
     12 C12         7.0753   -5.7639    7.9723 C.ar      1 <0>         0.0000
     13 C13         3.4543   -4.6746    5.4310 C.ar      1 <0>         0.0000
     14 C14        -1.1626   -1.2684    0.8720 C.ar      1 <0>         0.0000
     15 C15         1.0500   -4.4713    4.0403 C.ar      1 <0>         0.0000
     16 C16        -0.4587   -3.3764    2.5864 C.ar      1 <0>         0.0000
     17 C17        -0.7194   -3.6382    1.2255 C.ar      1 <0>         0.0000
     18 C18         2.3003   -4.1973    6.0895 C.ar      1 <0>         0.0000
     19 C19        -0.2279   -3.7028    6.0102 C.2       1 <0>         0.0000
     20 C20        -0.2218   -1.7588    4.5307 C.3       1 <0>         0.0000
     21 C21        -1.5504   -0.1420   -0.0588 C.3       1 <0>         0.0000
     22 C22        -0.4917   -8.7738   -2.1885 C.3       1 <0>         0.0000
     23 C23        -2.2329   -7.0172   -2.6971 C.3       1 <0>         0.0000
     24 C24         5.1026   -4.9449    9.3730 C.3       1 <0>         0.0000
     25 C25         5.5156   -7.3813    9.0965 C.3       1 <0>         0.0000
     26 C26         1.6982   -2.8662    8.0476 C.3       1 <0>         0.0000
     27 C27        -0.6897   -6.7722   -0.6733 C.3       1 <0>         0.0000
     28 C28         4.6909   -6.0437    7.1405 C.3       1 <0>         0.0000
     29 C29        -0.8885   -5.2707   -0.5231 C.3       1 <0>         0.0000
     30 C30         4.7469   -4.8097    6.2095 C.3       1 <0>         0.0000
     31 C31        -0.8330   -7.2783   -2.1191 C.3       1 <0>         0.0000
     32 C32         5.6188   -6.0111    8.3883 C.3       1 <0>         0.0000
     33 O1         -0.7404   -4.3083    6.9267 O.2       1 <0>         0.0000
     34 O2         -0.1877   -4.4620    3.4044 O.3       1 <0>         0.0000
     35 O3         -0.8710   -2.6199    5.4915 O.3       1 <0>         0.0000
     36 O4          5.8157   -4.8967    5.2604 O.3       1 <0>         0.0000
     37 O5          2.4916   -3.8696    7.4045 O.3       1 <0>         0.0000
     38 O6         -0.5857   -4.9363    0.8361 O.3       1 <0>         0.0000
     39 H1         10.7753   -5.1836    6.7968 H         1 <0>         0.0000
     40 H2          9.5444   -7.2454    6.1156 H         1 <0>         0.0000
     41 H3          9.6259   -3.4968    8.2264 H         1 <0>         0.0000
     42 H4          7.2269   -7.6023    6.8400 H         1 <0>         0.0000
     43 H5          7.3124   -3.8562    8.9600 H         1 <0>         0.0000
     44 H6          4.2775   -5.3847    3.5978 H         1 <0>         0.0000
     45 H7          2.0933   -5.2338    2.3360 H         1 <0>         0.0000
     46 H8         -0.9745   -0.0228    2.6154 H         1 <0>         0.0000
     47 H9         -1.2770   -2.7661   -0.6676 H         1 <0>         0.0000
     48 H10         0.8596   -1.7715    4.6968 H         1 <0>         0.0000
     49 H11        -0.5878   -0.7581    4.7680 H         1 <0>         0.0000
     50 H12        -0.8372   -0.0471   -0.8854 H         1 <0>         0.0000
     51 H13        -2.5389   -0.3142   -0.4993 H         1 <0>         0.0000
     52 H14        -1.5815    0.8159    0.4671 H         1 <0>         0.0000
     53 H15        -1.1951   -9.3621   -1.5869 H         1 <0>         0.0000
     54 H16         0.5172   -8.9713   -1.8099 H         1 <0>         0.0000
     55 H17        -0.5439   -9.1434   -3.2184 H         1 <0>         0.0000
     56 H18        -3.0041   -7.4865   -2.0737 H         1 <0>         0.0000
     57 H19        -2.3215   -7.4344   -3.7060 H         1 <0>         0.0000
     58 H20        -2.4625   -5.9488   -2.7640 H         1 <0>         0.0000
     59 H21         4.0721   -5.1783    9.6553 H         1 <0>         0.0000
     60 H22         5.0956   -3.9395    8.9441 H         1 <0>         0.0000
     61 H23         5.7072   -4.9232   10.2858 H         1 <0>         0.0000
     62 H24         4.4826   -7.5687    9.4093 H         1 <0>         0.0000
     63 H25         5.8182   -8.2052    8.4444 H         1 <0>         0.0000
     64 H26         6.1530   -7.4057    9.9867 H         1 <0>         0.0000
     65 H27         2.3175   -2.4809    8.8603 H         1 <0>         0.0000
     66 H28         0.7746   -3.2876    8.4469 H         1 <0>         0.0000
     67 H29         1.4641   -2.0476    7.3572 H         1 <0>         0.0000
     68 H30         0.3104   -7.0184   -0.2982 H         1 <0>         0.0000
     69 H31        -1.4052   -7.2911   -0.0236 H         1 <0>         0.0000
     70 H32         4.9160   -6.9190    6.5207 H         1 <0>         0.0000
     71 H33         3.6670   -6.1693    7.5030 H         1 <0>         0.0000
     72 H34        -0.2179   -4.7220   -1.1998 H         1 <0>         0.0000
     73 H35        -1.9203   -4.9756   -0.7481 H         1 <0>         0.0000
     74 H36         4.8716   -3.9038    6.8149 H         1 <0>         0.0000
     75 H37        -0.1033   -6.7385   -2.7400 H         1 <0>         0.0000
     76 H38         6.6378   -5.0409    5.7567 H         1 <0>         0.0000
@<TRIPOS>BOND
     1    1    3 ar
     2    1    2 ar
     3    1   39 1
     4    2    4 ar
     5    2   40 1
     6    3    5 ar
     7    3   41 1
     8    4   12 ar
     9    4   42 1
    10    5   12 ar
    11    5   43 1
    12    6    7 ar
    13    6   13 ar
    14    6   44 1
    15    7   15 ar
    16    7   45 1
    17    8   11 ar
    18    8   14 ar
    19    8   46 1
    20    9   14 ar
    21    9   17 ar
    22    9   47 1
    23   10   15 ar
    24   10   18 ar
    25   10   19 1
    26   11   16 ar
    27   11   20 1
    28   12   32 1
    29   13   18 ar
    30   13   30 1
    31   14   21 1
    32   15   34 1
    33   16   17 ar
    34   16   34 1
    35   17   38 1
    36   18   37 1
    37   19   33 2
    38   19   35 1
    39   20   35 1
    40   20   48 1
    41   20   49 1
    42   21   50 1
    43   21   51 1
    44   21   52 1
    45   22   31 1
    46   22   53 1
    47   22   54 1
    48   22   55 1
    49   23   31 1
    50   23   56 1
    51   23   57 1
    52   23   58 1
    53   24   32 1
    54   24   59 1
    55   24   60 1
    56   24   61 1
    57   25   32 1
    58   25   62 1
    59   25   63 1
    60   25   64 1
    61   26   37 1
    62   26   65 1
    63   26   66 1
    64   26   67 1
    65   27   29 1
    66   27   31 1
    67   27   68 1
    68   27   69 1
    69   28   30 1
    70   28   32 1
    71   28   70 1
    72   28   71 1
    73   29   38 1
    74   29   72 1
    75   29   73 1
    76   30   36 1
    77   30   74 1
    78   31   75 1
    79   36   76 1
