@<TRIPOS>MOLECULE
*****
   24    24     0     0     0
SMALL
NO_CHARGES

@<TRIPOS>ATOM
      1 C1          0.9996   -0.5898   -0.0634 C.2       1 <0>         0.0000
      2 C2          1.1813    1.9278   -0.0387 C.2       1 <0>         0.0000
      3 C3         -0.4564   -0.9729    1.8695 C.3       1 <0>         0.0000
      4 C4          1.3805    0.6531    0.7667 C.3       1 <0>         0.0000
      5 C5         -0.3254   -1.2108    0.3628 C.3       1 <0>         0.0000
      6 C6         -1.4810   -0.5882   -0.4466 C.3       1 <0>         0.0000
      7 C7          0.5615    4.9469    0.4578 C.3       1 <0>         0.0000
      8 C8          1.7668    4.2356   -0.1385 C.3       1 <0>         0.0000
      9 O1          1.7216   -1.0117   -0.9415 O.2       1 <0>         0.0000
     10 O2          0.4201    2.0406   -0.9794 O.2       1 <0>         0.0000
     11 O3          1.9451    2.9190    0.4597 O.3       1 <0>         0.0000
     12 S1          0.2738    0.6904    2.2393 S.3       1 <0>         0.0000
     13 H1         -1.4971   -0.9572    2.2005 H         1 <0>         0.0000
     14 H2          0.0842   -1.7321    2.4405 H         1 <0>         0.0000
     15 H3          2.4260    0.5719    1.0712 H         1 <0>         0.0000
     16 H4         -0.2690   -2.2812    0.1440 H         1 <0>         0.0000
     17 H5         -1.5828    0.4785   -0.2374 H         1 <0>         0.0000
     18 H6         -2.4179   -1.0917   -0.1873 H         1 <0>         0.0000
     19 H7         -1.3058   -0.7063   -1.5187 H         1 <0>         0.0000
     20 H8         -0.3623    4.4154    0.2173 H         1 <0>         0.0000
     21 H9          0.6551    5.0230    1.5451 H         1 <0>         0.0000
     22 H10         0.4934    5.9593    0.0451 H         1 <0>         0.0000
     23 H11         2.6978    4.7570    0.0910 H         1 <0>         0.0000
     24 H12         1.6716    4.1183   -1.2197 H         1 <0>         0.0000
@<TRIPOS>BOND
     1    1    4 1
     2    1    5 1
     3    1    9 2
     4    2    4 1
     5    2   10 2
     6    2   11 1
     7    3    5 1
     8    3   12 1
     9    3   13 1
    10    3   14 1
    11    4   12 1
    12    4   15 1
    13    5    6 1
    14    5   16 1
    15    6   17 1
    16    6   18 1
    17    6   19 1
    18    7    8 1
    19    7   20 1
    20    7   21 1
    21    7   22 1
    22    8   11 1
    23    8   23 1
    24    8   24 1
