@<TRIPOS>MOLECULE
*****
   37    37     0     0     0
SMALL
NO_CHARGES

@<TRIPOS>ATOM
      1 C1         -0.1123    4.1866    2.5784 C.2       1 <0>         0.0000
      2 C2          1.3684    3.3115    1.3651 C.2       1 <0>         0.0000
      3 C3         -0.4741    1.4579   -0.6242 C.2       1 <0>         0.0000
      4 C4         -1.7434    1.3549   -1.0509 C.2       1 <0>         0.0000
      5 C5         -2.0983    1.6775   -2.4824 C.3       1 <0>         0.0000
      6 C6         -2.9096    0.9179   -0.1995 C.3       1 <0>         0.0000
      7 C7         -0.1729   -1.7301    1.4270 C.3       1 <0>         0.0000
      8 C8          2.2949   -1.9913    1.0746 C.3       1 <0>         0.0000
      9 C9          0.7904   -1.5713   -0.8857 C.3       1 <0>         0.0000
     10 C10         0.0338    1.1898    0.7694 C.3       1 <0>         0.0000
     11 C11         1.2805    0.2752    0.8479 C.3       1 <0>         0.0000
     12 C12         1.0322   -1.2430    0.6009 C.3       1 <0>         0.0000
     13 N1          1.1372    4.4104    2.0770 N.2       1 <0>         0.0000
     14 N2         -0.6601    3.0282    2.2255 N.2       1 <0>         0.0000
     15 N3          0.3120    2.4671    1.4503 N.pl3     1 <0>         0.0000
     16 O1          2.3487    0.7841    0.0370 O.3       1 <0>         0.0000
     17 H1         -0.6304    4.8857    3.2226 H         1 <0>         0.0000
     18 H2          2.2598    3.0747    0.8022 H         1 <0>         0.0000
     19 H3          0.2727    1.8254   -1.3278 H         1 <0>         0.0000
     20 H4         -2.5701    0.8147   -2.9701 H         1 <0>         0.0000
     21 H5         -2.8246    2.4986   -2.5251 H         1 <0>         0.0000
     22 H6         -1.2213    1.9654   -3.0682 H         1 <0>         0.0000
     23 H7         -3.7270    1.6431   -0.2870 H         1 <0>         0.0000
     24 H8         -2.6688    0.8257    0.8597 H         1 <0>         0.0000
     25 H9         -3.3033   -0.0437   -0.5536 H         1 <0>         0.0000
     26 H10        -1.1242   -1.3728    1.0213 H         1 <0>         0.0000
     27 H11        -0.1023   -1.4065    2.4721 H         1 <0>         0.0000
     28 H12        -0.2087   -2.8246    1.4236 H         1 <0>         0.0000
     29 H13         3.1891   -1.6135    0.5712 H         1 <0>         0.0000
     30 H14         2.2070   -3.0625    0.8635 H         1 <0>         0.0000
     31 H15         2.4404   -1.8733    2.1544 H         1 <0>         0.0000
     32 H16         1.6653   -1.3406   -1.5055 H         1 <0>         0.0000
     33 H17         0.6068   -2.6450   -0.9990 H         1 <0>         0.0000
     34 H18        -0.0724   -1.0380   -1.2916 H         1 <0>         0.0000
     35 H19        -0.7460    0.7419    1.3788 H         1 <0>         0.0000
     36 H20         1.6554    0.3712    1.8721 H         1 <0>         0.0000
     37 H21         2.1302    0.6085   -0.8914 H         1 <0>         0.0000
@<TRIPOS>BOND
     1    1   13 1
     2    1   14 2
     3    1   17 1
     4    2   13 2
     5    2   15 1
     6    2   18 1
     7    3    4 2
     8    3   10 1
     9    3   19 1
    10    4    5 1
    11    4    6 1
    12    5   20 1
    13    5   21 1
    14    5   22 1
    15    6   23 1
    16    6   24 1
    17    6   25 1
    18    7   12 1
    19    7   26 1
    20    7   27 1
    21    7   28 1
    22    8   12 1
    23    8   29 1
    24    8   30 1
    25    8   31 1
    26    9   12 1
    27    9   32 1
    28    9   33 1
    29    9   34 1
    30   10   11 1
    31   10   15 1
    32   10   35 1
    33   11   12 1
    34   11   16 1
    35   11   36 1
    36   14   15 1
    37   16   37 1
