@<TRIPOS>MOLECULE
*****
   28    29     0     0     0
SMALL
NO_CHARGES

@<TRIPOS>ATOM
      1 C1          2.2356   -1.0130    0.0568 C.ar      1 <0>         0.0000
      2 C2          1.2125   -0.4353    0.8130 C.ar      1 <0>         0.0000
      3 C3          3.3085   -1.7206    2.0831 C.ar      1 <0>         0.0000
      4 C4          3.3035   -1.6666    0.6828 C.ar      1 <0>         0.0000
      5 C5          1.2160   -0.4863    2.2126 C.ar      1 <0>         0.0000
      6 C6          2.2887   -1.1461    2.8542 C.ar      1 <0>         0.0000
      7 C7          2.8029    0.1048    5.0480 C.2       1 <0>         0.0000
      8 C8          5.1755   -1.5396   -1.1433 C.3       1 <0>         0.0000
      9 C9          5.8438   -2.0004    0.1360 C.3       1 <0>         0.0000
     10 C10         4.3868   -2.3242   -0.1169 C.3       1 <0>         0.0000
     11 C11         0.1041    0.1577    3.0076 C.3       1 <0>         0.0000
     12 C12         2.3696   -1.1992    4.3628 C.3       1 <0>         0.0000
     13 O1          2.6213    0.3224    6.2237 O.2       1 <0>         0.0000
     14 O2          3.4456    1.0119    4.2652 O.3       1 <0>         0.0000
     15 H1          2.2085   -0.9527   -1.0285 H         1 <0>         0.0000
     16 H2          0.3946    0.0711    0.3054 H         1 <0>         0.0000
     17 H3          4.1339   -2.2230    2.5844 H         1 <0>         0.0000
     18 H4          4.9574   -0.4797   -1.2390 H         1 <0>         0.0000
     19 H5          5.4437   -2.0330   -2.0728 H         1 <0>         0.0000
     20 H6          6.5680   -2.8076    0.0792 H         1 <0>         0.0000
     21 H7          6.0676   -1.2435    0.8825 H         1 <0>         0.0000
     22 H8          4.1795   -3.3600   -0.3814 H         1 <0>         0.0000
     23 H9         -0.4268   -0.5763    3.6246 H         1 <0>         0.0000
     24 H10         0.4812    0.9312    3.6857 H         1 <0>         0.0000
     25 H11        -0.6278    0.6263    2.3452 H         1 <0>         0.0000
     26 H12         3.0968   -1.9554    4.6770 H         1 <0>         0.0000
     27 H13         1.4179   -1.4788    4.8202 H         1 <0>         0.0000
     28 H14         3.4689    0.6792    3.3475 H         1 <0>         0.0000
@<TRIPOS>BOND
     1    1    2 ar
     2    1    4 ar
     3    1   15 1
     4    2    5 ar
     5    2   16 1
     6    3    4 ar
     7    3    6 ar
     8    3   17 1
     9    4   10 1
    10    5    6 ar
    11    5   11 1
    12    6   12 1
    13    7   12 1
    14    7   13 2
    15    7   14 1
    16    8    9 1
    17    8   10 1
    18    8   18 1
    19    8   19 1
    20    9   10 1
    21    9   20 1
    22    9   21 1
    23   10   22 1
    24   11   23 1
    25   11   24 1
    26   11   25 1
    27   12   26 1
    28   12   27 1
    29   14   28 1
