@<TRIPOS>MOLECULE
*****
   28    29     0     0     0
SMALL
NO_CHARGES

@<TRIPOS>ATOM
      1 C1          2.0043   -1.0427   -0.2854 C.ar      1 <0>         0.0000
      2 C2          0.9261   -0.5429    0.4483 C.ar      1 <0>         0.0000
      3 C3          2.9818   -1.8571    1.7480 C.ar      1 <0>         0.0000
      4 C4          3.0542   -1.7084    0.3574 C.ar      1 <0>         0.0000
      5 C5          0.8557   -0.6851    1.8398 C.ar      1 <0>         0.0000
      6 C6          1.9079   -1.3592    2.4922 C.ar      1 <0>         0.0000
      7 C7          2.2627   -0.2820    4.7808 C.2       1 <0>         0.0000
      8 C8          5.0337   -1.3891   -1.3243 C.3       1 <0>         0.0000
      9 C9          5.6313   -1.9380   -0.0446 C.3       1 <0>         0.0000
     10 C10         4.2038   -2.2749   -0.4196 C.3       1 <0>         0.0000
     11 C11        -0.3107   -0.1072    2.6063 C.3       1 <0>         0.0000
     12 C12         1.9055   -1.5441    3.9900 C.3       1 <0>         0.0000
     13 O1          2.4985    0.8023    4.3096 O.2       1 <0>         0.0000
     14 O2          2.2990   -0.4597    6.1386 O.3       1 <0>         0.0000
     15 H1          2.0356   -0.9105   -1.3644 H         1 <0>         0.0000
     16 H2          0.1232   -0.0233   -0.0699 H         1 <0>         0.0000
     17 H3          3.7949   -2.3683    2.2606 H         1 <0>         0.0000
     18 H4          4.7900   -0.3309   -1.3464 H         1 <0>         0.0000
     19 H5          5.3763   -1.7969   -2.2709 H         1 <0>         0.0000
     20 H6          6.3824   -2.7191   -0.1187 H         1 <0>         0.0000
     21 H7          5.7810   -1.2393    0.7736 H         1 <0>         0.0000
     22 H8          4.0455   -3.2897   -0.7823 H         1 <0>         0.0000
     23 H9         -0.8157   -0.8655    3.2171 H         1 <0>         0.0000
     24 H10         0.0170    0.6929    3.2778 H         1 <0>         0.0000
     25 H11        -1.0556    0.3116    1.9248 H         1 <0>         0.0000
     26 H12         2.6216   -2.3259    4.2702 H         1 <0>         0.0000
     27 H13         0.9244   -1.8863    4.3449 H         1 <0>         0.0000
     28 H14         2.0875   -1.3829    6.3593 H         1 <0>         0.0000
@<TRIPOS>BOND
     1    1    2 ar
     2    1    4 ar
     3    1   15 1
     4    2    5 ar
     5    2   16 1
     6    3    4 ar
     7    3    6 ar
     8    3   17 1
     9    4   10 1
    10    5    6 ar
    11    5   11 1
    12    6   12 1
    13    7   12 1
    14    7   13 2
    15    7   14 1
    16    8    9 1
    17    8   10 1
    18    8   18 1
    19    8   19 1
    20    9   10 1
    21    9   20 1
    22    9   21 1
    23   10   22 1
    24   11   23 1
    25   11   24 1
    26   11   25 1
    27   12   26 1
    28   12   27 1
    29   14   28 1
