@<TRIPOS>MOLECULE
*****
   22    23     0     0     0
SMALL
NO_CHARGES

@<TRIPOS>ATOM
      1 C1          1.0815    1.0755    1.5860 C.ar      1 <0>         0.0000
      2 C2          1.1750    2.4245    1.2268 C.ar      1 <0>         0.0000
      3 C3         -0.2779    2.0101   -0.6826 C.ar      1 <0>         0.0000
      4 C4         -0.3796    0.6600   -0.3227 C.ar      1 <0>         0.0000
      5 C5          0.3222    0.2044    0.8108 C.ar      1 <0>         0.0000
      6 C6          0.4995    2.8725    0.0892 C.ar      1 <0>         0.0000
      7 C7         -1.0808   -1.4595   -0.8247 C.2       1 <0>         0.0000
      8 C8         -0.0102   -2.0220    0.0979 C.3       1 <0>         0.0000
      9 C9          1.2894   -2.3012   -0.6634 C.3       1 <0>         0.0000
     10 N1         -1.2223   -0.1975   -1.0477 N.2       1 <0>         0.0000
     11 N2         -1.8324   -2.3826   -1.5180 N.pl3     1 <0>         0.0000
     12 O1          0.2064   -1.1158    1.1915 O.3       1 <0>         0.0000
     13 Cl1         0.6219    4.5668   -0.3748 Cl        1 <0>         0.0000
     14 H1          1.5979    0.6948    2.4624 H         1 <0>         0.0000
     15 H2          1.7682    3.1134    1.8190 H         1 <0>         0.0000
     16 H3         -0.8209    2.3644   -1.5526 H         1 <0>         0.0000
     17 H4         -0.3664   -2.9407    0.5738 H         1 <0>         0.0000
     18 H5          1.6679   -1.3862   -1.1274 H         1 <0>         0.0000
     19 H6          1.1165   -3.0412   -1.4505 H         1 <0>         0.0000
     20 H7          2.0461   -2.6846    0.0270 H         1 <0>         0.0000
     21 H8         -2.6171   -1.9877   -2.0268 H         1 <0>         0.0000
     22 H9         -2.0252   -3.2648   -1.0604 H         1 <0>         0.0000
@<TRIPOS>BOND
     1    1    2 ar
     2    1    5 ar
     3    1   14 1
     4    2    6 ar
     5    2   15 1
     6    3    4 ar
     7    3    6 ar
     8    3   16 1
     9    4    5 ar
    10    4   10 1
    11    5   12 1
    12    6   13 1
    13    7    8 1
    14    7   10 2
    15    7   11 1
    16    8    9 1
    17    8   12 1
    18    8   17 1
    19    9   18 1
    20    9   19 1
    21    9   20 1
    22   11   21 1
    23   11   22 1
