@<TRIPOS>MOLECULE
*****
   28    29     0     0     0
SMALL
NO_CHARGES

@<TRIPOS>ATOM
      1 C1          2.0949   -1.4009    0.0951 C.ar      1 <0>         0.0000
      2 C2          1.0374   -0.9210    0.8726 C.ar      1 <0>         0.0000
      3 C3          3.2638   -2.0157    2.0985 C.ar      1 <0>         0.0000
      4 C4          3.2281   -1.9580    0.6983 C.ar      1 <0>         0.0000
      5 C5          1.0699   -0.9787    2.2713 C.ar      1 <0>         0.0000
      6 C6          2.2113   -1.5374    2.8905 C.ar      1 <0>         0.0000
      7 C7          1.4359   -2.7859    5.0071 C.2       1 <0>         0.0000
      8 C8          4.8854   -3.8661    0.0101 C.3       1 <0>         0.0000
      9 C9          4.1819   -3.4187   -1.2550 C.3       1 <0>         0.0000
     10 C10         4.3878   -2.4416   -0.1182 C.3       1 <0>         0.0000
     11 C11        -0.0920   -0.4640    3.0888 C.3       1 <0>         0.0000
     12 C12         2.2874   -1.6645    4.3949 C.3       1 <0>         0.0000
     13 O1          1.1359   -2.8207    6.1782 O.2       1 <0>         0.0000
     14 O2          1.0536   -3.7806    4.1627 O.3       1 <0>         0.0000
     15 H1          2.0394   -1.3458   -0.9894 H         1 <0>         0.0000
     16 H2          0.1648   -0.4956    0.3820 H         1 <0>         0.0000
     17 H3          4.1370   -2.4503    2.5819 H         1 <0>         0.0000
     18 H4          4.3406   -4.5294    0.6761 H         1 <0>         0.0000
     19 H5          5.9562   -4.0427   -0.0284 H         1 <0>         0.0000
     20 H6          4.7730   -3.2906   -2.1569 H         1 <0>         0.0000
     21 H7          3.1742   -3.7880   -1.4224 H         1 <0>         0.0000
     22 H8          5.1614   -1.6927   -0.2811 H         1 <0>         0.0000
     23 H9         -0.5296   -1.2484    3.7162 H         1 <0>         0.0000
     24 H10         0.2155    0.3464    3.7595 H         1 <0>         0.0000
     25 H11        -0.8831   -0.0779    2.4416 H         1 <0>         0.0000
     26 H12         1.9889   -0.7459    4.9051 H         1 <0>         0.0000
     27 H13         3.3172   -1.8698    4.7061 H         1 <0>         0.0000
     28 H14         1.3558   -3.5642    3.2598 H         1 <0>         0.0000
@<TRIPOS>BOND
     1    1    2 ar
     2    1    4 ar
     3    1   15 1
     4    2    5 ar
     5    2   16 1
     6    3    4 ar
     7    3    6 ar
     8    3   17 1
     9    4   10 1
    10    5    6 ar
    11    5   11 1
    12    6   12 1
    13    7   12 1
    14    7   13 2
    15    7   14 1
    16    8    9 1
    17    8   10 1
    18    8   18 1
    19    8   19 1
    20    9   10 1
    21    9   20 1
    22    9   21 1
    23   10   22 1
    24   11   23 1
    25   11   24 1
    26   11   25 1
    27   12   26 1
    28   12   27 1
    29   14   28 1
