@<TRIPOS>MOLECULE
*****
   23    24     0     0     0
SMALL
NO_CHARGES

@<TRIPOS>ATOM
      1 C1         -1.3888    1.6389    0.4470 C.ar      1 <0>         0.0000
      2 C2         -0.9747    2.7612   -0.2732 C.ar      1 <0>         0.0000
      3 C3          0.7052    1.4347   -1.4279 C.ar      1 <0>         0.0000
      4 C4          0.2708    0.3232   -0.7074 C.ar      1 <0>         0.0000
      5 C5         -0.7592    0.4170    0.2338 C.ar      1 <0>         0.0000
      6 C6          0.0706    2.6578   -1.2004 C.ar      1 <0>         0.0000
      7 C7          0.6044   -1.9778   -0.1074 C.cat     1 <0>         0.0000
      8 C8         -0.1528   -1.6622    1.1745 C.3       1 <0>         0.0000
      9 C9          0.8067   -1.1822    2.2686 C.3       1 <0>         0.0000
     10 N1          0.8257   -0.9715   -0.9357 N.pl3     1 <0>         0.0000
     11 N2          1.0388   -3.2127   -0.3370 N.pl3     1 <0>         0.0000
     12 O1         -1.1856   -0.7204    0.8866 O.3       1 <0>         0.0000
     13 Cl1         0.5906    4.0632   -2.0835 Cl        1 <0>         0.0000
     14 H1         -2.1973    1.7027    1.1683 H         1 <0>         0.0000
     15 H2         -1.4575    3.7193   -0.1119 H         1 <0>         0.0000
     16 H3          1.5123    1.3591   -2.1512 H         1 <0>         0.0000
     17 H4         -0.6807   -2.5621    1.4977 H         1 <0>         0.0000
     18 H5          1.3474   -0.2831    1.9628 H         1 <0>         0.0000
     19 H6          1.5331   -1.9613    2.5176 H         1 <0>         0.0000
     20 H7          0.2224   -0.9531    3.1627 H         1 <0>         0.0000
     21 H8          1.3505   -1.1137   -1.7962 H         1 <0>         0.0000
     22 H9          1.5702   -3.4707   -1.1637 H         1 <0>         0.0000
     23 H10         0.8324   -3.9559    0.3214 H         1 <0>         0.0000
@<TRIPOS>BOND
     1    1    2 ar
     2    1    5 ar
     3    1   14 1
     4    2    6 ar
     5    2   15 1
     6    3    4 ar
     7    3    6 ar
     8    3   16 1
     9    4    5 ar
    10    4   10 1
    11    5   12 1
    12    6   13 1
    13    7    8 1
    14    7   10 2
    15    7   11 1
    16    8    9 1
    17    8   12 1
    18    8   17 1
    19    9   18 1
    20    9   19 1
    21    9   20 1
    22   10   21 1
    23   11   22 1
    24   11   23 1
