@<TRIPOS>MOLECULE
*****
   23    24     0     0     0
SMALL
NO_CHARGES

@<TRIPOS>ATOM
      1 C1         -1.4147    1.6340    0.3839 C.ar      1 <0>         0.0000
      2 C2         -1.0533    2.7139   -0.4240 C.ar      1 <0>         0.0000
      3 C3          0.6206    1.3511   -1.5445 C.ar      1 <0>         0.0000
      4 C4          0.2386    0.2815   -0.7364 C.ar      1 <0>         0.0000
      5 C5         -0.7618    0.4152    0.2315 C.ar      1 <0>         0.0000
      6 C6         -0.0370    2.5719   -1.3778 C.ar      1 <0>         0.0000
      7 C7          0.6502   -1.9651    0.0050 C.cat     1 <0>         0.0000
      8 C8         -0.0721   -1.5805    1.2883 C.3       1 <0>         0.0000
      9 C9          0.9106   -1.0052    2.3137 C.3       1 <0>         0.0000
     10 N1          0.8183   -1.0126   -0.8963 N.pl3     1 <0>         0.0000
     11 N2          1.1081   -3.2023   -0.1560 N.pl3     1 <0>         0.0000
     12 O1         -1.1374   -0.6847    0.9736 O.3       1 <0>         0.0000
     13 Cl1         0.4178    3.9257   -2.3709 Cl        1 <0>         0.0000
     14 H1         -2.2003    1.7280    1.1269 H         1 <0>         0.0000
     15 H2         -1.5546    3.6694   -0.3107 H         1 <0>         0.0000
     16 H3          1.4050    1.2452   -2.2887 H         1 <0>         0.0000
     17 H4         -0.5659   -2.4684    1.6893 H         1 <0>         0.0000
     18 H5          1.4178   -0.1167    1.9296 H         1 <0>         0.0000
     19 H6          1.6643   -1.7486    2.5892 H         1 <0>         0.0000
     20 H7          0.3505   -0.7294    3.2101 H         1 <0>         0.0000
     21 H8          1.3179   -1.2009   -1.7629 H         1 <0>         0.0000
     22 H9          1.6183   -3.5035   -0.9814 H         1 <0>         0.0000
     23 H10         0.9425   -3.9037    0.5576 H         1 <0>         0.0000
@<TRIPOS>BOND
     1    1    2 ar
     2    1    5 ar
     3    1   14 1
     4    2    6 ar
     5    2   15 1
     6    3    4 ar
     7    3    6 ar
     8    3   16 1
     9    4    5 ar
    10    4   10 1
    11    5   12 1
    12    6   13 1
    13    7    8 1
    14    7   10 1
    15    7   11 2
    16    8    9 1
    17    8   12 1
    18    8   17 1
    19    9   18 1
    20    9   19 1
    21    9   20 1
    22   10   21 1
    23   11   22 1
    24   11   23 1
