@<TRIPOS>MOLECULE
*****
   32    33     0     0     0
SMALL
NO_CHARGES

@<TRIPOS>ATOM
      1 C1          2.3415   -0.7859    0.1360 C.ar      1 <0>         0.0000
      2 C2          1.6758   -2.0131    0.2014 C.ar      1 <0>         0.0000
      3 C3          1.6059    0.3995    0.1156 C.ar      1 <0>         0.0000
      4 C4          0.2803   -2.0421    0.2086 C.ar      1 <0>         0.0000
      5 C5          0.2003    0.4026    0.1554 C.ar      1 <0>         0.0000
      6 C6         -0.4573   -0.8540    0.1725 C.ar      1 <0>         0.0000
      7 C7         -1.8595    1.7187   -0.1547 C.2       1 <0>         0.0000
      8 C8         -0.5738    1.6606    0.2434 C.2       1 <0>         0.0000
      9 C9         -2.5828    0.5420   -0.7464 C.3       1 <0>         0.0000
     10 C10         0.0590    2.8956    0.8514 C.3       1 <0>         0.0000
     11 C11         0.3923    1.7448    3.1725 C.3       1 <0>         0.0000
     12 C12        -0.0735    2.9963    2.3869 C.3       1 <0>         0.0000
     13 C13         0.7412    4.2142    2.8674 C.3       1 <0>         0.0000
     14 O1         -0.5202    0.6703    3.0466 O.3       1 <0>         0.0000
     15 O2         -1.4538    3.2461    2.6649 O.3       1 <0>         0.0000
     16 F1          0.4721    5.3345    2.1669 F         1 <0>         0.0000
     17 F2          0.4677    4.4935    4.1732 F         1 <0>         0.0000
     18 F3          2.0733    3.9850    2.7767 F         1 <0>         0.0000
     19 S1         -2.2290   -0.9681    0.2261 S.3       1 <0>         0.0000
     20 H1          3.4269   -0.7501    0.1028 H         1 <0>         0.0000
     21 H2          2.2363   -2.9438    0.2282 H         1 <0>         0.0000
     22 H3          2.1445    1.3404    0.0629 H         1 <0>         0.0000
     23 H4         -0.2440   -2.9938    0.2308 H         1 <0>         0.0000
     24 H5         -2.4146    2.6459   -0.0336 H         1 <0>         0.0000
     25 H6         -3.6655    0.6820   -0.7128 H         1 <0>         0.0000
     26 H7         -2.2948    0.3679   -1.7901 H         1 <0>         0.0000
     27 H8          1.1188    2.9654    0.6001 H         1 <0>         0.0000
     28 H9         -0.4218    3.7846    0.4391 H         1 <0>         0.0000
     29 H10         0.5149    2.0153    4.2317 H         1 <0>         0.0000
     30 H11         1.3603    1.4036    2.7977 H         1 <0>         0.0000
     31 H12        -1.4009    1.0383    2.8585 H         1 <0>         0.0000
     32 H13        -1.5517    3.4311    3.6154 H         1 <0>         0.0000
@<TRIPOS>BOND
     1    1    2 ar
     2    1    3 ar
     3    1   20 1
     4    2    4 ar
     5    2   21 1
     6    3    5 ar
     7    3   22 1
     8    4    6 ar
     9    4   23 1
    10    5    6 ar
    11    5    8 1
    12    6   19 1
    13    7    8 2
    14    7    9 1
    15    7   24 1
    16    8   10 1
    17    9   19 1
    18    9   25 1
    19    9   26 1
    20   10   12 1
    21   10   27 1
    22   10   28 1
    23   11   12 1
    24   11   14 1
    25   11   29 1
    26   11   30 1
    27   12   13 1
    28   12   15 1
    29   13   16 1
    30   13   17 1
    31   13   18 1
    32   14   31 1
    33   15   32 1
