@<TRIPOS>MOLECULE
*****
   21    22     0     0     0
SMALL
NO_CHARGES

@<TRIPOS>ATOM
      1 C1          1.8851   -1.0363   -0.1124 C.ar      1 <0>         0.0000
      2 C2          0.8066   -0.4630    0.5610 C.ar      1 <0>         0.0000
      3 C3          2.9210   -1.6309    0.6081 C.ar      1 <0>         0.0000
      4 C4          0.7638   -0.4841    1.9551 C.ar      1 <0>         0.0000
      5 C5          2.8783   -1.6520    2.0022 C.ar      1 <0>         0.0000
      6 C6          1.7997   -1.0786    2.6757 C.ar      1 <0>         0.0000
      7 C7         -0.2716    0.1564   -0.1934 C.2       1 <0>         0.0000
      8 C8         -1.9603   -0.8401   -1.8466 C.3       1 <0>         0.0000
      9 C9         -0.8641   -1.8491   -1.6801 C.3       1 <0>         0.0000
     10 C10        -0.5698   -0.3954   -1.5572 C.3       1 <0>         0.0000
     11 O1         -0.9560    1.1032    0.2003 O.2       1 <0>         0.0000
     12 F1          3.9565   -2.1816   -0.0388 F         1 <0>         0.0000
     13 F2         -0.2679    0.0636    2.6125 F         1 <0>         0.0000
     14 F3          3.8728   -2.2229    2.6941 F         1 <0>         0.0000
     15 F4          1.7590   -1.0993    4.0142 F         1 <0>         0.0000
     16 H1          1.9295   -1.0257   -1.1983 H         1 <0>         0.0000
     17 H2         -2.3323   -0.6600   -2.8479 H         1 <0>         0.0000
     18 H3         -2.7159   -0.7865   -1.0723 H         1 <0>         0.0000
     19 H4         -0.8825   -2.4710   -0.7934 H         1 <0>         0.0000
     20 H5         -0.4978   -2.3478   -2.5691 H         1 <0>         0.0000
     21 H6         -0.0098    0.0862   -2.3330 H         1 <0>         0.0000
@<TRIPOS>BOND
     1    1    2 ar
     2    1    3 ar
     3    1   16 1
     4    2    4 ar
     5    2    7 1
     6    3    5 ar
     7    3   12 1
     8    4    6 ar
     9    4   13 1
    10    5    6 ar
    11    5   14 1
    12    6   15 1
    13    7   10 1
    14    7   11 2
    15    8    9 1
    16    8   10 1
    17    8   17 1
    18    8   18 1
    19    9   10 1
    20    9   19 1
    21    9   20 1
    22   10   21 1
