@<TRIPOS>MOLECULE
*****
   25    26     0     0     0
SMALL
NO_CHARGES

@<TRIPOS>ATOM
      1 C1          2.1315   -1.2724   -0.0302 C.ar      1 <0>         0.0000
      2 C2          0.2269    2.9659    5.8931 C.ar      1 <0>         0.0000
      3 C3          3.2616   -1.3025    0.8153 C.ar      1 <0>         0.0000
      4 C4         -0.6346    1.8496    5.9615 C.ar      1 <0>         0.0000
      5 C5          0.8482   -1.1727    0.4849 C.ar      1 <0>         0.0000
      6 C6          1.5089    2.8567    5.3767 C.ar      1 <0>         0.0000
      7 C7          3.0496   -1.2404    2.1973 C.ar      1 <0>         0.0000
      8 C8         -0.1525    0.6187    5.5019 C.ar      1 <0>         0.0000
      9 C9          0.5614   -1.0841    1.9113 C.ar      1 <0>         0.0000
     10 C10         2.0631    1.6097    4.8645 C.ar      1 <0>         0.0000
     11 C11         1.7640   -1.1704    2.7353 C.ar      1 <0>         0.0000
     12 C12         1.1450    0.4829    5.0071 C.ar      1 <0>         0.0000
     13 O1         -0.6175   -0.9452    2.3474 O.3       1 <0>         0.0000
     14 O2          3.2195    1.5526    4.3561 O.3       1 <0>         0.0000
     15 O3          0.5781   -2.1084    4.9527 O.2       1 <0>         0.0000
     16 O4          3.0017   -1.4525    5.0646 O.2       1 <0>         0.0000
     17 S1          1.6462   -1.1661    4.5219 S.o2      1 <0>         0.0000
     18 H1          2.2694   -1.3194   -1.1145 H         1 <0>         0.0000
     19 H2         -0.1254    3.9398    6.2458 H         1 <0>         0.0000
     20 H3          4.2709   -1.3474    0.4090 H         1 <0>         0.0000
     21 H4         -1.6525    1.9431    6.3369 H         1 <0>         0.0000
     22 H5         -0.0182   -1.1347   -0.1761 H         1 <0>         0.0000
     23 H6          2.1625    3.7273    5.3137 H         1 <0>         0.0000
     24 H7          3.8841   -1.2369    2.8924 H         1 <0>         0.0000
     25 H8         -0.7802   -0.2676    5.5109 H         1 <0>         0.0000
@<TRIPOS>BOND
     1    1    3 ar
     2    1    5 ar
     3    1   18 1
     4    2    4 ar
     5    2    6 ar
     6    2   19 1
     7    3    7 ar
     8    3   20 1
     9    4    8 ar
    10    4   21 1
    11    5    9 ar
    12    5   22 1
    13    6   10 ar
    14    6   23 1
    15    7   11 ar
    16    7   24 1
    17    8   12 ar
    18    8   25 1
    19    9   11 ar
    20    9   13 1
    21   10   12 ar
    22   10   14 1
    23   11   17 1
    24   12   17 1
    25   15   17 2
    26   16   17 2
