@<TRIPOS>MOLECULE
*****
   25    26     0     0     0
SMALL
NO_CHARGES

@<TRIPOS>ATOM
      1 C1          2.0189   -1.3363   -0.0098 C.ar      1 <0>         0.0000
      2 C2          0.5210    3.0302    5.9395 C.ar      1 <0>         0.0000
      3 C3          0.9828   -2.0036    0.6790 C.ar      1 <0>         0.0000
      4 C4          1.8304    2.5544    6.1678 C.ar      1 <0>         0.0000
      5 C5          2.9637   -0.5790    0.6653 C.ar      1 <0>         0.0000
      6 C6         -0.4148    2.2657    5.2599 C.ar      1 <0>         0.0000
      7 C7          0.9411   -1.8894    2.0731 C.ar      1 <0>         0.0000
      8 C8          2.1566    1.2773    5.6972 C.ar      1 <0>         0.0000
      9 C9          2.9638   -0.4038    2.1123 C.ar      1 <0>         0.0000
     10 C10        -0.1329    0.9383    4.7282 C.ar      1 <0>         0.0000
     11 C11         1.9008   -1.1567    2.7727 C.ar      1 <0>         0.0000
     12 C12         1.2192    0.4814    5.0379 C.ar      1 <0>         0.0000
     13 O1          3.8108    0.3326    2.6949 O.3       1 <0>         0.0000
     14 O2         -0.9944    0.2855    4.0719 O.3       1 <0>         0.0000
     15 O3          0.7146   -2.1507    4.9270 O.2       1 <0>         0.0000
     16 O4          3.0977   -1.3880    5.1637 O.2       1 <0>         0.0000
     17 S1          1.7586   -1.1569    4.5575 S.o2      1 <0>         0.0000
     18 H1          2.0738   -1.4095   -1.1000 H         1 <0>         0.0000
     19 H2          0.2399    4.0253    6.2971 H         1 <0>         0.0000
     20 H3          0.2222   -2.5708    0.1445 H         1 <0>         0.0000
     21 H4          2.5748    3.1678    6.6731 H         1 <0>         0.0000
     22 H5          3.7516   -0.0545    0.1236 H         1 <0>         0.0000
     23 H6         -1.4196    2.6468    5.0747 H         1 <0>         0.0000
     24 H7          0.1529   -2.3631    2.6510 H         1 <0>         0.0000
     25 H8          3.1555    0.8709    5.8264 H         1 <0>         0.0000
@<TRIPOS>BOND
     1    1    3 ar
     2    1    5 ar
     3    1   18 1
     4    2    4 ar
     5    2    6 ar
     6    2   19 1
     7    3    7 ar
     8    3   20 1
     9    4    8 ar
    10    4   21 1
    11    5    9 ar
    12    5   22 1
    13    6   10 ar
    14    6   23 1
    15    7   11 ar
    16    7   24 1
    17    8   12 ar
    18    8   25 1
    19    9   11 ar
    20    9   13 1
    21   10   12 ar
    22   10   14 1
    23   11   17 1
    24   12   17 1
    25   15   17 2
    26   16   17 2
