@<TRIPOS>MOLECULE
*****
   46    47     0     0     0
SMALL
NO_CHARGES

@<TRIPOS>ATOM
      1 C1          1.9186    3.4153   -4.1796 C.ar      1 <0>         0.0000
      2 C2          2.4322    2.2787   -3.5452 C.ar      1 <0>         0.0000
      3 C3          0.5489    3.6865   -4.1036 C.ar      1 <0>         0.0000
      4 C4          1.5839    1.4230   -2.8385 C.ar      1 <0>         0.0000
      5 C5         -0.2965    2.8283   -3.3938 C.ar      1 <0>         0.0000
      6 C6          0.2085    1.6880   -2.7517 C.ar      1 <0>         0.0000
      7 C7         -0.7510    2.4579   -0.0402 C.2       1 <0>         0.0000
      8 C8         -1.5999    0.0856    0.3488 C.3       1 <0>         0.0000
      9 C9         -0.6817   -0.7845    1.2119 C.3       1 <0>         0.0000
     10 C10        -0.5853    0.9860   -0.4226 C.3       1 <0>         0.0000
     11 C11        -3.4236    4.7166   -1.0814 C.3       1 <0>         0.0000
     12 C12         1.6147   -2.7045    1.4879 C.3       1 <0>         0.0000
     13 C13         2.9184   -1.1428    0.0197 C.3       1 <0>         0.0000
     14 C14         2.1579   -0.3668    2.2916 C.3       1 <0>         0.0000
     15 C15        -0.7010    0.7842   -1.9532 C.3       1 <0>         0.0000
     16 C16        -2.1401    4.3597   -0.3551 C.3       1 <0>         0.0000
     17 C17         1.7999   -1.2368    1.0708 C.3       1 <0>         0.0000
     18 N1          0.5402   -0.8303    0.3967 N.3       1 <0>         0.0000
     19 O1          0.0024    3.1031    0.6542 O.2       1 <0>         0.0000
     20 O2          0.6990    0.5868    0.0431 O.3       1 <0>         0.0000
     21 O3         -1.8940    2.9475   -0.5790 O.3       1 <0>         0.0000
     22 H1          2.5788    4.0805   -4.7305 H         1 <0>         0.0000
     23 H2          3.4957    2.0594   -3.6015 H         1 <0>         0.0000
     24 H3          0.1390    4.5636   -4.5988 H         1 <0>         0.0000
     25 H4          1.9857    0.5465   -2.3403 H         1 <0>         0.0000
     26 H5         -1.3610    3.0426   -3.3367 H         1 <0>         0.0000
     27 H6         -2.1686   -0.5196   -0.3613 H         1 <0>         0.0000
     28 H7         -2.3079    0.6636    0.9459 H         1 <0>         0.0000
     29 H8         -0.5196   -0.3214    2.1942 H         1 <0>         0.0000
     30 H9         -1.0704   -1.7961    1.3461 H         1 <0>         0.0000
     31 H10        -3.3295    4.5317   -2.1558 H         1 <0>         0.0000
     32 H11        -4.2660    4.1305   -0.7018 H         1 <0>         0.0000
     33 H12        -3.6481    5.7780   -0.9343 H         1 <0>         0.0000
     34 H13         0.8672   -2.8132    2.2799 H         1 <0>         0.0000
     35 H14         1.3084   -3.3152    0.6327 H         1 <0>         0.0000
     36 H15         2.5606   -3.0983    1.8718 H         1 <0>         0.0000
     37 H16         3.0955   -0.1037   -0.2663 H         1 <0>         0.0000
     38 H17         2.6454   -1.7097   -0.8760 H         1 <0>         0.0000
     39 H18         3.8499   -1.5535    0.4224 H         1 <0>         0.0000
     40 H19         2.1680    0.6915    2.0217 H         1 <0>         0.0000
     41 H20         1.4538   -0.5074    3.1176 H         1 <0>         0.0000
     42 H21         3.1512   -0.6424    2.6603 H         1 <0>         0.0000
     43 H22        -1.7424    0.9421   -2.2458 H         1 <0>         0.0000
     44 H23        -0.4565   -0.2680   -2.1317 H         1 <0>         0.0000
     45 H24        -2.2127    4.5378    0.7216 H         1 <0>         0.0000
     46 H25        -1.2824    4.9222   -0.7336 H         1 <0>         0.0000
@<TRIPOS>BOND
     1    1    3 ar
     2    1    2 ar
     3    1   22 1
     4    2    4 ar
     5    2   23 1
     6    3    5 ar
     7    3   24 1
     8    4    6 ar
     9    4   25 1
    10    5    6 ar
    11    5   26 1
    12    6   15 1
    13    7   10 1
    14    7   19 2
    15    7   21 1
    16    8    9 1
    17    8   10 1
    18    8   27 1
    19    8   28 1
    20    9   18 1
    21    9   29 1
    22    9   30 1
    23   10   15 1
    24   10   20 1
    25   11   16 1
    26   11   31 1
    27   11   32 1
    28   11   33 1
    29   12   17 1
    30   12   34 1
    31   12   35 1
    32   12   36 1
    33   13   17 1
    34   13   37 1
    35   13   38 1
    36   13   39 1
    37   14   17 1
    38   14   40 1
    39   14   41 1
    40   14   42 1
    41   15   43 1
    42   15   44 1
    43   16   21 1
    44   16   45 1
    45   16   46 1
    46   17   18 1
    47   18   20 1
