@<TRIPOS>MOLECULE
*****
   34    34     0     0     0
SMALL
NO_CHARGES

@<TRIPOS>ATOM
      1 C1         -1.5323   -2.4267    2.7042 C.ar      1 <0>         0.0000
      2 C2         -1.6702   -3.7827    3.0304 C.ar      1 <0>         0.0000
      3 C3          0.6013   -2.3738    3.7965 C.ar      1 <0>         0.0000
      4 C4         -0.3981   -1.7010    3.0741 C.ar      1 <0>         0.0000
      5 C5         -0.6624   -4.4460    3.7376 C.ar      1 <0>         0.0000
      6 C6          0.4855   -3.7198    4.1302 C.ar      1 <0>         0.0000
      7 C7         -1.5888   -7.9733    4.1551 C.3       1 <0>         0.0000
      8 C8          0.2834   -0.7094    0.2242 C.3       1 <0>         0.0000
      9 C9          1.2401   -4.7307    6.1406 C.3       1 <0>         0.0000
     10 C10        -0.2191   -0.2542    2.6795 C.3       1 <0>         0.0000
     11 C11        -1.8145   -6.5525    3.6670 C.3       1 <0>         0.0000
     12 C12         0.7719   -0.0518    1.5148 C.3       1 <0>         0.0000
     13 N1          0.9211    1.3980    1.2872 N.3       1 <0>         0.0000
     14 O1          1.5281   -4.3317    4.7934 O.3       1 <0>         0.0000
     15 O2         -0.6926   -5.7702    4.0865 O.3       1 <0>         0.0000
     16 H1         -2.3259   -1.9359    2.1460 H         1 <0>         0.0000
     17 H2         -2.5636   -4.3119    2.7186 H         1 <0>         0.0000
     18 H3          1.5031   -1.8549    4.1137 H         1 <0>         0.0000
     19 H4         -0.6656   -8.3826    3.7350 H         1 <0>         0.0000
     20 H5         -1.5143   -8.0002    5.2463 H         1 <0>         0.0000
     21 H6         -2.4244   -8.6110    3.8489 H         1 <0>         0.0000
     22 H7         -0.6748   -0.2754   -0.0821 H         1 <0>         0.0000
     23 H8          0.1564   -1.7870    0.3571 H         1 <0>         0.0000
     24 H9          1.0021   -0.5522   -0.5888 H         1 <0>         0.0000
     25 H10         2.1669   -5.1510    6.5369 H         1 <0>         0.0000
     26 H11         0.4500   -5.4864    6.1714 H         1 <0>         0.0000
     27 H12         0.9463   -3.8616    6.7434 H         1 <0>         0.0000
     28 H13        -1.1786    0.1870    2.3895 H         1 <0>         0.0000
     29 H14         0.1433    0.3201    3.5426 H         1 <0>         0.0000
     30 H15        -2.7383   -6.1356    4.0906 H         1 <0>         0.0000
     31 H16        -1.8962   -6.5226    2.5723 H         1 <0>         0.0000
     32 H17         1.7244   -0.5303    1.8013 H         1 <0>         0.0000
     33 H18         1.5796    1.5577    0.5256 H         1 <0>         0.0000
     34 H19         1.3269    1.8361    2.1136 H         1 <0>         0.0000
@<TRIPOS>BOND
     1    1    2 ar
     2    1    4 ar
     3    1   16 1
     4    2    5 ar
     5    2   17 1
     6    3    4 ar
     7    3    6 ar
     8    3   18 1
     9    4   10 1
    10    5    6 ar
    11    5   15 1
    12    6   14 1
    13    7   11 1
    14    7   19 1
    15    7   20 1
    16    7   21 1
    17    8   12 1
    18    8   22 1
    19    8   23 1
    20    8   24 1
    21    9   14 1
    22    9   25 1
    23    9   26 1
    24    9   27 1
    25   10   12 1
    26   10   28 1
    27   10   29 1
    28   11   15 1
    29   11   30 1
    30   11   31 1
    31   12   13 1
    32   12   32 1
    33   13   33 1
    34   13   34 1
