@<TRIPOS>MOLECULE
*****
   40    42     0     0     0
SMALL
NO_CHARGES

@<TRIPOS>ATOM
      1 C1         -0.4072   -0.8891   -1.8773 C.ar      1 <0>         0.0000
      2 C2         -1.4636   -0.0398   -2.2344 C.ar      1 <0>         0.0000
      3 C3         -1.4646    0.9444   -0.0277 C.ar      1 <0>         0.0000
      4 C4          1.0599    0.5182    5.6905 C.ar      1 <0>         0.0000
      5 C5          1.2244    2.8599    5.3320 C.ar      1 <0>         0.0000
      6 C6          1.2903    1.7848    6.2453 C.ar      1 <0>         0.0000
      7 C7          0.1217   -0.8125   -0.5908 C.ar      1 <0>         0.0000
      8 C8         -0.4110    0.1043    0.3222 C.ar      1 <0>         0.0000
      9 C9         -2.0062    0.8810   -1.3235 C.ar      1 <0>         0.0000
     10 C10         0.7439    1.4267    3.6280 C.ar      1 <0>         0.0000
     11 C11         1.5920    2.0353    7.6756 C.2       1 <0>         0.0000
     12 C12         1.2446   -1.6001    0.0504 C.3       1 <0>         0.0000
     13 C13         0.3136   -0.0073    1.6472 C.3       1 <0>         0.0000
     14 C14         1.6504   -0.7286    1.2701 C.3       1 <0>         0.0000
     15 C15        -3.1674    1.7659   -1.7170 C.3       1 <0>         0.0000
     16 C16         1.6636    0.8462    8.6196 C.3       1 <0>         0.0000
     17 C17         2.7621    0.2593    0.9028 C.3       1 <0>         0.0000
     18 N1          0.7948    0.3173    4.4003 N.ar      1 <0>         0.0000
     19 N2          0.9575    2.7051    4.0442 N.ar      1 <0>         0.0000
     20 N3          0.4464    1.2763    2.3150 N.pl3     1 <0>         0.0000
     21 O1          1.7790    3.1770    8.0895 O.2       1 <0>         0.0000
     22 H1         -0.0005   -1.5875   -2.6057 H         1 <0>         0.0000
     23 H2         -1.8697   -0.0883   -3.2427 H         1 <0>         0.0000
     24 H3         -1.8692    1.6502    0.6960 H         1 <0>         0.0000
     25 H4          1.0939   -0.3798    6.3060 H         1 <0>         0.0000
     26 H5          1.4007    3.8731    5.6875 H         1 <0>         0.0000
     27 H6          0.8763   -2.5804    0.3809 H         1 <0>         0.0000
     28 H7          2.0834   -1.7847   -0.6290 H         1 <0>         0.0000
     29 H8         -0.2489   -0.6579    2.3250 H         1 <0>         0.0000
     30 H9          1.9840   -1.3444    2.1096 H         1 <0>         0.0000
     31 H10        -4.1234    1.3045   -1.4407 H         1 <0>         0.0000
     32 H11        -3.1181    2.7376   -1.2162 H         1 <0>         0.0000
     33 H12        -3.1886    1.9423   -2.7964 H         1 <0>         0.0000
     34 H13         2.4373    0.1388    8.3016 H         1 <0>         0.0000
     35 H14         0.7115    0.3045    8.6402 H         1 <0>         0.0000
     36 H15         1.8948    1.2062    9.6228 H         1 <0>         0.0000
     37 H16         2.4690    0.8952    0.0591 H         1 <0>         0.0000
     38 H17         3.6680   -0.2825    0.6118 H         1 <0>         0.0000
     39 H18         3.0186    0.9092    1.7445 H         1 <0>         0.0000
     40 H19         0.5342    2.1149    1.7538 H         1 <0>         0.0000
@<TRIPOS>BOND
     1    1    2 ar
     2    1    7 ar
     3    1   22 1
     4    2    9 ar
     5    2   23 1
     6    3    8 ar
     7    3    9 ar
     8    3   24 1
     9    4    6 ar
    10    4   18 ar
    11    4   25 1
    12    5    6 ar
    13    5   19 ar
    14    5   26 1
    15    6   11 1
    16    7    8 ar
    17    7   12 1
    18    8   13 1
    19    9   15 1
    20   10   19 ar
    21   10   18 ar
    22   10   20 1
    23   11   16 1
    24   11   21 2
    25   12   14 1
    26   12   27 1
    27   12   28 1
    28   13   14 1
    29   13   20 1
    30   13   29 1
    31   14   17 1
    32   14   30 1
    33   15   31 1
    34   15   32 1
    35   15   33 1
    36   16   34 1
    37   16   35 1
    38   16   36 1
    39   17   37 1
    40   17   38 1
    41   17   39 1
    42   20   40 1
