@<TRIPOS>MOLECULE
*****
   33    33     0     0     0
SMALL
NO_CHARGES

@<TRIPOS>ATOM
      1 C1         -1.0924   -0.4976    0.0611 C.2       1 <0>         0.0000
      2 C2          1.8974    0.7516   -0.6349 C.3       1 <0>         0.0000
      3 C3          1.9445   -0.7520   -0.9350 C.3       1 <0>         0.0000
      4 C4          0.4962    1.3772   -0.6099 C.3       1 <0>         0.0000
      5 C5          1.1852   -1.6219    0.0766 C.3       1 <0>         0.0000
      6 C6         -0.4130    0.8023    0.4883 C.3       1 <0>         0.0000
      7 C7         -1.3696    6.3418    4.0106 C.3       1 <0>         0.0000
      8 C8         -0.6511    5.0551    3.5893 C.3       1 <0>         0.0000
      9 C9         -1.4715    4.2219    2.5957 C.3       1 <0>         0.0000
     10 C10        -0.7486    2.9452    2.1745 C.3       1 <0>         0.0000
     11 N1         -0.2714   -1.5842   -0.0616 N.am      1 <0>         0.0000
     12 O1         -2.2968   -0.5674   -0.1743 O.2       1 <0>         0.0000
     13 O2         -1.8840    2.9998   -0.2574 O.2       1 <0>         0.0000
     14 S1         -1.7671    2.0423    0.9172 S.o       1 <0>         0.0000
     15 H1          2.3884    0.9367    0.3309 H         1 <0>         0.0000
     16 H2          2.4954    1.2786   -1.3875 H         1 <0>         0.0000
     17 H3          1.5450   -0.9505   -1.9370 H         1 <0>         0.0000
     18 H4          2.9928   -1.0749   -0.9398 H         1 <0>         0.0000
     19 H5          0.5876    2.4573   -0.4628 H         1 <0>         0.0000
     20 H6         -0.0022    1.2595   -1.5767 H         1 <0>         0.0000
     21 H7          1.4762   -2.6679   -0.0487 H         1 <0>         0.0000
     22 H8          1.4714   -1.3428    1.0993 H         1 <0>         0.0000
     23 H9          0.1561    0.6379    1.4106 H         1 <0>         0.0000
     24 H10        -2.3273    6.1190    4.4946 H         1 <0>         0.0000
     25 H11        -0.7656    6.9223    4.7159 H         1 <0>         0.0000
     26 H12        -1.5772    6.9784    3.1433 H         1 <0>         0.0000
     27 H13         0.3165    5.3073    3.1360 H         1 <0>         0.0000
     28 H14        -0.4266    4.4516    4.4788 H         1 <0>         0.0000
     29 H15        -2.4405    3.9659    3.0435 H         1 <0>         0.0000
     30 H16        -1.6855    4.8145    1.6998 H         1 <0>         0.0000
     31 H17         0.2230    3.1765    1.7238 H         1 <0>         0.0000
     32 H18        -0.6013    2.2623    3.0200 H         1 <0>         0.0000
     33 H19        -0.7436   -2.4093   -0.4135 H         1 <0>         0.0000
@<TRIPOS>BOND
     1    1    6 1
     2    1   11 am
     3    1   12 2
     4    2    3 1
     5    2    4 1
     6    2   15 1
     7    2   16 1
     8    3    5 1
     9    3   17 1
    10    3   18 1
    11    4    6 1
    12    4   19 1
    13    4   20 1
    14    5   11 1
    15    5   21 1
    16    5   22 1
    17    6   14 1
    18    6   23 1
    19    7    8 1
    20    7   24 1
    21    7   25 1
    22    7   26 1
    23    8    9 1
    24    8   27 1
    25    8   28 1
    26    9   10 1
    27    9   29 1
    28    9   30 1
    29   10   14 1
    30   10   31 1
    31   10   32 1
    32   11   33 1
    33   13   14 2
