@<TRIPOS>MOLECULE
*****
   34    35     0     0     0
SMALL
NO_CHARGES

@<TRIPOS>ATOM
      1 C1          0.2529   -3.8796   -1.5259 C.2       1 <0>         0.0000
      2 C2          0.3682   -2.6987   -2.3181 C.2       1 <0>         0.0000
      3 C3         -0.7778   -4.0221   -0.6396 C.2       1 <0>         0.0000
      4 C4         -0.5708   -1.7198   -2.1584 C.2       1 <0>         0.0000
      5 C5         -1.7889   -2.9967   -0.4638 C.2       1 <0>         0.0000
      6 C6         -2.9068   -0.2499    0.2880 C.2       1 <0>         0.0000
      7 C7         -2.1983    0.2383    2.5726 C.3       1 <0>         0.0000
      8 C8         -0.4530   -0.0067    0.8970 C.3       1 <0>         0.0000
      9 C9         -1.4683   -0.7840    3.4431 C.3       1 <0>         0.0000
     10 C10         0.2677   -1.0195    1.7880 C.3       1 <0>         0.0000
     11 C11         0.6921   -1.6663    4.0715 C.3       1 <0>         0.0000
     12 C12        -2.6004   -0.7729   -1.1291 C.3       1 <0>         0.0000
     13 N1         -1.5982   -1.8380   -1.2603 N.am      1 <0>         0.0000
     14 N2         -1.8871   -0.0150    1.1654 N.am      1 <0>         0.0000
     15 N3         -0.0222   -0.7445    3.1959 N.3       1 <0>         0.0000
     16 O1         -2.7495   -3.0592    0.3074 O.2       1 <0>         0.0000
     17 O2         -4.0845   -0.0217    0.5589 O.2       1 <0>         0.0000
     18 H1          0.9913   -4.6710   -1.6318 H         1 <0>         0.0000
     19 H2          1.1697   -2.5665   -3.0355 H         1 <0>         0.0000
     20 H3         -0.8968   -4.9102   -0.0280 H         1 <0>         0.0000
     21 H4         -0.5451   -0.7969   -2.7294 H         1 <0>         0.0000
     22 H5         -3.2771    0.1653    2.7013 H         1 <0>         0.0000
     23 H6         -1.8773    1.2536    2.8395 H         1 <0>         0.0000
     24 H7         -0.0687    0.9966    1.1267 H         1 <0>         0.0000
     25 H8         -0.2461   -0.2072   -0.1502 H         1 <0>         0.0000
     26 H9         -1.6463   -0.5487    4.4981 H         1 <0>         0.0000
     27 H10        -1.8882   -1.7863    3.2411 H         1 <0>         0.0000
     28 H11        -0.0350   -2.0423    1.4992 H         1 <0>         0.0000
     29 H12         1.3484   -0.9330    1.6276 H         1 <0>         0.0000
     30 H13         0.4957   -1.4077    5.1169 H         1 <0>         0.0000
     31 H14         1.7699   -1.5807    3.8976 H         1 <0>         0.0000
     32 H15         0.4001   -2.7221    3.9172 H         1 <0>         0.0000
     33 H16        -2.2911    0.0608   -1.7652 H         1 <0>         0.0000
     34 H17        -3.5634   -1.1406   -1.4854 H         1 <0>         0.0000
@<TRIPOS>BOND
     1    1    3 2
     2    1    2 1
     3    1   18 1
     4    2    4 2
     5    2   19 1
     6    3    5 1
     7    3   20 1
     8    4   13 1
     9    4   21 1
    10    5   13 am
    11    5   16 2
    12    6   12 1
    13    6   14 am
    14    6   17 2
    15    7    9 1
    16    7   14 1
    17    7   22 1
    18    7   23 1
    19    8   10 1
    20    8   14 1
    21    8   24 1
    22    8   25 1
    23    9   15 1
    24    9   26 1
    25    9   27 1
    26   10   15 1
    27   10   28 1
    28   10   29 1
    29   11   15 1
    30   11   30 1
    31   11   31 1
    32   11   32 1
    33   12   13 1
    34   12   33 1
    35   12   34 1
