@<TRIPOS>MOLECULE
*****
   13    13     0     0     0
SMALL
NO_CHARGES

@<TRIPOS>ATOM
      1 C1         -0.5536   -1.1782    1.7989 C.2       1 <0>         0.0000
      2 C2         -0.0902   -0.9420    0.5216 C.2       1 <0>         0.0000
      3 C3         -0.0938   -3.2451    1.2275 C.2       1 <0>         0.0000
      4 C4          0.0513   -4.7157    1.2932 C.3       1 <0>         0.0000
      5 N1         -0.5568   -2.4983    2.2053 N.2       1 <0>         0.0000
      6 N2          1.1826   -5.1316    2.0913 N.3       1 <0>         0.0000
      7 S1          0.3645   -2.4256   -0.2089 S.3       1 <0>         0.0000
      8 Br1         0.0340    0.7518   -0.3114 Br        1 <0>         0.0000
      9 H1         -0.9060   -0.4198    2.4857 H         1 <0>         0.0000
     10 H2         -0.8421   -5.1951    1.7288 H         1 <0>         0.0000
     11 H3          0.1843   -5.1648    0.2944 H         1 <0>         0.0000
     12 H4          1.6140   -6.0166    1.8949 H         1 <0>         0.0000
     13 H5          1.3833   -4.6361    2.9412 H         1 <0>         0.0000
@<TRIPOS>BOND
     1    1    2 2
     2    1    5 1
     3    1    9 1
     4    2    7 1
     5    2    8 1
     6    3    4 1
     7    3    5 2
     8    3    7 1
     9    4    6 1
    10    4   10 1
    11    4   11 1
    12    6   12 1
    13    6   13 1
