@<TRIPOS>MOLECULE
*****
   24    25     0     0     0
SMALL
NO_CHARGES

@<TRIPOS>ATOM
      1 C1          2.0652   -4.2116    0.2273 C.ar      1 <0>         0.0000
      2 C2          2.2002   -5.4910    0.7664 C.ar      1 <0>         0.0000
      3 C3          2.6333   -3.1168    0.8787 C.ar      1 <0>         0.0000
      4 C4          2.9030   -5.6755    1.9570 C.ar      1 <0>         0.0000
      5 C5          7.0855   -0.5414    2.5877 C.ar      1 <0>         0.0000
      6 C6          7.0514   -2.2853    1.1300 C.ar      1 <0>         0.0000
      7 C7          5.7918   -0.8096    2.9863 C.ar      1 <0>         0.0000
      8 C8          3.3362   -3.3013    2.0693 C.ar      1 <0>         0.0000
      9 C9          3.4711   -4.5807    2.6085 C.ar      1 <0>         0.0000
     10 C10         5.1877   -1.8855    2.3685 C.ar      1 <0>         0.0000
     11 C11         5.1112    0.0192    4.0134 C.3       1 <0>         0.0000
     12 N1          7.7481   -1.2613    1.6588 N.ar      1 <0>         0.0000
     13 N2          5.7902   -2.6479    1.4326 N.ar      1 <0>         0.0000
     14 O1          3.8898   -2.2322    2.7044 O.3       1 <0>         0.0000
     15 F1          4.1451   -4.7645    3.7521 F         1 <0>         0.0000
     16 H1          1.5183   -4.0683   -0.7001 H         1 <0>         0.0000
     17 H2          1.7573   -6.3433    0.2594 H         1 <0>         0.0000
     18 H3          2.5250   -2.1228    0.4535 H         1 <0>         0.0000
     19 H4          3.0083   -6.6714    2.3769 H         1 <0>         0.0000
     20 H5          7.6489    0.2833    3.0132 H         1 <0>         0.0000
     21 H6          7.5593   -2.8812    0.3814 H         1 <0>         0.0000
     22 H7          4.5771    0.8576    3.5445 H         1 <0>         0.0000
     23 H8          4.3841   -0.5695    4.5921 H         1 <0>         0.0000
     24 H9          5.8271    0.4322    4.7397 H         1 <0>         0.0000
@<TRIPOS>BOND
     1    1    2 ar
     2    1    3 ar
     3    1   16 1
     4    2    4 ar
     5    2   17 1
     6    3    8 ar
     7    3   18 1
     8    4    9 ar
     9    4   19 1
    10    5    7 ar
    11    5   12 ar
    12    5   20 1
    13    6   12 ar
    14    6   13 ar
    15    6   21 1
    16    7   10 ar
    17    7   11 1
    18    8    9 ar
    19    8   14 1
    20    9   15 1
    21   10   13 ar
    22   10   14 1
    23   11   22 1
    24   11   23 1
    25   11   24 1
