@<TRIPOS>MOLECULE
*****
   19    19     0     0     0
SMALL
NO_CHARGES

@<TRIPOS>ATOM
      1 C1          4.7340    1.2670    0.7280 C.2       1 <0>         0.0000
      2 C2          3.4710    0.6930    0.9110 C.2       1 <0>         0.0000
      3 C3          5.3300    0.6110   -0.2950 C.2       1 <0>         0.0000
      4 C4          3.3590   -0.2910   -0.0180 C.2       1 <0>         0.0000
      5 C5          0.9830   -0.9760    0.0810 C.2       1 <0>         0.0000
      6 C6         -0.1090   -1.9410   -0.3200 C.3       1 <0>         0.0000
      7 C7          2.6510   -2.3880   -1.1290 C.3       1 <0>         0.0000
      8 N1          2.3000   -1.2090   -0.3070 N.am      1 <0>         0.0000
      9 O1          0.6990    0.0060    0.7350 O.2       1 <0>         0.0000
     10 O2          4.4950   -0.3600   -0.7700 O.3       1 <0>         0.0000
     11 H1          5.1550    2.0660    1.2800 H         1 <0>         0.0000
     12 H2          2.7440    0.9660    1.6310 H         1 <0>         0.0000
     13 H3          6.2870    0.7550   -0.7290 H         1 <0>         0.0000
     14 H4         -1.0460   -1.5060   -0.0030 H         1 <0>         0.0000
     15 H5          0.0820   -2.8710    0.1920 H         1 <0>         0.0000
     16 H6         -0.0720   -2.0470   -1.3940 H         1 <0>         0.0000
     17 H7          2.0470   -3.2320   -0.8280 H         1 <0>         0.0000
     18 H8          3.6920   -2.6270   -0.9570 H         1 <0>         0.0000
     19 H9          2.4840   -2.1200   -2.1640 H         1 <0>         0.0000
@<TRIPOS>BOND
     1    1    2 1
     2    1    3 2
     3    1   11 1
     4    2    4 2
     5    2   12 1
     6    3   10 1
     7    3   13 1
     8    4    8 1
     9    4   10 1
    10    5    6 1
    11    5    8 am
    12    5    9 2
    13    6   14 1
    14    6   15 1
    15    6   16 1
    16    7    8 1
    17    7   17 1
    18    7   18 1
    19    7   19 1
