@<TRIPOS>MOLECULE
*****
   69    73     0     0     0
SMALL
NO_CHARGES

@<TRIPOS>ATOM
      1 C1          2.6134   -6.1714   -5.4408 C.ar      1 <0>         0.0000
      2 C2          4.5677   -5.9471   -6.8209 C.ar      1 <0>         0.0000
      3 C3         -2.1467  -16.8216   -5.3365 C.ar      1 <0>         0.0000
      4 C4         -2.2685  -15.5945   -4.7073 C.ar      1 <0>         0.0000
      5 C5          3.0509   -5.1138   -4.6293 C.ar      1 <0>         0.0000
      6 C6          5.0229   -4.9080   -6.0222 C.ar      1 <0>         0.0000
      7 C7          0.1045  -16.2951   -6.0310 C.ar      1 <0>         0.0000
      8 C8         -0.0051  -15.0455   -5.3961 C.ar      1 <0>         0.0000
      9 C9          3.3577   -6.6054   -6.5383 C.ar      1 <0>         0.0000
     10 C10        -0.9560  -17.1940   -6.0102 C.ar      1 <0>         0.0000
     11 C11        -1.1882  -14.6857   -4.7320 C.ar      1 <0>         0.0000
     12 C12         4.2656   -4.4861   -4.9164 C.ar      1 <0>         0.0000
     13 C13         1.0994  -14.0853   -5.4137 C.2       1 <0>         0.0000
     14 C14         2.9072   -7.6992   -7.4691 C.2       1 <0>         0.0000
     15 C15         3.7409   -9.6139   -5.4669 C.2       1 <0>         0.0000
     16 C16         5.2647    0.7470   -1.1283 C.3       1 <0>         0.0000
     17 C17         5.1190   -0.4979   -0.2411 C.3       1 <0>         0.0000
     18 C18         5.8753    0.3896   -2.4910 C.3       1 <0>         0.0000
     19 C19         1.5805   -9.8326   -7.9952 C.3       1 <0>         0.0000
     20 C20         4.3231   -1.6044   -0.9484 C.3       1 <0>         0.0000
     21 C21         5.0760   -0.7169   -3.1929 C.3       1 <0>         0.0000
     22 C22         1.6585  -11.1530   -7.2000 C.3       1 <0>         0.0000
     23 C23         1.8610   -8.6983   -6.9705 C.3       1 <0>         0.0000
     24 C24         2.2021   -9.4008   -5.6347 C.3       1 <0>         0.0000
     25 C25         4.9384   -1.9669   -2.3097 C.3       1 <0>         0.0000
     26 C26         1.4203  -10.7288   -5.7422 C.3       1 <0>         0.0000
     27 C27        -0.8607  -18.5425   -6.6845 C.3       1 <0>         0.0000
     28 C28         1.7699  -11.7795   -4.6871 C.3       1 <0>         0.0000
     29 C29         4.1236   -3.0605   -2.9912 C.3       1 <0>         0.0000
     30 N1         -1.3409  -13.4606   -4.0903 N.2       1 <0>         0.0000
     31 N2         -0.3794  -12.6194   -4.1077 N.2       1 <0>         0.0000
     32 N3          0.7937  -12.8972   -4.7304 N.am      1 <0>         0.0000
     33 O1          4.4533   -9.1678   -6.4152 O.co2     1 <0>         0.0000
     34 O2          2.1848  -14.2739   -5.9560 O.2       1 <0>         0.0000
     35 O3          3.2101   -7.6225   -8.6612 O.2       1 <0>         0.0000
     36 O4          4.1054  -10.1947   -4.4136 O.co2     1 <0>         0.0000
     37 O5          4.8026   -3.4519   -4.1790 O.3       1 <0>         0.0000
     38 H1          1.6710   -6.6510   -5.1962 H         1 <0>         0.0000
     39 H2          5.1481   -6.2917   -7.6702 H         1 <0>         0.0000
     40 H3         -2.9821  -17.5193   -5.3167 H         1 <0>         0.0000
     41 H4         -3.1787  -15.3040   -4.1906 H         1 <0>         0.0000
     42 H5          2.4428   -4.8059   -3.7857 H         1 <0>         0.0000
     43 H6          5.9707   -4.4144   -6.2212 H         1 <0>         0.0000
     44 H7          1.0376  -16.5303   -6.5350 H         1 <0>         0.0000
     45 H8          5.8755    1.5046   -0.6215 H         1 <0>         0.0000
     46 H9          4.2731    1.1950   -1.2847 H         1 <0>         0.0000
     47 H10         6.1182   -0.8800    0.0102 H         1 <0>         0.0000
     48 H11         4.6362   -0.2348    0.7082 H         1 <0>         0.0000
     49 H12         5.9270    1.2802   -3.1293 H         1 <0>         0.0000
     50 H13         6.9100    0.0492   -2.3446 H         1 <0>         0.0000
     51 H14         2.3113   -9.7919   -8.8041 H         1 <0>         0.0000
     52 H15         0.5897   -9.7039   -8.4460 H         1 <0>         0.0000
     53 H16         4.2693   -2.4955   -0.3105 H         1 <0>         0.0000
     54 H17         3.2883   -1.2636   -1.0998 H         1 <0>         0.0000
     55 H18         4.0698   -0.3417   -3.4327 H         1 <0>         0.0000
     56 H19         5.5443   -0.9899   -4.1431 H         1 <0>         0.0000
     57 H20         0.9405  -11.9036   -7.5503 H         1 <0>         0.0000
     58 H21         2.6572  -11.5918   -7.2834 H         1 <0>         0.0000
     59 H22         0.9397   -8.1112   -6.8328 H         1 <0>         0.0000
     60 H23         1.8592   -8.8387   -4.7599 H         1 <0>         0.0000
     61 H24         5.9441   -2.3746   -2.1344 H         1 <0>         0.0000
     62 H25         0.3515  -10.4955   -5.6161 H         1 <0>         0.0000
     63 H26        -1.6413  -18.6601   -7.4451 H         1 <0>         0.0000
     64 H27         0.1080  -18.6752   -7.1729 H         1 <0>         0.0000
     65 H28        -0.9879  -19.3560   -5.9605 H         1 <0>         0.0000
     66 H29         1.7274  -11.3572   -3.6839 H         1 <0>         0.0000
     67 H30         2.7614  -12.1950   -4.8419 H         1 <0>         0.0000
     68 H31         3.1170   -2.6869   -3.2347 H         1 <0>         0.0000
     69 H32         4.0109   -3.9256   -2.3223 H         1 <0>         0.0000
@<TRIPOS>BOND
     1    1    5 ar
     2    1    9 ar
     3    1   38 1
     4    2    6 ar
     5    2    9 ar
     6    2   39 1
     7    3    4 ar
     8    3   10 ar
     9    3   40 1
    10    4   11 ar
    11    4   41 1
    12    5   12 ar
    13    5   42 1
    14    6   12 ar
    15    6   43 1
    16    7    8 ar
    17    7   10 ar
    18    7   44 1
    19    8   11 ar
    20    8   13 1
    21    9   14 1
    22   10   27 1
    23   11   30 1
    24   12   37 1
    25   13   32 am
    26   13   34 2
    27   14   23 1
    28   14   35 2
    29   15   24 1
    30   15   33 1
    31   15   36 2
    32   16   18 1
    33   16   17 1
    34   16   45 1
    35   16   46 1
    36   17   20 1
    37   17   47 1
    38   17   48 1
    39   18   21 1
    40   18   49 1
    41   18   50 1
    42   19   22 1
    43   19   23 1
    44   19   51 1
    45   19   52 1
    46   20   25 1
    47   20   53 1
    48   20   54 1
    49   21   25 1
    50   21   55 1
    51   21   56 1
    52   22   26 1
    53   22   57 1
    54   22   58 1
    55   23   24 1
    56   23   59 1
    57   24   26 1
    58   24   60 1
    59   25   29 1
    60   25   61 1
    61   26   28 1
    62   26   62 1
    63   27   63 1
    64   27   64 1
    65   27   65 1
    66   28   32 1
    67   28   66 1
    68   28   67 1
    69   29   37 1
    70   29   68 1
    71   29   69 1
    72   30   31 2
    73   31   32 1
