@<TRIPOS>MOLECULE
*****
   72    76     0     0     0
SMALL
NO_CHARGES

@<TRIPOS>ATOM
      1 C1          4.4894   -2.6567   -3.3935 C.ar      1 <0>         0.0000
      2 C2          0.9120  -15.6264    7.3382 C.ar      1 <0>         0.0000
      3 C3          4.4944   -2.9223   -2.0192 C.ar      1 <0>         0.0000
      4 C4          3.6064   -1.6994   -3.9038 C.ar      1 <0>         0.0000
      5 C5          1.9487  -15.6168    6.3985 C.ar      1 <0>         0.0000
      6 C6         -0.3578  -15.1496    6.9897 C.ar      1 <0>         0.0000
      7 C7          3.6205   -2.2459   -1.1679 C.ar      1 <0>         0.0000
      8 C8          2.7389   -1.0165   -3.0475 C.ar      1 <0>         0.0000
      9 C9          0.9098   -3.3231    1.4777 C.ar      1 <0>         0.0000
     10 C10         0.6116   -3.4292   -0.9044 C.ar      1 <0>         0.0000
     11 C11        -1.0437   -0.6778    1.4968 C.ar      1 <0>         0.0000
     12 C12         0.7660   -4.7114    1.5714 C.ar      1 <0>         0.0000
     13 C13         0.4570   -4.8073   -0.8296 C.ar      1 <0>         0.0000
     14 C14        -1.7675    0.0631    2.4303 C.ar      1 <0>         0.0000
     15 C15         1.7259  -15.1227    5.1087 C.ar      1 <0>         0.0000
     16 C16        -0.5917  -14.6592    5.7017 C.ar      1 <0>         0.0000
     17 C17         0.1985    1.4216    2.8292 C.ar      1 <0>         0.0000
     18 C18         0.8551   -2.6551    0.2470 C.ar      1 <0>         0.0000
     19 C19         2.7202   -1.2865   -1.6674 C.ar      1 <0>         0.0000
     20 C20         0.2937   -0.3790    1.1945 C.ar      1 <0>         0.0000
     21 C21         0.9230    0.6841    1.8899 C.ar      1 <0>         0.0000
     22 C22         0.5416   -5.4627    0.4098 C.ar      1 <0>         0.0000
     23 C23        -1.1411    1.1225    3.0972 C.ar      1 <0>         0.0000
     24 C24         0.4602  -14.6385    4.7820 C.ar      1 <0>         0.0000
     25 C25         1.0295   -1.1801    0.1791 C.2       1 <0>         0.0000
     26 C26         1.8011   -0.5587   -0.7555 C.2       1 <0>         0.0000
     27 C27         2.3793    0.9984    1.6342 C.3       1 <0>         0.0000
     28 C28         1.7890    0.9567   -0.8491 C.3       1 <0>         0.0000
     29 C29         2.6352    1.6299    0.2503 C.3       1 <0>         0.0000
     30 C30         0.3654   -9.8821    2.5690 C.3       1 <0>         0.0000
     31 C31         0.2900   -9.0185    1.3049 C.3       1 <0>         0.0000
     32 C32         0.1983  -11.3771    2.2671 C.3       1 <0>         0.0000
     33 C33         0.4760   -7.5400    1.6119 C.3       1 <0>         0.0000
     34 C34         0.2766  -12.2264    3.5324 C.3       1 <0>         0.0000
     35 O1          1.4669  -14.3059    2.3078 O.2       1 <0>         0.0000
     36 O2         -1.7882    1.8952    4.0335 O.3       1 <0>         0.0000
     37 O3          0.3827   -6.8225    0.3801 O.3       1 <0>         0.0000
     38 S1          0.1936  -14.0217    3.0886 S.o       1 <0>         0.0000
     39 H1          5.1674   -3.1866   -4.0576 H         1 <0>         0.0000
     40 H2          1.0888  -16.0140    8.3380 H         1 <0>         0.0000
     41 H3          5.1819   -3.6585   -1.6100 H         1 <0>         0.0000
     42 H4          3.5911   -1.4856   -4.9698 H         1 <0>         0.0000
     43 H5          2.9304  -15.9980    6.6678 H         1 <0>         0.0000
     44 H6         -1.1663  -15.1684    7.7158 H         1 <0>         0.0000
     45 H7          3.6258   -2.4618   -0.1039 H         1 <0>         0.0000
     46 H8          2.0487   -0.2850   -3.4605 H         1 <0>         0.0000
     47 H9          1.0758   -2.7494    2.3857 H         1 <0>         0.0000
     48 H10         0.5449   -2.9393   -1.8705 H         1 <0>         0.0000
     49 H11        -1.5271   -1.5054    0.9854 H         1 <0>         0.0000
     50 H12         0.8281   -5.1856    2.5443 H         1 <0>         0.0000
     51 H13         0.2680   -5.4002   -1.7199 H         1 <0>         0.0000
     52 H14        -2.8081   -0.1821    2.6385 H         1 <0>         0.0000
     53 H15         2.5040  -15.1132    4.3497 H         1 <0>         0.0000
     54 H16        -1.5815  -14.3045    5.4213 H         1 <0>         0.0000
     55 H17         0.6684    2.2354    3.3754 H         1 <0>         0.0000
     56 H18         2.7644    1.6570    2.4189 H         1 <0>         0.0000
     57 H19         2.9486    0.0638    1.6929 H         1 <0>         0.0000
     58 H20         2.1571    1.2805   -1.8263 H         1 <0>         0.0000
     59 H21         0.7579    1.3138   -0.7570 H         1 <0>         0.0000
     60 H22         2.3918    2.6991    0.2701 H         1 <0>         0.0000
     61 H23         3.7029    1.5458    0.0164 H         1 <0>         0.0000
     62 H24         1.3309   -9.7221    3.0670 H         1 <0>         0.0000
     63 H25        -0.4070   -9.5616    3.2813 H         1 <0>         0.0000
     64 H26         1.0600   -9.3306    0.5902 H         1 <0>         0.0000
     65 H27        -0.6780   -9.1573    0.8098 H         1 <0>         0.0000
     66 H28        -0.7633  -11.5464    1.7661 H         1 <0>         0.0000
     67 H29         0.9809  -11.7035    1.5738 H         1 <0>         0.0000
     68 H30         1.4567   -7.3614    2.0746 H         1 <0>         0.0000
     69 H31        -0.2981   -7.1881    2.3085 H         1 <0>         0.0000
     70 H32         1.2273  -12.0894    4.0575 H         1 <0>         0.0000
     71 H33        -0.5485  -12.0229    4.2235 H         1 <0>         0.0000
     72 H34        -2.7036    1.5847    4.1179 H         1 <0>         0.0000
@<TRIPOS>BOND
     1    1    4 ar
     2    1    3 ar
     3    1   39 1
     4    2    6 ar
     5    2    5 ar
     6    2   40 1
     7    3    7 ar
     8    3   41 1
     9    4    8 ar
    10    4   42 1
    11    5   15 ar
    12    5   43 1
    13    6   16 ar
    14    6   44 1
    15    7   19 ar
    16    7   45 1
    17    8   19 ar
    18    8   46 1
    19    9   12 ar
    20    9   18 ar
    21    9   47 1
    22   10   13 ar
    23   10   18 ar
    24   10   48 1
    25   11   14 ar
    26   11   20 ar
    27   11   49 1
    28   12   22 ar
    29   12   50 1
    30   13   22 ar
    31   13   51 1
    32   14   23 ar
    33   14   52 1
    34   15   24 ar
    35   15   53 1
    36   16   24 ar
    37   16   54 1
    38   17   21 ar
    39   17   23 ar
    40   17   55 1
    41   18   25 1
    42   19   26 1
    43   20   21 ar
    44   20   25 1
    45   21   27 1
    46   22   37 1
    47   23   36 1
    48   24   38 1
    49   25   26 2
    50   26   28 1
    51   27   29 1
    52   27   56 1
    53   27   57 1
    54   28   29 1
    55   28   58 1
    56   28   59 1
    57   29   60 1
    58   29   61 1
    59   30   31 1
    60   30   32 1
    61   30   62 1
    62   30   63 1
    63   31   33 1
    64   31   64 1
    65   31   65 1
    66   32   34 1
    67   32   66 1
    68   32   67 1
    69   33   37 1
    70   33   68 1
    71   33   69 1
    72   34   38 1
    73   34   70 1
    74   34   71 1
    75   35   38 2
    76   36   72 1
