@<TRIPOS>MOLECULE
*****
   50    52     0     0     0
SMALL
NO_CHARGES

@<TRIPOS>ATOM
      1 C1         -6.0551    3.4777    7.1348 C.ar      1 <0>         0.0000
      2 C2         -7.9456    0.0519    1.1753 C.ar      1 <0>         0.0000
      3 C3         -5.1970    4.0002    6.1897 C.ar      1 <0>         0.0000
      4 C4         -8.5948    0.3382    2.3735 C.ar      1 <0>         0.0000
      5 C5         -6.6426   -0.4592    1.1821 C.ar      1 <0>         0.0000
      6 C6         -7.2097    2.7629    6.7397 C.ar      1 <0>         0.0000
      7 C7         -4.9136    4.0425    2.4721 C.ar      1 <0>         0.0000
      8 C8         -6.6599   -0.4330    3.5934 C.ar      1 <0>         0.0000
      9 C9         -6.1122    3.3448    2.1745 C.ar      1 <0>         0.0000
     10 C10        -5.4553    3.8181    4.8044 C.ar      1 <0>         0.0000
     11 C11        -7.9482    0.1071    3.5947 C.ar      1 <0>         0.0000
     12 C12        -5.9901   -0.7109    2.3938 C.ar      1 <0>         0.0000
     13 C13        -4.5797    4.3105    3.7836 C.ar      1 <0>         0.0000
     14 C14        -6.6316    3.1074    4.3931 C.ar      1 <0>         0.0000
     15 C15        -7.5053    2.5833    5.4016 C.ar      1 <0>         0.0000
     16 C16        -3.3418    5.0981    4.1289 C.3       1 <0>         0.0000
     17 C17        -2.1372    1.8786    5.6641 C.3       1 <0>         0.0000
     18 C18        -8.6136    0.5156    4.8822 C.3       1 <0>         0.0000
     19 C19        -2.2865    1.4330    4.2054 C.3       1 <0>         0.0000
     20 C20        -3.4806    0.4940    3.9979 C.3       1 <0>         0.0000
     21 C21        -3.5209   -0.1206    2.5955 C.3       1 <0>         0.0000
     22 C22        -4.5692   -1.2362    2.4140 C.3       1 <0>         0.0000
     23 N1         -6.9546    2.9074    3.0852 N.ar      1 <0>         0.0000
     24 O1         -4.3446   -1.9400    1.1829 O.3       1 <0>         0.0000
     25 O2         -8.6773    1.9559    5.0531 O.3       1 <0>         0.0000
     26 H1         -5.8504    3.6173    8.1931 H         1 <0>         0.0000
     27 H2         -8.4488    0.2324    0.2284 H         1 <0>         0.0000
     28 H3         -4.3166    4.5495    6.5066 H         1 <0>         0.0000
     29 H4         -9.5902    0.7750    2.3691 H         1 <0>         0.0000
     30 H5         -6.1346   -0.6890    0.2515 H         1 <0>         0.0000
     31 H6         -7.8957    2.3637    7.4817 H         1 <0>         0.0000
     32 H7         -4.2759    4.3788    1.6582 H         1 <0>         0.0000
     33 H8         -6.1675   -0.6295    4.5439 H         1 <0>         0.0000
     34 H9         -6.3815    3.1525    1.1358 H         1 <0>         0.0000
     35 H10        -3.5995    6.0223    4.6584 H         1 <0>         0.0000
     36 H11        -2.6693    4.5295    4.7781 H         1 <0>         0.0000
     37 H12        -2.7902    5.3700    3.2256 H         1 <0>         0.0000
     38 H13        -1.9281    1.0206    6.3137 H         1 <0>         0.0000
     39 H14        -1.3147    2.5926    5.7858 H         1 <0>         0.0000
     40 H15        -3.0549    2.3489    6.0299 H         1 <0>         0.0000
     41 H16        -9.6616    0.2065    4.9012 H         1 <0>         0.0000
     42 H17        -8.1027    0.0741    5.7470 H         1 <0>         0.0000
     43 H18        -2.4003    2.3076    3.5537 H         1 <0>         0.0000
     44 H19        -1.3646    0.9291    3.8855 H         1 <0>         0.0000
     45 H20        -4.4077    1.0414    4.1967 H         1 <0>         0.0000
     46 H21        -3.4301   -0.3136    4.7423 H         1 <0>         0.0000
     47 H22        -2.5330   -0.5585    2.3851 H         1 <0>         0.0000
     48 H23        -3.6937    0.6542    1.8393 H         1 <0>         0.0000
     49 H24        -4.4697   -1.9391    3.2561 H         1 <0>         0.0000
     50 H25        -3.4075   -2.1873    1.1534 H         1 <0>         0.0000
@<TRIPOS>BOND
     1    1    3 ar
     2    1    6 ar
     3    1   26 1
     4    2    4 ar
     5    2    5 ar
     6    2   27 1
     7    3   10 ar
     8    3   28 1
     9    4   11 ar
    10    4   29 1
    11    5   12 ar
    12    5   30 1
    13    6   15 ar
    14    6   31 1
    15    7    9 ar
    16    7   13 ar
    17    7   32 1
    18    8   11 ar
    19    8   12 ar
    20    8   33 1
    21    9   23 ar
    22    9   34 1
    23   10   13 ar
    24   10   14 ar
    25   11   18 1
    26   12   22 1
    27   13   16 1
    28   14   15 ar
    29   14   23 ar
    30   15   25 1
    31   16   35 1
    32   16   36 1
    33   16   37 1
    34   17   19 1
    35   17   38 1
    36   17   39 1
    37   17   40 1
    38   18   25 1
    39   18   41 1
    40   18   42 1
    41   19   20 1
    42   19   43 1
    43   19   44 1
    44   20   21 1
    45   20   45 1
    46   20   46 1
    47   21   22 1
    48   21   47 1
    49   21   48 1
    50   22   24 1
    51   22   49 1
    52   24   50 1
