@<TRIPOS>MOLECULE
*****
   59    62     0     0     0
SMALL
NO_CHARGES

@<TRIPOS>ATOM
      1 C1          1.0833    0.5460   -0.5513 C.ar      1 <0>         0.0000
      2 C2          0.5468    2.7231   -1.4574 C.ar      1 <0>         0.0000
      3 C3         -1.5420   -0.3245   -1.7911 C.ar      1 <0>         0.0000
      4 C4          2.3980    0.9547   -0.3420 C.ar      1 <0>         0.0000
      5 C5          1.8580    3.1372   -1.2479 C.ar      1 <0>         0.0000
      6 C6         -2.8517   -0.7523   -1.9614 C.ar      1 <0>         0.0000
      7 C7         -4.3448   -1.9730    1.1841 C.ar      1 <0>         0.0000
      8 C8         -3.4011   -3.7166   -0.2065 C.ar      1 <0>         0.0000
      9 C9         -3.0661   -1.5799    1.5759 C.ar      1 <0>         0.0000
     10 C10        -2.1153   -3.3336    0.1919 C.ar      1 <0>         0.0000
     11 C11        -2.3414    1.8310   -1.0842 C.ar      1 <0>         0.0000
     12 C12         0.1350    1.4196   -1.1173 C.ar      1 <0>         0.0000
     13 C13        -1.2583    0.9767   -1.3381 C.ar      1 <0>         0.0000
     14 C14         2.7970    2.2549   -0.6906 C.ar      1 <0>         0.0000
     15 C15        -3.6682    1.4199   -1.2375 C.ar      1 <0>         0.0000
     16 C16        -3.9178    0.1042   -1.6613 C.ar      1 <0>         0.0000
     17 C17        -4.5229   -3.0333    0.2832 C.ar      1 <0>         0.0000
     18 C18        -1.9687   -2.2663    1.0651 C.ar      1 <0>         0.0000
     19 C19         4.1837    2.7370   -0.4912 C.2       1 <0>         0.0000
     20 C20        -4.8342    2.3242   -0.9196 C.3       1 <0>         0.0000
     21 C21        -6.0261    1.4787   -0.4696 C.3       1 <0>         0.0000
     22 C22        -6.3255    0.3767   -1.4853 C.3       1 <0>         0.0000
     23 C23        -7.3997   -0.5683   -0.9533 C.3       1 <0>         0.0000
     24 C24        -8.3379   -2.8209   -1.3013 C.3       1 <0>         0.0000
     25 C25        -6.0155   -3.8988   -1.3651 C.3       1 <0>         0.0000
     26 C26        -7.4986   -4.0605   -1.6524 C.3       1 <0>         0.0000
     27 N1         -7.7954   -1.6005   -1.9082 N.3       1 <0>         0.0000
     28 O1          4.5895    3.8526   -0.7744 O.2       1 <0>         0.0000
     29 O2         -5.1700   -0.4350   -1.7760 O.3       1 <0>         0.0000
     30 O3          5.0085    1.7970    0.0559 O.3       1 <0>         0.0000
     31 O4         -7.9644   -5.2094   -0.9333 O.3       1 <0>         0.0000
     32 O5         -5.8151   -3.3462   -0.0561 O.3       1 <0>         0.0000
     33 F1         -0.7134   -1.8694    1.4217 F         1 <0>         0.0000
     34 H1          0.7740   -0.4473   -0.2397 H         1 <0>         0.0000
     35 H2         -0.1636    3.4044   -1.9177 H         1 <0>         0.0000
     36 H3         -0.7270   -1.0048   -2.0210 H         1 <0>         0.0000
     37 H4          3.1159    0.2744    0.1040 H         1 <0>         0.0000
     38 H5          2.1786    4.1379   -1.5208 H         1 <0>         0.0000
     39 H6         -3.0722   -1.7594   -2.2972 H         1 <0>         0.0000
     40 H7         -5.2205   -1.4531    1.5597 H         1 <0>         0.0000
     41 H8         -3.5118   -4.5448   -0.8967 H         1 <0>         0.0000
     42 H9         -2.9141   -0.7433    2.2506 H         1 <0>         0.0000
     43 H10        -1.2366   -3.8485   -0.1847 H         1 <0>         0.0000
     44 H11        -2.1519    2.8347   -0.7093 H         1 <0>         0.0000
     45 H12        -4.5563    3.0441   -0.1432 H         1 <0>         0.0000
     46 H13        -5.1126    2.9092   -1.8064 H         1 <0>         0.0000
     47 H14        -5.8057    1.0199    0.5018 H         1 <0>         0.0000
     48 H15        -6.9213    2.0972   -0.3468 H         1 <0>         0.0000
     49 H16        -6.6489    0.8322   -2.4332 H         1 <0>         0.0000
     50 H17        -8.2499    0.0425   -0.6020 H         1 <0>         0.0000
     51 H18        -6.9779   -1.0718   -0.0820 H         1 <0>         0.0000
     52 H19        -9.3708   -3.0004   -1.6336 H         1 <0>         0.0000
     53 H20        -8.3703   -2.7390   -0.2106 H         1 <0>         0.0000
     54 H21        -5.5765   -3.2211   -2.1032 H         1 <0>         0.0000
     55 H22        -5.5553   -4.8900   -1.4417 H         1 <0>         0.0000
     56 H23        -7.5696   -4.2411   -2.7369 H         1 <0>         0.0000
     57 H24        -8.4338   -1.2210   -2.5991 H         1 <0>         0.0000
     58 H25         5.8795    2.2293    0.1371 H         1 <0>         0.0000
     59 H26        -8.9120   -5.3167   -1.1119 H         1 <0>         0.0000
@<TRIPOS>BOND
     1    1    4 ar
     2    1   12 ar
     3    1   34 1
     4    2    5 ar
     5    2   12 ar
     6    2   35 1
     7    3    6 ar
     8    3   13 ar
     9    3   36 1
    10    4   14 ar
    11    4   37 1
    12    5   14 ar
    13    5   38 1
    14    6   16 ar
    15    6   39 1
    16    7    9 ar
    17    7   17 ar
    18    7   40 1
    19    8   10 ar
    20    8   17 ar
    21    8   41 1
    22    9   18 ar
    23    9   42 1
    24   10   18 ar
    25   10   43 1
    26   11   13 ar
    27   11   15 ar
    28   11   44 1
    29   12   13 1
    30   14   19 1
    31   15   16 ar
    32   15   20 1
    33   16   29 1
    34   17   32 1
    35   18   33 1
    36   19   28 2
    37   19   30 1
    38   20   21 1
    39   20   45 1
    40   20   46 1
    41   21   22 1
    42   21   47 1
    43   21   48 1
    44   22   23 1
    45   22   29 1
    46   22   49 1
    47   23   27 1
    48   23   50 1
    49   23   51 1
    50   24   26 1
    51   24   27 1
    52   24   52 1
    53   24   53 1
    54   25   26 1
    55   25   32 1
    56   25   54 1
    57   25   55 1
    58   26   31 1
    59   26   56 1
    60   27   57 1
    61   30   58 1
    62   31   59 1
