@<TRIPOS>MOLECULE
*****
   14    14     0     0     0
SMALL
NO_CHARGES

@<TRIPOS>ATOM
      1 C1         -0.2673    0.0287    1.0153 C.ar      1 <0>         0.0000
      2 C2          0.4852    0.7299    1.9592 C.ar      1 <0>         0.0000
      3 C3         -0.0205    0.6547    3.2677 C.ar      1 <0>         0.0000
      4 C4         -1.7276   -0.6473    2.5883 C.ar      1 <0>         0.0000
      5 C5          1.7036    1.5197    1.5711 C.3       1 <0>         0.0000
      6 N1         -1.3747   -0.6679    1.3093 N.ar      1 <0>         0.0000
      7 N2         -1.1098   -0.0239    3.5916 N.ar      1 <0>         0.0000
      8 O1          1.3410    2.9040    1.5317 O.3       1 <0>         0.0000
      9 Cl1         0.7996    1.4690    4.5774 Cl        1 <0>         0.0000
     10 Cl2        -3.1639   -1.5381    3.0152 Cl        1 <0>         0.0000
     11 H1          0.0371    0.0283   -0.0304 H         1 <0>         0.0000
     12 H2          2.5050    1.3413    2.2981 H         1 <0>         0.0000
     13 H3          2.0532    1.1805    0.5863 H         1 <0>         0.0000
     14 H4          2.1496    3.4345    1.6024 H         1 <0>         0.0000
@<TRIPOS>BOND
     1    1    2 ar
     2    1    6 ar
     3    1   11 1
     4    2    3 ar
     5    2    5 1
     6    3    7 ar
     7    3    9 1
     8    4    6 ar
     9    4    7 ar
    10    4   10 1
    11    5    8 1
    12    5   12 1
    13    5   13 1
    14    8   14 1
