@<TRIPOS>MOLECULE
*****
   26    26     0     0     0
SMALL
NO_CHARGES

@<TRIPOS>ATOM
      1 C1          1.7962   -1.2484    0.1012 C.ar      1 <0>         0.0000
      2 C2          0.5685   -0.8604    0.6537 C.ar      1 <0>         0.0000
      3 C3          2.7259   -1.4636    2.3047 C.ar      1 <0>         0.0000
      4 C4          2.8903   -1.5560    0.9131 C.ar      1 <0>         0.0000
      5 C5          0.4173   -0.7714    2.0392 C.ar      1 <0>         0.0000
      6 C6          1.5114   -1.0799    2.8760 C.ar      1 <0>         0.0000
      7 C7          4.2157   -1.9897    0.3284 C.3       1 <0>         0.0000
      8 C8         -3.9237   -1.2303    0.8068 C.3       1 <0>         0.0000
      9 C9         -2.6164   -1.4851    1.5657 C.3       1 <0>         0.0000
     10 C10        -1.9286   -0.1765    1.9515 C.3       1 <0>         0.0000
     11 O1         -0.7208   -0.3810    2.6936 O.3       1 <0>         0.0000
     12 S1          1.2390   -0.9452    4.6333 S.3       1 <0>         0.0000
     13 H1          1.8911   -1.3109   -0.9801 H         1 <0>         0.0000
     14 H2         -0.2592   -0.6307   -0.0078 H         1 <0>         0.0000
     15 H3          3.5688   -1.6987    2.9519 H         1 <0>         0.0000
     16 H4          5.0406   -1.3768    0.7085 H         1 <0>         0.0000
     17 H5          4.4413   -3.0325    0.5808 H         1 <0>         0.0000
     18 H6          4.2132   -1.9060   -0.7620 H         1 <0>         0.0000
     19 H7         -4.6242   -0.6365    1.4053 H         1 <0>         0.0000
     20 H8         -3.7437   -0.6881   -0.1288 H         1 <0>         0.0000
     21 H9         -4.4194   -2.1724    0.5537 H         1 <0>         0.0000
     22 H10        -1.9412   -2.0942    0.9561 H         1 <0>         0.0000
     23 H11        -2.8111   -2.0536    2.4817 H         1 <0>         0.0000
     24 H12        -1.7329    0.4503    1.0723 H         1 <0>         0.0000
     25 H13        -2.5670    0.3997    2.6268 H         1 <0>         0.0000
     26 H14         2.4870   -1.3225    4.9814 H         1 <0>         0.0000
@<TRIPOS>BOND
     1    1    2 ar
     2    1    4 ar
     3    1   13 1
     4    2    5 ar
     5    2   14 1
     6    3    4 ar
     7    3    6 ar
     8    3   15 1
     9    4    7 1
    10    5    6 ar
    11    5   11 1
    12    6   12 1
    13    7   16 1
    14    7   17 1
    15    7   18 1
    16    8    9 1
    17    8   19 1
    18    8   20 1
    19    8   21 1
    20    9   10 1
    21    9   22 1
    22    9   23 1
    23   10   11 1
    24   10   24 1
    25   10   25 1
    26   12   26 1
