@<TRIPOS>MOLECULE
*****
   23    23     0     0     0
SMALL
NO_CHARGES

@<TRIPOS>ATOM
      1 C1          1.8102   -1.1336   -0.1432 C.ar      1 <0>         0.0000
      2 C2          2.8805   -1.5518    1.9942 C.ar      1 <0>         0.0000
      3 C3          0.8637   -0.2931    0.4632 C.ar      1 <0>         0.0000
      4 C4          1.9457   -0.7146    2.5846 C.ar      1 <0>         0.0000
      5 C5          0.9358   -0.0959    1.8487 C.ar      1 <0>         0.0000
      6 C6          2.8030   -1.7664    0.6094 C.ar      1 <0>         0.0000
      7 C7          1.4405    2.5635   -1.4526 C.3       1 <0>         0.0000
      8 C8          0.6051    2.6105   -0.1690 C.3       1 <0>         0.0000
      9 C9         -0.5382    1.6012   -0.1487 C.3       1 <0>         0.0000
     10 O1         -0.0984    0.2316   -0.3461 O.3       1 <0>         0.0000
     11 F1          1.9892   -0.4953    3.9159 F         1 <0>         0.0000
     12 F2          0.0365    0.6800    2.5002 F         1 <0>         0.0000
     13 S1          4.0277   -2.8386   -0.1162 S.3       1 <0>         0.0000
     14 H1          1.7336   -1.2660   -1.2179 H         1 <0>         0.0000
     15 H2          3.6380   -2.0206    2.6141 H         1 <0>         0.0000
     16 H3          1.9363    1.5952   -1.5668 H         1 <0>         0.0000
     17 H4          0.8145    2.7252   -2.3376 H         1 <0>         0.0000
     18 H5          2.2151    3.3367   -1.4419 H         1 <0>         0.0000
     19 H6          0.1534    3.6031   -0.0467 H         1 <0>         0.0000
     20 H7          1.2476    2.4610    0.7059 H         1 <0>         0.0000
     21 H8         -1.1155    1.6756    0.7754 H         1 <0>         0.0000
     22 H9         -1.2103    1.7668   -0.9946 H         1 <0>         0.0000
     23 H10         3.5104   -2.8518   -1.3605 H         1 <0>         0.0000
@<TRIPOS>BOND
     1    1    3 ar
     2    1    6 ar
     3    1   14 1
     4    2    4 ar
     5    2    6 ar
     6    2   15 1
     7    3    5 ar
     8    3   10 1
     9    4    5 ar
    10    4   11 1
    11    5   12 1
    12    6   13 1
    13    7    8 1
    14    7   16 1
    15    7   17 1
    16    7   18 1
    17    8    9 1
    18    8   19 1
    19    8   20 1
    20    9   10 1
    21    9   21 1
    22    9   22 1
    23   13   23 1
