@<TRIPOS>MOLECULE
*****
   16    16     0     0     0
SMALL
NO_CHARGES

@<TRIPOS>ATOM
      1 C1          1.1915   -0.7480   -0.6356 C.ar      1 <0>         0.0000
      2 C2          0.7437   -0.3882    1.7684 C.ar      1 <0>         0.0000
      3 C3          0.3900   -0.2334    0.3987 C.ar      1 <0>         0.0000
      4 C4          1.9473   -1.0947    2.0041 C.ar      1 <0>         0.0000
      5 C5          2.7348   -1.6016    0.9911 C.ar      1 <0>         0.0000
      6 C6          2.3585   -1.4289   -0.3540 C.ar      1 <0>         0.0000
      7 N1          0.0516    0.0791    2.8362 N.pl3     1 <0>         0.0000
      8 N2         -0.8207    0.4624    0.0075 N.pl3     1 <0>         0.0000
      9 O1         -1.0745    0.5727   -1.1960 O.3       1 <0>         0.0000
     10 O2         -1.5584    0.9199    0.9054 O.2       1 <0>         0.0000
     11 F1          2.3227   -1.2697    3.2930 F         1 <0>         0.0000
     12 F2          3.8545   -2.2553    1.3128 F         1 <0>         0.0000
     13 Br1         3.4576   -2.1336   -1.7359 Br        1 <0>         0.0000
     14 H1          0.8680   -0.5963   -1.6576 H         1 <0>         0.0000
     15 H2         -0.8311    0.5487    2.6823 H         1 <0>         0.0000
     16 H3          0.3784   -0.1320    3.7682 H         1 <0>         0.0000
@<TRIPOS>BOND
     1    1    3 ar
     2    1    6 ar
     3    1   14 1
     4    2    3 ar
     5    2    4 ar
     6    2    7 1
     7    3    8 1
     8    4    5 ar
     9    4   11 1
    10    5    6 ar
    11    5   12 1
    12    6   13 1
    13    7   15 1
    14    7   16 1
    15    8    9 1
    16    8   10 2
