@<TRIPOS>MOLECULE
*****
   20    20     0     0     0
SMALL
NO_CHARGES

@<TRIPOS>ATOM
      1 C1          1.8873   -1.0478   -0.1460 C.ar      1 <0>         0.0000
      2 C2          0.8352   -0.4174    0.5217 C.ar      1 <0>         0.0000
      3 C3          2.8376   -1.6785    1.9977 C.ar      1 <0>         0.0000
      4 C4          1.7859   -1.0564    2.6827 C.ar      1 <0>         0.0000
      5 C5          2.8747   -1.6747    0.6064 C.ar      1 <0>         0.0000
      6 C6          0.7885   -0.4273    1.9173 C.ar      1 <0>         0.0000
      7 C7          1.7414   -1.1138    4.1947 C.3       1 <0>         0.0000
      8 C8          3.8674   -3.5694   -0.3810 C.3       1 <0>         0.0000
      9 O1          0.7470   -2.0186    4.6815 O.3       1 <0>         0.0000
     10 O2          3.9779   -2.2580   -0.0502 O.3       1 <0>         0.0000
     11 F1          2.8389   -3.8089   -1.2277 F         1 <0>         0.0000
     12 F2          3.6760   -4.3648    0.6994 F         1 <0>         0.0000
     13 F3          5.0040   -3.9378   -0.9801 F         1 <0>         0.0000
     14 Cl1        -0.5481    0.3865    2.7055 Cl        1 <0>         0.0000
     15 H1          1.9425   -1.0491   -1.2297 H         1 <0>         0.0000
     16 H2          0.0536    0.0840   -0.0396 H         1 <0>         0.0000
     17 H3          3.6355   -2.1671    2.5499 H         1 <0>         0.0000
     18 H4          2.7363   -1.3827    4.5738 H         1 <0>         0.0000
     19 H5          1.4730   -0.1406    4.6099 H         1 <0>         0.0000
     20 H6          0.9245   -2.8933    4.3002 H         1 <0>         0.0000
@<TRIPOS>BOND
     1    1    2 ar
     2    1    5 ar
     3    1   15 1
     4    2    6 ar
     5    2   16 1
     6    3    4 ar
     7    3    5 ar
     8    3   17 1
     9    4    6 ar
    10    4    7 1
    11    5   10 1
    12    6   14 1
    13    7    9 1
    14    7   18 1
    15    7   19 1
    16    8   10 1
    17    8   11 1
    18    8   12 1
    19    8   13 1
    20    9   20 1
