@<TRIPOS>MOLECULE
*****
   35    36     0     0     0
SMALL
NO_CHARGES

@<TRIPOS>ATOM
      1 C1         -4.9576   -4.3977   -0.4157 C.2       1 <0>         0.0000
      2 C2         -4.1335   -5.0213    0.5423 C.2       1 <0>         0.0000
      3 C3         -1.5638   -1.9164   -0.7638 C.2       1 <0>         0.0000
      4 C4          1.6452   -0.4958   -1.1805 C.3       1 <0>         0.0000
      5 C5          0.2790   -0.7240   -1.8508 C.3       1 <0>         0.0000
      6 C6         -0.9740    0.4053   -0.0299 C.3       1 <0>         0.0000
      7 C7          0.2988    1.2710    0.0074 C.3       1 <0>         0.0000
      8 C8          1.5566    0.3800    0.1015 C.3       1 <0>         0.0000
      9 C9          0.1826    2.3240    1.1139 C.3       1 <0>         0.0000
     10 C10         1.5677   -0.5001    1.3591 C.3       1 <0>         0.0000
     11 C11        -2.6745   -1.8631    0.3050 C.3       1 <0>         0.0000
     12 N1         -4.5359   -3.1398   -0.5871 N.2       1 <0>         0.0000
     13 N2         -3.2129   -4.1409    0.9508 N.2       1 <0>         0.0000
     14 N3         -3.5054   -3.0398    0.2552 N.pl3     1 <0>         0.0000
     15 N4         -0.7835   -0.7968   -0.8477 N.am      1 <0>         0.0000
     16 O1         -1.4115   -2.9095   -1.4675 O.2       1 <0>         0.0000
     17 O2          2.6673    1.2968    0.1526 O.3       1 <0>         0.0000
     18 H1         -5.8074   -4.7800   -0.9647 H         1 <0>         0.0000
     19 H2         -4.1633   -6.0240    0.9465 H         1 <0>         0.0000
     20 H3          2.1001   -1.4617   -0.9360 H         1 <0>         0.0000
     21 H4          2.3036    0.0105   -1.8935 H         1 <0>         0.0000
     22 H5          0.0499    0.0943   -2.5442 H         1 <0>         0.0000
     23 H6          0.2606   -1.6528   -2.4185 H         1 <0>         0.0000
     24 H7         -1.2278    0.1164    0.9937 H         1 <0>         0.0000
     25 H8         -1.8077    1.0115   -0.4123 H         1 <0>         0.0000
     26 H9          0.3853    1.8090   -0.9443 H         1 <0>         0.0000
     27 H10         0.0649    1.8664    2.1017 H         1 <0>         0.0000
     28 H11        -0.6909    2.9624    0.9398 H         1 <0>         0.0000
     29 H12         1.0716    2.9567    1.1341 H         1 <0>         0.0000
     30 H13         1.4921    0.1026    2.2676 H         1 <0>         0.0000
     31 H14         2.5066   -1.0644    1.4072 H         1 <0>         0.0000
     32 H15         0.7566   -1.2340    1.3462 H         1 <0>         0.0000
     33 H16        -3.3151   -0.9912    0.1582 H         1 <0>         0.0000
     34 H17        -2.2392   -1.8125    1.3051 H         1 <0>         0.0000
     35 H18         3.4824    0.7729    0.2129 H         1 <0>         0.0000
@<TRIPOS>BOND
     1    1    2 1
     2    1   12 2
     3    1   18 1
     4    2   13 2
     5    2   19 1
     6    3   11 1
     7    3   15 am
     8    3   16 2
     9    4    5 1
    10    4    8 1
    11    4   20 1
    12    4   21 1
    13    5   15 1
    14    5   22 1
    15    5   23 1
    16    6    7 1
    17    6   15 1
    18    6   24 1
    19    6   25 1
    20    7    8 1
    21    7    9 1
    22    7   26 1
    23    8   10 1
    24    8   17 1
    25    9   27 1
    26    9   28 1
    27    9   29 1
    28   10   30 1
    29   10   31 1
    30   10   32 1
    31   11   14 1
    32   11   33 1
    33   11   34 1
    34   12   14 1
    35   13   14 1
    36   17   35 1
