@<TRIPOS>MOLECULE
*****
   20    20     0     0     0
SMALL
NO_CHARGES

@<TRIPOS>ATOM
      1 C1          3.8804    1.2049   -0.4414 C.2       1 <0>         0.0000
      2 C2          4.4613    1.6701    0.7752 C.2       1 <0>         0.0000
      3 C3          2.9955    0.2079   -0.0983 C.2       1 <0>         0.0000
      4 C4          3.8851    0.9125    1.7616 C.2       1 <0>         0.0000
      5 C5          0.7504    0.1199   -1.1876 C.3       1 <0>         0.0000
      6 C6          2.0603   -0.6354   -0.9099 C.3       1 <0>         0.0000
      7 N1          2.6943   -0.9363   -2.2025 N.3       1 <0>         0.0000
      8 N2          4.0873    0.9177    3.1730 N.pl3     1 <0>         0.0000
      9 O1          4.8970    1.7556    3.6048 O.3       1 <0>         0.0000
     10 O2          3.4581    0.1042    3.8590 O.2       1 <0>         0.0000
     11 O3          2.9991    0.0177    1.2519 O.3       1 <0>         0.0000
     12 O4          0.1288    0.3846    0.0647 O.3       1 <0>         0.0000
     13 H1          4.0796    1.5482   -1.4469 H         1 <0>         0.0000
     14 H2          5.1994    2.4455    0.9226 H         1 <0>         0.0000
     15 H3          0.9859    1.0414   -1.7356 H         1 <0>         0.0000
     16 H4          0.1094   -0.5101   -1.8242 H         1 <0>         0.0000
     17 H5          1.8080   -1.5209   -0.3071 H         1 <0>         0.0000
     18 H6          2.0764   -1.5297   -2.7540 H         1 <0>         0.0000
     19 H7          3.5521   -1.4637   -2.0510 H         1 <0>         0.0000
     20 H8         -0.6383    0.9575   -0.0835 H         1 <0>         0.0000
@<TRIPOS>BOND
     1    1    2 1
     2    1    3 2
     3    1   13 1
     4    2    4 2
     5    2   14 1
     6    3    6 1
     7    3   11 1
     8    4    8 1
     9    4   11 1
    10    5    6 1
    11    5   12 1
    12    5   15 1
    13    5   16 1
    14    6    7 1
    15    6   17 1
    16    7   18 1
    17    7   19 1
    18    8    9 1
    19    8   10 2
    20   12   20 1
