@<TRIPOS>MOLECULE
*****
   35    36     0     0     0
SMALL
NO_CHARGES

@<TRIPOS>ATOM
      1 C1         -0.2237   -4.5725   -1.3676 C.2       1 <0>         0.0000
      2 C2         -0.8069   -4.2301   -2.6026 C.2       1 <0>         0.0000
      3 C3          2.2232   -1.1620   -1.2360 C.2       1 <0>         0.0000
      4 C4          0.8626    1.5743    0.6483 C.3       1 <0>         0.0000
      5 C5          1.4384    0.1596    0.6560 C.3       1 <0>         0.0000
      6 C6         -0.2056   -0.5344   -1.0508 C.3       1 <0>         0.0000
      7 C7         -0.8195    0.8770   -1.0634 C.3       1 <0>         0.0000
      8 C8         -0.6288    1.6083    0.2899 C.3       1 <0>         0.0000
      9 C9         -2.2749    0.7982   -1.5388 C.3       1 <0>         0.0000
     10 C10        -1.4922    1.0284    1.4187 C.3       1 <0>         0.0000
     11 C11         1.9206   -2.0252   -2.4731 C.3       1 <0>         0.0000
     12 N1          0.8494   -3.7948   -1.1729 N.2       1 <0>         0.0000
     13 N2         -0.0869   -3.2444   -3.1545 N.2       1 <0>         0.0000
     14 N3          0.8852   -3.0283   -2.2628 N.pl3     1 <0>         0.0000
     15 N4          1.1904   -0.5159   -0.6211 N.am      1 <0>         0.0000
     16 O1          3.3944   -1.0724   -0.8673 O.2       1 <0>         0.0000
     17 O2         -0.9315    3.0089    0.1324 O.3       1 <0>         0.0000
     18 H1         -0.5138   -5.3137   -0.6353 H         1 <0>         0.0000
     19 H2         -1.6790   -4.6292   -3.1024 H         1 <0>         0.0000
     20 H3          1.0113    2.0392    1.6285 H         1 <0>         0.0000
     21 H4          1.4011    2.1823   -0.0861 H         1 <0>         0.0000
     22 H5          2.5151    0.1776    0.8164 H         1 <0>         0.0000
     23 H6          0.9912   -0.4396    1.4611 H         1 <0>         0.0000
     24 H7         -0.7844   -1.1976   -0.3921 H         1 <0>         0.0000
     25 H8         -0.2853   -0.9436   -2.0552 H         1 <0>         0.0000
     26 H9         -0.2539    1.4707   -1.7920 H         1 <0>         0.0000
     27 H10        -2.8804    0.1456   -0.9012 H         1 <0>         0.0000
     28 H11        -2.3245    0.3992   -2.5574 H         1 <0>         0.0000
     29 H12        -2.7466    1.7863   -1.5605 H         1 <0>         0.0000
     30 H13        -2.5592    1.1588    1.2076 H         1 <0>         0.0000
     31 H14        -1.2690    1.5477    2.3552 H         1 <0>         0.0000
     32 H15        -1.3194   -0.0406    1.5712 H         1 <0>         0.0000
     33 H16         2.8603   -2.5175   -2.7264 H         1 <0>         0.0000
     34 H17         1.5987   -1.4185   -3.3213 H         1 <0>         0.0000
     35 H18        -1.8942    3.1064    0.0626 H         1 <0>         0.0000
@<TRIPOS>BOND
     1    1    2 1
     2    1   12 2
     3    1   18 1
     4    2   13 2
     5    2   19 1
     6    3   11 1
     7    3   15 am
     8    3   16 2
     9    4    5 1
    10    4    8 1
    11    4   20 1
    12    4   21 1
    13    5   15 1
    14    5   22 1
    15    5   23 1
    16    6    7 1
    17    6   15 1
    18    6   24 1
    19    6   25 1
    20    7    8 1
    21    7    9 1
    22    7   26 1
    23    8   10 1
    24    8   17 1
    25    9   27 1
    26    9   28 1
    27    9   29 1
    28   10   30 1
    29   10   31 1
    30   10   32 1
    31   11   14 1
    32   11   33 1
    33   11   34 1
    34   12   14 1
    35   13   14 1
    36   17   35 1
