@<TRIPOS>MOLECULE
*****
   26    26     0     0     0
SMALL
NO_CHARGES

@<TRIPOS>ATOM
      1 C1          2.1946   -0.8628    0.0808 C.ar      1 <0>         0.0000
      2 C2          1.3450   -0.0236    0.8151 C.ar      1 <0>         0.0000
      3 C3          2.9247   -1.9116    2.1153 C.ar      1 <0>         0.0000
      4 C4          2.9938   -1.8158    0.7152 C.ar      1 <0>         0.0000
      5 C5          1.2855   -0.1297    2.2058 C.ar      1 <0>         0.0000
      6 C6          2.0863   -1.0868    2.8662 C.ar      1 <0>         0.0000
      7 C7          3.9100   -2.7307   -0.0661 C.3       1 <0>         0.0000
      8 C8         -2.0427    3.4093    3.0002 C.3       1 <0>         0.0000
      9 C9         -1.1084    2.3219    3.5417 C.3       1 <0>         0.0000
     10 C10        -0.3443    1.6267    2.4247 C.3       1 <0>         0.0000
     11 O1          0.4959    0.6349    3.0200 O.3       1 <0>         0.0000
     12 S1          1.9523   -1.1568    4.6431 S.3       1 <0>         0.0000
     13 H1          2.2269   -0.7645   -1.0016 H         1 <0>         0.0000
     14 H2          0.7372    0.7070    0.2934 H         1 <0>         0.0000
     15 H3          3.5426   -2.6492    2.6242 H         1 <0>         0.0000
     16 H4          4.9489   -2.6390    0.2705 H         1 <0>         0.0000
     17 H5          3.6208   -3.7814    0.0524 H         1 <0>         0.0000
     18 H6          3.8844   -2.4978   -1.1342 H         1 <0>         0.0000
     19 H7         -1.4858    4.1829    2.4592 H         1 <0>         0.0000
     20 H8         -2.7871    2.9916    2.3126 H         1 <0>         0.0000
     21 H9         -2.5834    3.8995    3.8155 H         1 <0>         0.0000
     22 H10        -1.6796    1.5696    4.0965 H         1 <0>         0.0000
     23 H11        -0.3869    2.7537    4.2439 H         1 <0>         0.0000
     24 H12        -1.0375    1.1493    1.7181 H         1 <0>         0.0000
     25 H13         0.2708    2.3472    1.8676 H         1 <0>         0.0000
     26 H14         2.8468   -2.1555    4.7960 H         1 <0>         0.0000
@<TRIPOS>BOND
     1    1    2 ar
     2    1    4 ar
     3    1   13 1
     4    2    5 ar
     5    2   14 1
     6    3    4 ar
     7    3    6 ar
     8    3   15 1
     9    4    7 1
    10    5    6 ar
    11    5   11 1
    12    6   12 1
    13    7   16 1
    14    7   17 1
    15    7   18 1
    16    8    9 1
    17    8   19 1
    18    8   20 1
    19    8   21 1
    20    9   10 1
    21    9   22 1
    22    9   23 1
    23   10   11 1
    24   10   24 1
    25   10   25 1
    26   12   26 1
