@<TRIPOS>MOLECULE
*****
   35    36     0     0     0
SMALL
NO_CHARGES

@<TRIPOS>ATOM
      1 C1          3.9806    0.7675   -1.9176 C.2       1 <0>         0.0000
      2 C2          4.5835    0.9446   -0.6572 C.2       1 <0>         0.0000
      3 C3          1.4617   -2.2672   -0.4490 C.2       1 <0>         0.0000
      4 C4          0.8458    1.0549    0.4753 C.3       1 <0>         0.0000
      5 C5          1.1054   -0.3154    1.1104 C.3       1 <0>         0.0000
      6 C6         -0.7535   -1.2895   -0.1455 C.3       1 <0>         0.0000
      7 C7         -1.0714    0.0585   -0.8153 C.3       1 <0>         0.0000
      8 C8         -0.6283    1.2498    0.0663 C.3       1 <0>         0.0000
      9 C9         -2.5440    0.1151   -1.2345 C.3       1 <0>         0.0000
     10 C10        -1.5252    1.4594    1.2951 C.3       1 <0>         0.0000
     11 C11         2.9850   -2.1573   -0.2557 C.3       1 <0>         0.0000
     12 N1          3.3166   -0.3949   -1.9130 N.2       1 <0>         0.0000
     13 N2          4.2839   -0.1116    0.1099 N.2       1 <0>         0.0000
     14 N3          3.5301   -0.8762   -0.6876 N.pl3     1 <0>         0.0000
     15 N4          0.6623   -1.3797    0.2122 N.am      1 <0>         0.0000
     16 O1          1.0259   -3.1554   -1.1809 O.2       1 <0>         0.0000
     17 O2         -0.7274    2.4072   -0.7896 O.3       1 <0>         0.0000
     18 H1          3.9888    1.3994   -2.7952 H         1 <0>         0.0000
     19 H2          5.1962    1.7513   -0.2784 H         1 <0>         0.0000
     20 H3          1.1472    1.8439    1.1766 H         1 <0>         0.0000
     21 H4          1.4629    1.1567   -0.4220 H         1 <0>         0.0000
     22 H5          2.1582   -0.4245    1.3597 H         1 <0>         0.0000
     23 H6          0.5465   -0.4141    2.0501 H         1 <0>         0.0000
     24 H7         -1.3586   -1.4253    0.7607 H         1 <0>         0.0000
     25 H8         -0.9804   -2.1124   -0.8222 H         1 <0>         0.0000
     26 H9         -0.4550    0.1205   -1.7203 H         1 <0>         0.0000
     27 H10        -3.2160   -0.0786   -0.3912 H         1 <0>         0.0000
     28 H11        -2.7483   -0.6427   -1.9981 H         1 <0>         0.0000
     29 H12        -2.7890    1.0947   -1.6518 H         1 <0>         0.0000
     30 H13        -2.5416    1.7143    0.9873 H         1 <0>         0.0000
     31 H14        -1.1405    2.2839    1.9077 H         1 <0>         0.0000
     32 H15        -1.5743    0.5740    1.9358 H         1 <0>         0.0000
     33 H16         3.4206   -2.9536   -0.8596 H         1 <0>         0.0000
     34 H17         3.2855   -2.2892    0.7844 H         1 <0>         0.0000
     35 H18        -0.4732    3.1859   -0.2683 H         1 <0>         0.0000
@<TRIPOS>BOND
     1    1    2 1
     2    1   12 2
     3    1   18 1
     4    2   13 2
     5    2   19 1
     6    3   11 1
     7    3   15 am
     8    3   16 2
     9    4    5 1
    10    4    8 1
    11    4   20 1
    12    4   21 1
    13    5   15 1
    14    5   22 1
    15    5   23 1
    16    6    7 1
    17    6   15 1
    18    6   24 1
    19    6   25 1
    20    7    8 1
    21    7    9 1
    22    7   26 1
    23    8   10 1
    24    8   17 1
    25    9   27 1
    26    9   28 1
    27    9   29 1
    28   10   30 1
    29   10   31 1
    30   10   32 1
    31   11   14 1
    32   11   33 1
    33   11   34 1
    34   12   14 1
    35   13   14 1
    36   17   35 1
