@<TRIPOS>MOLECULE
*****
   35    36     0     0     0
SMALL
NO_CHARGES

@<TRIPOS>ATOM
      1 C1         -2.4645   -3.0856    1.3610 C.2       1 <0>         0.0000
      2 C2         -3.4089   -3.5725    0.4380 C.2       1 <0>         0.0000
      3 C3         -0.5408   -1.3235   -1.9543 C.2       1 <0>         0.0000
      4 C4          1.0267   -0.3339    1.0956 C.3       1 <0>         0.0000
      5 C5          1.2784   -1.1164   -0.1990 C.3       1 <0>         0.0000
      6 C6          0.5614    0.8100   -1.5368 C.3       1 <0>         0.0000
      7 C7          0.2066    1.6301   -0.2833 C.3       1 <0>         0.0000
      8 C8          1.1018    1.1923    0.9073 C.3       1 <0>         0.0000
      9 C9         -1.3011    1.5365   -0.0006 C.3       1 <0>         0.0000
     10 C10         0.7422    1.9103    2.2062 C.3       1 <0>         0.0000
     11 C11        -0.7017   -2.8273   -1.6632 C.3       1 <0>         0.0000
     12 N1         -1.3462   -2.7668    0.6970 N.2       1 <0>         0.0000
     13 N2         -2.8629   -3.5481   -0.7845 N.2       1 <0>         0.0000
     14 N3         -1.6373   -3.0655   -0.5732 N.pl3     1 <0>         0.0000
     15 N4          0.4245   -0.6278   -1.2850 N.am      1 <0>         0.0000
     16 O1         -1.2856   -0.8095   -2.7900 O.2       1 <0>         0.0000
     17 O2          2.4697    1.5931    0.6539 O.3       1 <0>         0.0000
     18 H1         -2.5316   -2.9576    2.4330 H         1 <0>         0.0000
     19 H2         -4.4184   -3.9295    0.5893 H         1 <0>         0.0000
     20 H3          0.0419   -0.6191    1.4733 H         1 <0>         0.0000
     21 H4          1.7692   -0.6317    1.8438 H         1 <0>         0.0000
     22 H5          2.3276   -1.0187   -0.5155 H         1 <0>         0.0000
     23 H6          1.0933   -2.1704   -0.0102 H         1 <0>         0.0000
     24 H7         -0.0925    1.0680   -2.3683 H         1 <0>         0.0000
     25 H8          1.5938    1.0057   -1.8610 H         1 <0>         0.0000
     26 H9          0.4606    2.6757   -0.4962 H         1 <0>         0.0000
     27 H10        -1.6054    0.5188    0.2613 H         1 <0>         0.0000
     28 H11        -1.8696    1.8245   -0.8899 H         1 <0>         0.0000
     29 H12        -1.5974    2.2001    0.8155 H         1 <0>         0.0000
     30 H13         0.7359    2.9944    2.0551 H         1 <0>         0.0000
     31 H14         1.4917    1.6772    2.9681 H         1 <0>         0.0000
     32 H15        -0.2370    1.6008    2.5782 H         1 <0>         0.0000
     33 H16         0.2373   -3.3366   -1.4415 H         1 <0>         0.0000
     34 H17        -1.1506   -3.2659   -2.5514 H         1 <0>         0.0000
     35 H18         2.7705    1.1853   -0.1722 H         1 <0>         0.0000
@<TRIPOS>BOND
     1    1    2 1
     2    1   12 2
     3    1   18 1
     4    2   13 2
     5    2   19 1
     6    3   11 1
     7    3   15 am
     8    3   16 2
     9    4    5 1
    10    4    8 1
    11    4   20 1
    12    4   21 1
    13    5   15 1
    14    5   22 1
    15    5   23 1
    16    6    7 1
    17    6   15 1
    18    6   24 1
    19    6   25 1
    20    7    8 1
    21    7    9 1
    22    7   26 1
    23    8   10 1
    24    8   17 1
    25    9   27 1
    26    9   28 1
    27    9   29 1
    28   10   30 1
    29   10   31 1
    30   10   32 1
    31   11   14 1
    32   11   33 1
    33   11   34 1
    34   12   14 1
    35   13   14 1
    36   17   35 1
