@<TRIPOS>MOLECULE
*****
   21    22     0     0     0
SMALL
NO_CHARGES

@<TRIPOS>ATOM
      1 C1          0.4253   -0.6708    3.7155 C.ar      1 <0>         0.0000
      2 C2         -0.7422   -1.0456    3.0505 C.ar      1 <0>         0.0000
      3 C3          1.6401   -0.6591    3.0290 C.ar      1 <0>         0.0000
      4 C4         -0.6641   -1.4141    1.7000 C.ar      1 <0>         0.0000
      5 C5          1.5974   -1.0292    1.6832 C.ar      1 <0>         0.0000
      6 C6         -3.0321   -2.4822    1.4929 C.2       1 <0>         0.0000
      7 C7         -2.2596   -0.7558   -0.2187 C.3       1 <0>         0.0000
      8 C8         -1.6953   -2.0770   -0.6035 C.3       1 <0>         0.0000
      9 C9         -1.8786   -1.7547    0.8882 C.3       1 <0>         0.0000
     10 N1          0.5067   -1.3930    1.0360 N.ar      1 <0>         0.0000
     11 O1         -4.1304   -2.5863    0.9750 O.2       1 <0>         0.0000
     12 O2         -2.7447   -3.0889    2.6771 O.3       1 <0>         0.0000
     13 Cl1         3.0970   -1.0190    0.7554 Cl        1 <0>         0.0000
     14 H1          0.3912   -0.3845    4.7633 H         1 <0>         0.0000
     15 H2         -1.6926   -1.0587    3.5698 H         1 <0>         0.0000
     16 H3          2.5724   -0.3743    3.5037 H         1 <0>         0.0000
     17 H4         -1.6148    0.1142   -0.2886 H         1 <0>         0.0000
     18 H5         -3.3221   -0.5860   -0.3550 H         1 <0>         0.0000
     19 H6         -2.3754   -2.8188   -1.0069 H         1 <0>         0.0000
     20 H7         -0.6638   -2.1248   -0.9309 H         1 <0>         0.0000
     21 H8         -3.5597   -3.5636    2.9315 H         1 <0>         0.0000
@<TRIPOS>BOND
     1    1    2 ar
     2    1    3 ar
     3    1   14 1
     4    2    4 ar
     5    2   15 1
     6    3    5 ar
     7    3   16 1
     8    4    9 1
     9    4   10 ar
    10    5   10 ar
    11    5   13 1
    12    6    9 1
    13    6   11 2
    14    6   12 1
    15    7    8 1
    16    7    9 1
    17    7   17 1
    18    7   18 1
    19    8    9 1
    20    8   19 1
    21    8   20 1
    22   12   21 1
