@<TRIPOS>MOLECULE
*****
   35    36     0     0     0
SMALL
NO_CHARGES

@<TRIPOS>ATOM
      1 C1         -1.0526   -2.8101    3.4882 C.2       1 <0>         0.0000
      2 C2         -2.0460   -2.0041    4.0763 C.2       1 <0>         0.0000
      3 C3         -2.0409   -1.6935   -0.4517 C.2       1 <0>         0.0000
      4 C4          1.0556    0.0021   -0.9487 C.3       1 <0>         0.0000
      5 C5         -0.3637   -0.2504   -1.4837 C.3       1 <0>         0.0000
      6 C6         -1.4450    0.4908    0.6243 C.3       1 <0>         0.0000
      7 C7         -0.2533    1.4643    0.6294 C.3       1 <0>         0.0000
      8 C8          1.0745    0.6998    0.4415 C.3       1 <0>         0.0000
      9 C9         -0.3085    2.3401    1.8853 C.3       1 <0>         0.0000
     10 C10         1.3340   -0.3250    1.5526 C.3       1 <0>         0.0000
     11 C11        -3.0168   -1.9680    0.7043 C.3       1 <0>         0.0000
     12 N1         -1.2819   -2.8763    2.1705 N.2       1 <0>         0.0000
     13 N2         -2.8768   -1.5821    3.1141 N.2       1 <0>         0.0000
     14 N3         -2.3732   -2.1280    2.0021 N.pl3     1 <0>         0.0000
     15 N4         -1.2811   -0.5628   -0.3866 N.am      1 <0>         0.0000
     16 O1         -2.0094   -2.4843   -1.3951 O.2       1 <0>         0.0000
     17 O2          2.1012    1.7127    0.4711 O.3       1 <0>         0.0000
     18 H1         -0.2101   -3.3226    3.9324 H         1 <0>         0.0000
     19 H2         -2.1969   -1.7151    5.1074 H         1 <0>         0.0000
     20 H3          1.5978   -0.9477   -0.8909 H         1 <0>         0.0000
     21 H4          1.5849    0.6445   -1.6595 H         1 <0>         0.0000
     22 H5         -0.7378    0.6337   -2.0151 H         1 <0>         0.0000
     23 H6         -0.3866   -1.0848   -2.1825 H         1 <0>         0.0000
     24 H7         -1.5342    0.0432    1.6139 H         1 <0>         0.0000
     25 H8         -2.3674    1.0596    0.4405 H         1 <0>         0.0000
     26 H9         -0.3369    2.1322   -0.2365 H         1 <0>         0.0000
     27 H10        -0.2671    1.7409    2.8005 H         1 <0>         0.0000
     28 H11        -1.2435    2.9111    1.9084 H         1 <0>         0.0000
     29 H12         0.5253    3.0444    1.8966 H         1 <0>         0.0000
     30 H13         1.3285    0.1467    2.5386 H         1 <0>         0.0000
     31 H14         2.3191   -0.7850    1.4051 H         1 <0>         0.0000
     32 H15         0.5991   -1.1334    1.5384 H         1 <0>         0.0000
     33 H16        -3.5426   -2.8875    0.4434 H         1 <0>         0.0000
     34 H17        -3.7410   -1.1598    0.8210 H         1 <0>         0.0000
     35 H18         2.9593    1.2653    0.3953 H         1 <0>         0.0000
@<TRIPOS>BOND
     1    1    2 1
     2    1   12 2
     3    1   18 1
     4    2   13 2
     5    2   19 1
     6    3   11 1
     7    3   15 am
     8    3   16 2
     9    4    5 1
    10    4    8 1
    11    4   20 1
    12    4   21 1
    13    5   15 1
    14    5   22 1
    15    5   23 1
    16    6    7 1
    17    6   15 1
    18    6   24 1
    19    6   25 1
    20    7    8 1
    21    7    9 1
    22    7   26 1
    23    8   10 1
    24    8   17 1
    25    9   27 1
    26    9   28 1
    27    9   29 1
    28   10   30 1
    29   10   31 1
    30   10   32 1
    31   11   14 1
    32   11   33 1
    33   11   34 1
    34   12   14 1
    35   13   14 1
    36   17   35 1
