@<TRIPOS>MOLECULE
*****
   25    26     0     0     0
SMALL
NO_CHARGES

@<TRIPOS>ATOM
      1 C1          2.0574   -0.7854   -0.1019 C.ar      1 <0>         0.0000
      2 C2          1.0311   -0.1548    0.5908 C.ar      1 <0>         0.0000
      3 C3          2.8344   -1.7612    0.5274 C.ar      1 <0>         0.0000
      4 C4         -3.4580    4.3348    0.9683 C.2       1 <0>         0.0000
      5 C5          0.7561   -0.4743    1.9339 C.ar      1 <0>         0.0000
      6 C6          2.5753   -2.1005    1.8562 C.ar      1 <0>         0.0000
      7 C7          1.5423   -1.4639    2.5632 C.ar      1 <0>         0.0000
      8 C8         -2.7517    2.6998    2.2077 C.2       1 <0>         0.0000
      9 C9         -0.3339    0.2012    2.6491 C.2       1 <0>         0.0000
     10 N1         -4.5053    3.8063    1.5497 N.2       1 <0>         0.0000
     11 N2         -4.0565    2.7454    2.3372 N.2       1 <0>         0.0000
     12 N3         -0.9055    1.2398    2.1471 N.2       1 <0>         0.0000
     13 N4         -2.3092    3.6816    1.3560 N.pl3     1 <0>         0.0000
     14 N5         -0.9985    4.0433    0.9914 N.3       1 <0>         0.0000
     15 N6         -1.9003    1.8323    2.8854 N.pl3     1 <0>         0.0000
     16 Cl1         3.5665   -3.3261    2.6073 Cl        1 <0>         0.0000
     17 Cl2         1.2485   -1.8953    4.2344 Cl        1 <0>         0.0000
     18 H1          2.2543   -0.5300   -1.1390 H         1 <0>         0.0000
     19 H2          0.4090    0.5875    0.1028 H         1 <0>         0.0000
     20 H3          3.6357   -2.2662   -0.0021 H         1 <0>         0.0000
     21 H4         -3.4471    5.1610    0.2706 H         1 <0>         0.0000
     22 H5         -0.6418   -0.2030    3.6165 H         1 <0>         0.0000
     23 H6         -0.5133    3.1836    0.7360 H         1 <0>         0.0000
     24 H7         -0.5343    4.4110    1.8234 H         1 <0>         0.0000
     25 H8         -2.3948    1.2542    3.5666 H         1 <0>         0.0000
@<TRIPOS>BOND
     1    1    2 ar
     2    1    3 ar
     3    1   18 1
     4    2    5 ar
     5    2   19 1
     6    3    6 ar
     7    3   20 1
     8    4   10 2
     9    4   13 1
    10    4   21 1
    11    5    7 ar
    12    5    9 1
    13    6    7 ar
    14    6   16 1
    15    7   17 1
    16    8   11 2
    17    8   13 1
    18    8   15 1
    19    9   12 2
    20    9   22 1
    21   10   11 1
    22   12   15 1
    23   13   14 1
    24   14   23 1
    25   14   24 1
    26   15   25 1
