@<TRIPOS>MOLECULE
*****
   26    26     0     0     0
SMALL
NO_CHARGES

@<TRIPOS>ATOM
      1 C1          0.8069   -0.9156   -0.4962 C.ar      1 <0>         0.0000
      2 C2         -0.1984   -0.2389    0.2012 C.ar      1 <0>         0.0000
      3 C3          1.7736   -1.6240    1.5843 C.ar      1 <0>         0.0000
      4 C4          1.8068   -1.6205    0.1836 C.ar      1 <0>         0.0000
      5 C5         -0.2219   -0.2462    1.5984 C.ar      1 <0>         0.0000
      6 C6          0.7806   -0.9467    2.3002 C.ar      1 <0>         0.0000
      7 C7          2.8788   -2.3830   -0.5617 C.3       1 <0>         0.0000
      8 C8         -0.1143    3.0765    2.8901 C.3       1 <0>         0.0000
      9 C9         -0.9022    2.7143    1.6268 C.3       1 <0>         0.0000
     10 C10        -1.8503    1.5338    1.8332 C.3       1 <0>         0.0000
     11 O1         -1.1934    0.3666    2.3563 O.3       1 <0>         0.0000
     12 S1          0.8380   -0.9833    4.0794 S.3       1 <0>         0.0000
     13 H1          0.8057   -0.8906   -1.5833 H         1 <0>         0.0000
     14 H2         -0.9639    0.2944   -0.3528 H         1 <0>         0.0000
     15 H3          2.5435   -2.1615    2.1345 H         1 <0>         0.0000
     16 H4          3.8489   -2.3023   -0.0612 H         1 <0>         0.0000
     17 H5          2.6320   -3.4497   -0.6268 H         1 <0>         0.0000
     18 H6          2.9950   -2.0092   -1.5832 H         1 <0>         0.0000
     19 H7         -0.7869    3.3040    3.7254 H         1 <0>         0.0000
     20 H8          0.5356    2.2527    3.1987 H         1 <0>         0.0000
     21 H9          0.5157    3.9547    2.7171 H         1 <0>         0.0000
     22 H10        -0.2090    2.4963    0.8076 H         1 <0>         0.0000
     23 H11        -1.5132    3.5658    1.3003 H         1 <0>         0.0000
     24 H12        -2.5968    1.7737    2.5955 H         1 <0>         0.0000
     25 H13        -2.3885    1.2855    0.9105 H         1 <0>         0.0000
     26 H14        -0.2971   -0.2847    4.2692 H         1 <0>         0.0000
@<TRIPOS>BOND
     1    1    2 ar
     2    1    4 ar
     3    1   13 1
     4    2    5 ar
     5    2   14 1
     6    3    4 ar
     7    3    6 ar
     8    3   15 1
     9    4    7 1
    10    5    6 ar
    11    5   11 1
    12    6   12 1
    13    7   16 1
    14    7   17 1
    15    7   18 1
    16    8    9 1
    17    8   19 1
    18    8   20 1
    19    8   21 1
    20    9   10 1
    21    9   22 1
    22    9   23 1
    23   10   11 1
    24   10   24 1
    25   10   25 1
    26   12   26 1
