@<TRIPOS>MOLECULE
*****
   35    36     0     0     0
SMALL
NO_CHARGES

@<TRIPOS>ATOM
      1 C1          4.3990   -0.5209   -1.0780 C.2       1 <0>         0.0000
      2 C2          4.3473   -1.4187    0.0042 C.2       1 <0>         0.0000
      3 C3          0.2217   -1.1518   -1.5324 C.2       1 <0>         0.0000
      4 C4          0.2848   -0.3410    1.9371 C.3       1 <0>         0.0000
      5 C5          0.1201   -1.5262    0.9538 C.3       1 <0>         0.0000
      6 C6         -1.4014    0.0066   -0.1763 C.3       1 <0>         0.0000
      7 C7         -0.7391    1.3124    0.3215 C.3       1 <0>         0.0000
      8 C8          0.5111    0.9851    1.1982 C.3       1 <0>         0.0000
      9 C9         -1.8032    2.1766    1.0093 C.3       1 <0>         0.0000
     10 C10         0.8708    2.1080    2.1757 C.3       1 <0>         0.0000
     11 C11         1.3652   -2.1733   -1.6816 C.3       1 <0>         0.0000
     12 N1          3.3103   -0.7013   -1.8357 N.2       1 <0>         0.0000
     13 N2          3.2275   -2.1434   -0.0996 N.2       1 <0>         0.0000
     14 N3          2.6508   -1.6765   -1.2116 N.pl3     1 <0>         0.0000
     15 N4         -0.4233   -1.0654   -0.3306 N.am      1 <0>         0.0000
     16 O1         -0.1182   -0.4939   -2.5170 O.2       1 <0>         0.0000
     17 O2          1.6573    0.7320    0.3567 O.3       1 <0>         0.0000
     18 H1          5.1446    0.2166   -1.3426 H         1 <0>         0.0000
     19 H2          5.0388   -1.5760    0.8206 H         1 <0>         0.0000
     20 H3         -0.5992   -0.2389    2.5757 H         1 <0>         0.0000
     21 H4          1.1354   -0.5407    2.5954 H         1 <0>         0.0000
     22 H5          1.0836   -2.0021    0.8009 H         1 <0>         0.0000
     23 H6         -0.5614   -2.2720    1.3831 H         1 <0>         0.0000
     24 H7         -2.1464   -0.3320    0.5540 H         1 <0>         0.0000
     25 H8         -1.9070    0.1671   -1.1275 H         1 <0>         0.0000
     26 H9         -0.3756    1.8602   -0.5575 H         1 <0>         0.0000
     27 H10        -2.1539    1.7147    1.9398 H         1 <0>         0.0000
     28 H11        -2.6732    2.2908    0.3531 H         1 <0>         0.0000
     29 H12        -1.4363    3.1782    1.2463 H         1 <0>         0.0000
     30 H13         1.0077    3.0577    1.6458 H         1 <0>         0.0000
     31 H14         1.8142    1.8593    2.6698 H         1 <0>         0.0000
     32 H15         0.1047    2.2551    2.9427 H         1 <0>         0.0000
     33 H16         1.4480   -2.3739   -2.7497 H         1 <0>         0.0000
     34 H17         1.1745   -3.1032   -1.1464 H         1 <0>         0.0000
     35 H18         1.6992    1.4042   -0.3415 H         1 <0>         0.0000
@<TRIPOS>BOND
     1    1    2 1
     2    1   12 2
     3    1   18 1
     4    2   13 2
     5    2   19 1
     6    3   11 1
     7    3   15 am
     8    3   16 2
     9    4    5 1
    10    4    8 1
    11    4   20 1
    12    4   21 1
    13    5   15 1
    14    5   22 1
    15    5   23 1
    16    6    7 1
    17    6   15 1
    18    6   24 1
    19    6   25 1
    20    7    8 1
    21    7    9 1
    22    7   26 1
    23    8   10 1
    24    8   17 1
    25    9   27 1
    26    9   28 1
    27    9   29 1
    28   10   30 1
    29   10   31 1
    30   10   32 1
    31   11   14 1
    32   11   33 1
    33   11   34 1
    34   12   14 1
    35   13   14 1
    36   17   35 1
