@<TRIPOS>MOLECULE
*****
   21    21     0     0     0
SMALL
NO_CHARGES

@<TRIPOS>ATOM
      1 C1         -2.2085   -6.9511    0.8140 C.2       1 <0>         0.0000
      2 C2         -3.0579   -7.0739   -0.3207 C.2       1 <0>         0.0000
      3 C3         -1.0834   -6.3142    0.3188 C.2       1 <0>         0.0000
      4 C4          0.6761   -7.0807   -3.7693 C.2       1 <0>         0.0000
      5 C5          0.5896   -6.7014   -2.4917 C.2       1 <0>         0.0000
      6 C6         -4.4242   -7.6831   -0.3618 C.3       1 <0>         0.0000
      7 C7         -0.3197   -5.6017   -2.0025 C.3       1 <0>         0.0000
      8 N1         -2.4876   -6.5466   -1.4113 N.2       1 <0>         0.0000
      9 N2         -1.2832   -6.0723   -1.0141 N.pl3     1 <0>         0.0000
     10 N3         -2.4438   -7.4498    2.1124 N.pl3     1 <0>         0.0000
     11 Cl1         0.3599   -5.8500    1.1572 Cl        1 <0>         0.0000
     12 H1          1.3516   -7.8727   -4.0825 H         1 <0>         0.0000
     13 H2          0.0709   -6.6135   -4.5440 H         1 <0>         0.0000
     14 H3          1.1962   -7.1928   -1.7317 H         1 <0>         0.0000
     15 H4         -5.1467   -7.1013    0.2245 H         1 <0>         0.0000
     16 H5         -4.7809   -7.7252   -1.3934 H         1 <0>         0.0000
     17 H6         -4.4105   -8.6988    0.0486 H         1 <0>         0.0000
     18 H7         -0.9009   -5.1808   -2.8243 H         1 <0>         0.0000
     19 H8          0.2636   -4.7962   -1.5443 H         1 <0>         0.0000
     20 H9         -3.3589   -7.1798    2.4626 H         1 <0>         0.0000
     21 H10        -1.7356   -7.1356    2.7700 H         1 <0>         0.0000
@<TRIPOS>BOND
     1    1    2 1
     2    1    3 2
     3    1   10 1
     4    2    6 1
     5    2    8 2
     6    3    9 1
     7    3   11 1
     8    4    5 2
     9    4   12 1
    10    4   13 1
    11    5    7 1
    12    5   14 1
    13    6   15 1
    14    6   16 1
    15    6   17 1
    16    7    9 1
    17    7   18 1
    18    7   19 1
    19    8    9 1
    20   10   20 1
    21   10   21 1
