@<TRIPOS>MOLECULE
*****
   13    13     0     0     0
SMALL
NO_CHARGES

@<TRIPOS>ATOM
      1 C1          0.5779    1.1858    1.8460 C.2       1 <0>         0.0000
      2 C2         -0.3042    0.2702    1.1595 C.2       1 <0>         0.0000
      3 C3          0.0257    1.6288    3.0355 C.2       1 <0>         0.0000
      4 C4         -0.0566   -0.3987   -0.1608 C.3       1 <0>         0.0000
      5 N1         -1.4464    0.0440    1.7824 N.2       1 <0>         0.0000
      6 N2          1.8825    1.5782    1.3465 N.pl3     1 <0>         0.0000
      7 O1          2.4104    0.8351    0.5084 O.3       1 <0>         0.0000
      8 O2          2.3843    2.6191    1.7812 O.2       1 <0>         0.0000
      9 S1         -1.5132    0.8922    3.2304 S.3       1 <0>         0.0000
     10 Br1         0.7106    2.7770    4.3505 Br        1 <0>         0.0000
     11 H1          0.7695   -1.1095   -0.0840 H         1 <0>         0.0000
     12 H2         -0.9663   -0.9205   -0.4626 H         1 <0>         0.0000
     13 H3          0.2213    0.3309   -0.9261 H         1 <0>         0.0000
@<TRIPOS>BOND
     1    1    2 1
     2    1    3 2
     3    1    6 1
     4    2    4 1
     5    2    5 2
     6    3    9 1
     7    3   10 1
     8    4   11 1
     9    4   12 1
    10    4   13 1
    11    5    9 1
    12    6    7 1
    13    6    8 2
