@<TRIPOS>MOLECULE
*****
   20    20     0     0     0
SMALL
NO_CHARGES

@<TRIPOS>ATOM
      1 C1          2.4009   -0.8258    0.2220 C.ar      1 <0>         0.0000
      2 C2          1.2438   -0.2113    0.7045 C.ar      1 <0>         0.0000
      3 C3          2.8826   -1.6325    2.4643 C.ar      1 <0>         0.0000
      4 C4          1.7232   -1.0279    2.9648 C.ar      1 <0>         0.0000
      5 C5          3.2067   -1.5252    1.1152 C.ar      1 <0>         0.0000
      6 C6          0.9227   -0.3176    2.0576 C.ar      1 <0>         0.0000
      7 C7          1.3755   -1.1371    4.4368 C.3       1 <0>         0.0000
      8 C8          5.5082   -1.5042    0.6057 C.3       1 <0>         0.0000
      9 O1          1.5829    0.0801    5.1538 O.3       1 <0>         0.0000
     10 O2          4.3439   -2.2029    0.6320 O.3       1 <0>         0.0000
     11 F1          5.4396   -0.4086   -0.1868 F         1 <0>         0.0000
     12 F2          6.4582   -2.3138    0.1263 F         1 <0>         0.0000
     13 F3          5.8865   -1.0771    1.8321 F         1 <0>         0.0000
     14 Cl1        -0.5468    0.4762    2.6257 Cl        1 <0>         0.0000
     15 H1          2.6724   -0.7642   -0.8266 H         1 <0>         0.0000
     16 H2          0.5953    0.3431    0.0341 H         1 <0>         0.0000
     17 H3          3.5376   -2.1897    3.1273 H         1 <0>         0.0000
     18 H4          0.3415   -1.4873    4.5494 H         1 <0>         0.0000
     19 H5          2.0316   -1.8713    4.9081 H         1 <0>         0.0000
     20 H6          0.9052    0.7147    4.8697 H         1 <0>         0.0000
@<TRIPOS>BOND
     1    1    2 ar
     2    1    5 ar
     3    1   15 1
     4    2    6 ar
     5    2   16 1
     6    3    4 ar
     7    3    5 ar
     8    3   17 1
     9    4    6 ar
    10    4    7 1
    11    5   10 1
    12    6   14 1
    13    7    9 1
    14    7   18 1
    15    7   19 1
    16    8   10 1
    17    8   11 1
    18    8   12 1
    19    8   13 1
    20    9   20 1
