@<TRIPOS>MOLECULE
*****
   15    14     0     0     0
SMALL
NO_CHARGES

@<TRIPOS>ATOM
      1 C1          0.9910    1.2881   -0.2233 C.2       1 <0>         0.0000
      2 C2          0.0800    0.3308   -0.4232 C.2       1 <0>         0.0000
      3 C3          0.1138   -0.9931    0.2626 C.2       1 <0>         0.0000
      4 O1         -0.7283   -1.8670    0.1001 O.2       1 <0>         0.0000
      5 O2         -0.0741   -0.9304   -3.1528 O.2       1 <0>         0.0000
      6 O3          1.1625   -1.1494    1.0917 O.3       1 <0>         0.0000
      7 O4         -2.1988    0.5738   -3.4559 O.3       1 <0>         0.0000
      8 O5         -2.4470   -1.4049   -2.0481 O.3       1 <0>         0.0000
      9 O6         -1.0173    0.5445   -1.2318 O.3       1 <0>         0.0000
     10 P1         -1.3138   -0.4046   -2.5469 P.3       1 <0>         0.0000
     11 H1          0.9131    2.2353   -0.7468 H         1 <0>         0.0000
     12 H2          1.8074    1.1315    0.4707 H         1 <0>         0.0000
     13 H3          1.0886   -2.0474    1.4684 H         1 <0>         0.0000
     14 H4         -1.6827    0.9005   -4.2123 H         1 <0>         0.0000
     15 H5         -2.1379   -1.8562   -1.2313 H         1 <0>         0.0000
@<TRIPOS>BOND
     1    1    2 2
     2    1   11 1
     3    1   12 1
     4    2    3 1
     5    2    9 1
     6    3    4 2
     7    3    6 1
     8    5   10 2
     9    6   13 1
    10    7   10 1
    11    7   14 1
    12    8   10 1
    13    8   15 1
    14    9   10 1
