@<TRIPOS>MOLECULE
*****
   21    22     0     0     0
SMALL
NO_CHARGES

@<TRIPOS>ATOM
      1 C1          1.4204   -2.1135    2.6328 C.ar      1 <0>         0.0000
      2 C2          0.2090   -2.3683    1.9899 C.ar      1 <0>         0.0000
      3 C3          1.6501   -0.8622    3.2062 C.ar      1 <0>         0.0000
      4 C4         -0.7598   -1.3558    1.9444 C.ar      1 <0>         0.0000
      5 C5          0.6220    0.0752    3.0868 C.ar      1 <0>         0.0000
      6 C6         -2.7715   -2.8274    1.1852 C.2       1 <0>         0.0000
      7 C7         -3.0160   -0.3201    1.1411 C.3       1 <0>         0.0000
      8 C8         -2.2252   -0.6739   -0.0680 C.3       1 <0>         0.0000
      9 C9         -2.0564   -1.5185    1.2076 C.3       1 <0>         0.0000
     10 N1         -0.5335   -0.1460    2.4893 N.ar      1 <0>         0.0000
     11 O1         -3.6947   -3.0964    0.4363 O.2       1 <0>         0.0000
     12 O2         -2.3418   -3.7095    2.1287 O.3       1 <0>         0.0000
     13 Cl1         0.8574    1.6811    3.7762 Cl        1 <0>         0.0000
     14 H1          2.1859   -2.8832    2.6846 H         1 <0>         0.0000
     15 H2          0.0162   -3.3341    1.5391 H         1 <0>         0.0000
     16 H3          2.5760   -0.6181    3.7148 H         1 <0>         0.0000
     17 H4         -2.7093    0.5363    1.7293 H         1 <0>         0.0000
     18 H5         -4.0715   -0.5678    1.1444 H         1 <0>         0.0000
     19 H6         -2.7307   -1.1629   -0.8936 H         1 <0>         0.0000
     20 H7         -1.3716   -0.0528   -0.3194 H         1 <0>         0.0000
     21 H8         -2.9197   -4.4916    2.0369 H         1 <0>         0.0000
@<TRIPOS>BOND
     1    1    2 ar
     2    1    3 ar
     3    1   14 1
     4    2    4 ar
     5    2   15 1
     6    3    5 ar
     7    3   16 1
     8    4    9 1
     9    4   10 ar
    10    5   10 ar
    11    5   13 1
    12    6    9 1
    13    6   11 2
    14    6   12 1
    15    7    8 1
    16    7    9 1
    17    7   17 1
    18    7   18 1
    19    8    9 1
    20    8   19 1
    21    8   20 1
    22   12   21 1
