@<TRIPOS>MOLECULE
*****
   35    36     0     0     0
SMALL
NO_CHARGES

@<TRIPOS>ATOM
      1 C1          3.8074   -3.0804    2.5977 C.2       1 <0>         0.0000
      2 C2          2.7234   -3.9259    2.2931 C.2       1 <0>         0.0000
      3 C3          1.6124   -1.7790   -1.1366 C.2       1 <0>         0.0000
      4 C4          0.8068    1.0648    0.9992 C.3       1 <0>         0.0000
      5 C5          1.2509   -0.4008    0.9376 C.3       1 <0>         0.0000
      6 C6         -0.5884   -0.8556   -0.6473 C.3       1 <0>         0.0000
      7 C7         -1.0535    0.6055   -0.6049 C.3       1 <0>         0.0000
      8 C8         -0.6973    1.2670    0.7438 C.3       1 <0>         0.0000
      9 C9         -2.5391    0.7018   -0.9681 C.3       1 <0>         0.0000
     10 C10        -1.5400    0.7508    1.9183 C.3       1 <0>         0.0000
     11 C11         3.0474   -2.1013   -0.6858 C.3       1 <0>         0.0000
     12 N1          4.0508   -2.3010    1.5357 N.2       1 <0>         0.0000
     13 N2          2.3120   -3.6589    1.0467 N.2       1 <0>         0.0000
     14 N3          3.1340   -2.6897    0.6441 N.pl3     1 <0>         0.0000
     15 N4          0.8337   -1.0025   -0.3280 N.am      1 <0>         0.0000
     16 O1          1.2349   -2.2192   -2.2224 O.2       1 <0>         0.0000
     17 O2         -0.9562    2.6734    0.5569 O.3       1 <0>         0.0000
     18 H1          4.4015   -2.9963    3.4975 H         1 <0>         0.0000
     19 H2          2.2363   -4.6858    2.8889 H         1 <0>         0.0000
     20 H3          1.0788    1.4749    1.9805 H         1 <0>         0.0000
     21 H4          1.3526    1.6363    0.2407 H         1 <0>         0.0000
     22 H5          2.3328   -0.4408    1.0395 H         1 <0>         0.0000
     23 H6          0.8289   -0.9741    1.7742 H         1 <0>         0.0000
     24 H7         -1.1717   -1.4613    0.0610 H         1 <0>         0.0000
     25 H8         -0.7454   -1.2727   -1.6410 H         1 <0>         0.0000
     26 H9         -0.4807    1.1565   -1.3609 H         1 <0>         0.0000
     27 H10        -3.1570    0.0641   -0.3266 H         1 <0>         0.0000
     28 H11        -2.6976    0.3785   -2.0022 H         1 <0>         0.0000
     29 H12        -2.8928    1.7311   -0.8736 H         1 <0>         0.0000
     30 H13        -2.5941    0.9949    1.7691 H         1 <0>         0.0000
     31 H14        -1.2126    1.2219    2.8533 H         1 <0>         0.0000
     32 H15        -1.4541   -0.3312    2.0524 H         1 <0>         0.0000
     33 H16         3.6795   -1.2117   -0.6749 H         1 <0>         0.0000
     34 H17         3.4381   -2.8040   -1.4228 H         1 <0>         0.0000
     35 H18        -0.7688    3.1265    1.3950 H         1 <0>         0.0000
@<TRIPOS>BOND
     1    1    2 1
     2    1   12 2
     3    1   18 1
     4    2   13 2
     5    2   19 1
     6    3   11 1
     7    3   15 am
     8    3   16 2
     9    4    5 1
    10    4    8 1
    11    4   20 1
    12    4   21 1
    13    5   15 1
    14    5   22 1
    15    5   23 1
    16    6    7 1
    17    6   15 1
    18    6   24 1
    19    6   25 1
    20    7    8 1
    21    7    9 1
    22    7   26 1
    23    8   10 1
    24    8   17 1
    25    9   27 1
    26    9   28 1
    27    9   29 1
    28   10   30 1
    29   10   31 1
    30   10   32 1
    31   11   14 1
    32   11   33 1
    33   11   34 1
    34   12   14 1
    35   13   14 1
    36   17   35 1
