@<TRIPOS>MOLECULE
*****
   15    14     0     0     0
SMALL
NO_CHARGES

@<TRIPOS>ATOM
      1 C1          0.8869    1.3585    0.1448 C.2       1 <0>         0.0000
      2 C2          0.4951    0.1644   -0.3055 C.2       1 <0>         0.0000
      3 C3          0.9186   -1.0885    0.3893 C.2       1 <0>         0.0000
      4 O1          1.5566   -1.1358    1.4177 O.2       1 <0>         0.0000
      5 O2         -2.3719   -0.5966   -0.1228 O.2       1 <0>         0.0000
      6 O3          0.5165   -2.2206   -0.2727 O.3       1 <0>         0.0000
      7 O4         -1.5742   -1.9540   -2.2684 O.3       1 <0>         0.0000
      8 O5         -2.5024    0.2785   -2.5877 O.3       1 <0>         0.0000
      9 O6         -0.2396    0.0409   -1.4740 O.3       1 <0>         0.0000
     10 P1         -1.7560   -0.5855   -1.4639 P.3       1 <0>         0.0000
     11 H1          0.5868    2.2672   -0.3659 H         1 <0>         0.0000
     12 H2          1.5194    1.4183    1.0226 H         1 <0>         0.0000
     13 H3          0.8015   -2.9701    0.2856 H         1 <0>         0.0000
     14 H4         -0.8635   -2.4848   -1.8598 H         1 <0>         0.0000
     15 H5         -3.1687    0.8623   -2.1868 H         1 <0>         0.0000
@<TRIPOS>BOND
     1    1    2 2
     2    1   11 1
     3    1   12 1
     4    2    3 1
     5    2    9 1
     6    3    4 2
     7    3    6 1
     8    5   10 2
     9    6   13 1
    10    7   10 1
    11    7   14 1
    12    8   10 1
    13    8   15 1
    14    9   10 1
