@<TRIPOS>MOLECULE
*****
   20    19     0     0     0
SMALL
NO_CHARGES

@<TRIPOS>ATOM
      1 C1         -0.4538   -2.7423    1.4193 C.2       1 <0>         0.0000
      2 C2         -0.6881   -4.1618    0.9420 C.3       1 <0>         0.0000
      3 C3         -0.2384    1.7158   -1.1399 C.3       1 <0>         0.0000
      4 C4          1.0170    0.4924    3.3573 C.3       1 <0>         0.0000
      5 N1         -0.4769   -1.7768    0.4232 N.am      1 <0>         0.0000
      6 O1         -0.2635   -2.4438    2.5905 O.2       1 <0>         0.0000
      7 O2         -1.4604    0.5307    1.4754 O.2       1 <0>         0.0000
      8 O3         -0.1308    0.3108   -0.8028 O.3       1 <0>         0.0000
      9 P1         -0.3347   -0.1048    0.7501 P.3       1 <0>         0.0000
     10 S1          1.5456    0.2570    1.6114 S.3       1 <0>         0.0000
     11 H1         -0.0507   -4.4070    0.0865 H         1 <0>         0.0000
     12 H2         -1.7318   -4.2810    0.6320 H         1 <0>         0.0000
     13 H3         -0.4804   -4.8487    1.7621 H         1 <0>         0.0000
     14 H4         -0.1172    1.7738   -2.2214 H         1 <0>         0.0000
     15 H5          0.5542    2.2837   -0.6451 H         1 <0>         0.0000
     16 H6         -1.2173    2.0989   -0.8436 H         1 <0>         0.0000
     17 H7          1.9083    0.8220    3.8953 H         1 <0>         0.0000
     18 H8          0.6534   -0.4533    3.7571 H         1 <0>         0.0000
     19 H9          0.2396    1.2542    3.4092 H         1 <0>         0.0000
     20 H10        -0.6066   -2.0524   -0.5452 H         1 <0>         0.0000
@<TRIPOS>BOND
     1    1    2 1
     2    1    5 am
     3    1    6 2
     4    2   11 1
     5    2   12 1
     6    2   13 1
     7    3    8 1
     8    3   14 1
     9    3   15 1
    10    3   16 1
    11    4   10 1
    12    4   17 1
    13    4   18 1
    14    4   19 1
    15    5    9 1
    16    5   20 1
    17    7    9 2
    18    8    9 1
    19    9   10 1
