@<TRIPOS>MOLECULE
*****
   24    24     0     0     0
SMALL
NO_CHARGES

@<TRIPOS>ATOM
      1 C1          4.2930    1.4308   -5.2604 C.2       1 <0>         0.0000
      2 C2          3.4445    0.8331   -4.3745 C.2       1 <0>         0.0000
      3 C3          4.9051   -0.8696   -4.4839 C.2       1 <0>         0.0000
      4 C4          0.9622    0.6359   -4.2291 C.2       1 <0>         0.0000
      5 C5         -0.5011   -1.0783   -3.5398 C.3       1 <0>         0.0000
      6 C6          5.7779   -3.2583   -6.6347 C.3       1 <0>         0.0000
      7 C7          2.1759    1.4593   -3.8424 C.3       1 <0>         0.0000
      8 N1          3.7732   -0.4315   -3.9488 N.2       1 <0>         0.0000
      9 N2          5.4150   -2.0845   -4.2072 N.2       1 <0>         0.0000
     10 O1          0.4178    0.6514   -5.3191 O.2       1 <0>         0.0000
     11 O2          7.0895   -3.9364   -4.4439 O.2       1 <0>         0.0000
     12 O3          7.6214   -1.7207   -5.5464 O.2       1 <0>         0.0000
     13 O4          0.5387   -0.1463   -3.2052 O.3       1 <0>         0.0000
     14 S1          5.6573    0.3878   -5.5886 S.3       1 <0>         0.0000
     15 S2          6.6023   -2.7097   -5.1045 S.o2      1 <0>         0.0000
     16 H1          4.1940    2.4040   -5.7253 H         1 <0>         0.0000
     17 H2         -0.6833   -1.6522   -2.6302 H         1 <0>         0.0000
     18 H3         -0.1718   -1.7380   -4.3464 H         1 <0>         0.0000
     19 H4         -1.4087   -0.5538   -3.8534 H         1 <0>         0.0000
     20 H5          6.5378   -3.7027   -7.2816 H         1 <0>         0.0000
     21 H6          5.0183   -3.9933   -6.3639 H         1 <0>         0.0000
     22 H7          5.3253   -2.3894   -7.1176 H         1 <0>         0.0000
     23 H8          2.2257    1.5310   -2.7517 H         1 <0>         0.0000
     24 H9          2.0513    2.4570   -4.2705 H         1 <0>         0.0000
@<TRIPOS>BOND
     1    1    2 2
     2    1   14 1
     3    1   16 1
     4    2    7 1
     5    2    8 1
     6    3    8 2
     7    3    9 1
     8    3   14 1
     9    4    7 1
    10    4   10 2
    11    4   13 1
    12    5   13 1
    13    5   17 1
    14    5   18 1
    15    5   19 1
    16    6   15 1
    17    6   20 1
    18    6   21 1
    19    6   22 1
    20    7   23 1
    21    7   24 1
    22    9   15 1
    23   11   15 2
    24   12   15 2
