@<TRIPOS>MOLECULE
*****
   24    24     0     0     0
SMALL
NO_CHARGES

@<TRIPOS>ATOM
      1 C1          3.9839    1.5655   -5.5173 C.2       1 <0>         0.0000
      2 C2          3.4131    0.8006   -4.5397 C.2       1 <0>         0.0000
      3 C3          5.2553   -0.4567   -4.7807 C.2       1 <0>         0.0000
      4 C4          2.3164    1.5441   -2.4295 C.2       1 <0>         0.0000
      5 C5          2.7363    0.7858   -0.2356 C.3       1 <0>         0.0000
      6 C6          5.6026   -2.0789   -2.0586 C.3       1 <0>         0.0000
      7 C7          2.0953    1.1123   -3.8665 C.3       1 <0>         0.0000
      8 N1          4.1054   -0.3142   -4.1302 N.2       1 <0>         0.0000
      9 N2          6.2354   -1.3592   -4.6634 N.2       1 <0>         0.0000
     10 O1          2.4552    2.6956   -2.0525 O.2       1 <0>         0.0000
     11 O2          7.2874   -3.3770   -3.6248 O.2       1 <0>         0.0000
     12 O3          4.8230   -3.4976   -4.1537 O.2       1 <0>         0.0000
     13 O4          2.3664    0.4827   -1.5895 O.3       1 <0>         0.0000
     14 S1          5.5145    0.8577   -5.9978 S.3       1 <0>         0.0000
     15 S2          5.9862   -2.6821   -3.7335 S.o2      1 <0>         0.0000
     16 H1          3.6120    2.4856   -5.9494 H         1 <0>         0.0000
     17 H2          2.7748   -0.1757    0.2777 H         1 <0>         0.0000
     18 H3          1.9981    1.4443    0.2318 H         1 <0>         0.0000
     19 H4          3.7153    1.2711   -0.2089 H         1 <0>         0.0000
     20 H5          5.4893   -2.9637   -1.4277 H         1 <0>         0.0000
     21 H6          6.4436   -1.4703   -1.7198 H         1 <0>         0.0000
     22 H7          4.6817   -1.4977   -2.1081 H         1 <0>         0.0000
     23 H8          1.5940    1.9326   -4.3835 H         1 <0>         0.0000
     24 H9          1.4634    0.2191   -3.8807 H         1 <0>         0.0000
@<TRIPOS>BOND
     1    1    2 2
     2    1   14 1
     3    1   16 1
     4    2    7 1
     5    2    8 1
     6    3    8 2
     7    3    9 1
     8    3   14 1
     9    4    7 1
    10    4   10 2
    11    4   13 1
    12    5   13 1
    13    5   17 1
    14    5   18 1
    15    5   19 1
    16    6   15 1
    17    6   20 1
    18    6   21 1
    19    6   22 1
    20    7   23 1
    21    7   24 1
    22    9   15 1
    23   11   15 2
    24   12   15 2
