@<TRIPOS>MOLECULE
*****
   19    20     0     0     0
SMALL
NO_CHARGES

@<TRIPOS>ATOM
      1 C1          0.4347   -0.7759   -1.5956 C.2       1 <0>         0.0000
      2 C2          0.3019    0.4102   -2.3989 C.2       1 <0>         0.0000
      3 C3         -0.4007    0.1886   -3.5631 C.2       1 <0>         0.0000
      4 C4         -0.1623   -1.8633   -2.1669 C.2       1 <0>         0.0000
      5 C5          2.2330    1.8426   -1.3869 C.3       1 <0>         0.0000
      6 C6          1.9820    2.3809   -2.7774 C.3       1 <0>         0.0000
      7 C7          0.8495    1.7404   -1.9932 C.3       1 <0>         0.0000
      8 C8         -0.7767    1.1774   -4.6279 C.3       1 <0>         0.0000
      9 S1         -0.9056   -1.4810   -3.6922 S.3       1 <0>         0.0000
     10 Br1        -0.2189   -3.6283   -1.4790 Br        1 <0>         0.0000
     11 H1          0.9529   -0.8060   -0.6437 H         1 <0>         0.0000
     12 H2          2.8135    0.9284   -1.3037 H         1 <0>         0.0000
     13 H3          2.3859    2.5515   -0.5786 H         1 <0>         0.0000
     14 H4          1.9618    3.4577   -2.9193 H         1 <0>         0.0000
     15 H5          2.3873    1.8174   -3.6126 H         1 <0>         0.0000
     16 H6          0.1138    2.4359   -1.5928 H         1 <0>         0.0000
     17 H7         -0.6620    0.7581   -5.6327 H         1 <0>         0.0000
     18 H8         -1.8177    1.5054   -4.5226 H         1 <0>         0.0000
     19 H9         -0.1389    2.0612   -4.5530 H         1 <0>         0.0000
@<TRIPOS>BOND
     1    1    2 1
     2    1    4 2
     3    1   11 1
     4    2    3 2
     5    2    7 1
     6    3    8 1
     7    3    9 1
     8    4    9 1
     9    4   10 1
    10    5    6 1
    11    5    7 1
    12    5   12 1
    13    5   13 1
    14    6    7 1
    15    6   14 1
    16    6   15 1
    17    7   16 1
    18    8   17 1
    19    8   18 1
    20    8   19 1
