@<TRIPOS>MOLECULE
*****
   24    24     0     0     0
SMALL
NO_CHARGES

@<TRIPOS>ATOM
      1 C1          3.7570    1.5672   -5.5066 C.2       1 <0>         0.0000
      2 C2          3.2478    0.9082   -4.4257 C.2       1 <0>         0.0000
      3 C3          4.9399   -0.5218   -4.7948 C.2       1 <0>         0.0000
      4 C4          2.4032    1.6510   -2.1991 C.2       1 <0>         0.0000
      5 C5          2.5387    0.7580   -0.0221 C.3       1 <0>         0.0000
      6 C6          8.2480   -0.6042   -4.4192 C.3       1 <0>         0.0000
      7 C7          2.0356    1.3533   -3.6401 C.3       1 <0>         0.0000
      8 N1          3.8960   -0.2363   -4.0278 N.2       1 <0>         0.0000
      9 N2          5.7207   -1.5984   -4.5849 N.2       1 <0>         0.0000
     10 O1          2.9334    2.6745   -1.8036 O.2       1 <0>         0.0000
     11 O2          7.1631   -1.2616   -6.7295 O.2       1 <0>         0.0000
     12 O3          7.6709   -3.1000   -5.0652 O.2       1 <0>         0.0000
     13 O4          2.0753    0.6253   -1.3746 O.3       1 <0>         0.0000
     14 S1          5.1350    0.7027   -6.1474 S.3       1 <0>         0.0000
     15 S2          7.1490   -1.7436   -5.3227 S.o2      1 <0>         0.0000
     16 H1          3.4048    2.4897   -5.9518 H         1 <0>         0.0000
     17 H2          2.2301   -0.1578    0.4841 H         1 <0>         0.0000
     18 H3          2.0928    1.6338    0.4588 H         1 <0>         0.0000
     19 H4          3.6271    0.8546   -0.0036 H         1 <0>         0.0000
     20 H5          9.2395   -0.6674   -4.8736 H         1 <0>         0.0000
     21 H6          7.8500    0.4089   -4.5094 H         1 <0>         0.0000
     22 H7          8.2768   -0.9201   -3.3752 H         1 <0>         0.0000
     23 H8          1.6315    2.2700   -4.0765 H         1 <0>         0.0000
     24 H9          1.2723    0.5695   -3.6590 H         1 <0>         0.0000
@<TRIPOS>BOND
     1    1    2 2
     2    1   14 1
     3    1   16 1
     4    2    7 1
     5    2    8 1
     6    3    8 2
     7    3    9 1
     8    3   14 1
     9    4    7 1
    10    4   10 2
    11    4   13 1
    12    5   13 1
    13    5   17 1
    14    5   18 1
    15    5   19 1
    16    6   15 1
    17    6   20 1
    18    6   21 1
    19    6   22 1
    20    7   23 1
    21    7   24 1
    22    9   15 1
    23   11   15 2
    24   12   15 2
