@<TRIPOS>MOLECULE
*****
   24    24     0     0     0
SMALL
NO_CHARGES

@<TRIPOS>ATOM
      1 C1          4.9874    0.8263   -2.3823 C.2       1 <0>         0.0000
      2 C2          4.1360    0.1566   -3.2121 C.2       1 <0>         0.0000
      3 C3          5.9309   -1.1326   -3.6232 C.2       1 <0>         0.0000
      4 C4          2.0577    1.4218   -2.4794 C.2       1 <0>         0.0000
      5 C5          1.9885    3.6542   -1.7095 C.3       1 <0>         0.0000
      6 C6          8.8092   -0.9256   -5.2927 C.3       1 <0>         0.0000
      7 C7          2.6778    0.4746   -3.4770 C.3       1 <0>         0.0000
      8 N1          4.6504   -0.9179   -3.8982 N.2       1 <0>         0.0000
      9 N2          6.6339   -2.1315   -4.1905 N.2       1 <0>         0.0000
     10 O1          1.2548    1.1242   -1.6128 O.2       1 <0>         0.0000
     11 O2          8.7113   -3.4743   -4.6064 O.2       1 <0>         0.0000
     12 O3          8.7878   -1.7220   -2.7808 O.2       1 <0>         0.0000
     13 O4          2.4905    2.7016   -2.6594 O.3       1 <0>         0.0000
     14 S1          6.5631    0.0660   -2.3918 S.3       1 <0>         0.0000
     15 S2          8.2441   -2.1732   -4.0894 S.o2      1 <0>         0.0000
     16 H1          4.7896    1.7057   -1.7840 H         1 <0>         0.0000
     17 H2          2.4469    4.6068   -1.9794 H         1 <0>         0.0000
     18 H3          2.2703    3.3685   -0.6924 H         1 <0>         0.0000
     19 H4          0.8984    3.7225   -1.7675 H         1 <0>         0.0000
     20 H5          9.9014   -0.9157   -5.2746 H         1 <0>         0.0000
     21 H6          8.4381   -1.2142   -6.2773 H         1 <0>         0.0000
     22 H7          8.4131    0.0482   -4.9961 H         1 <0>         0.0000
     23 H8          2.5791    0.8994   -4.4837 H         1 <0>         0.0000
     24 H9          2.1063   -0.4550   -3.4461 H         1 <0>         0.0000
@<TRIPOS>BOND
     1    1    2 2
     2    1   14 1
     3    1   16 1
     4    2    7 1
     5    2    8 1
     6    3    8 2
     7    3    9 1
     8    3   14 1
     9    4    7 1
    10    4   10 2
    11    4   13 1
    12    5   13 1
    13    5   17 1
    14    5   18 1
    15    5   19 1
    16    6   15 1
    17    6   20 1
    18    6   21 1
    19    6   22 1
    20    7   23 1
    21    7   24 1
    22    9   15 1
    23   11   15 2
    24   12   15 2
