@<TRIPOS>MOLECULE
*****
   36    38     0     0     0
SMALL
NO_CHARGES

@<TRIPOS>ATOM
      1 C1          1.2491   -1.6959   -0.1625 C.ar      1 <0>         0.0000
      2 C2          0.4313   -4.2206    6.8003 C.ar      1 <0>         0.0000
      3 C3          6.2927    0.0414    4.9286 C.ar      1 <0>         0.0000
      4 C4          2.2262   -2.3362    0.6091 C.ar      1 <0>         0.0000
      5 C5          0.4427   -0.7083    0.4126 C.ar      1 <0>         0.0000
      6 C6          1.2537   -3.2354    7.3591 C.ar      1 <0>         0.0000
      7 C7          0.0349   -4.1194    5.4631 C.ar      1 <0>         0.0000
      8 C8          5.7673   -1.2535    5.0046 C.ar      1 <0>         0.0000
      9 C9          5.4439    1.1259    4.6818 C.ar      1 <0>         0.0000
     10 C10         2.3938   -1.9907    1.9519 C.ar      1 <0>         0.0000
     11 C11         0.6051   -0.3623    1.7575 C.ar      1 <0>         0.0000
     12 C12         1.6799   -2.1571    6.5809 C.ar      1 <0>         0.0000
     13 C13         0.4589   -3.0382    4.6846 C.ar      1 <0>         0.0000
     14 C14         4.3967   -1.4641    4.8316 C.ar      1 <0>         0.0000
     15 C15         4.0733    0.9157    4.5080 C.ar      1 <0>         0.0000
     16 C16         1.5795   -1.0068    2.5312 C.ar      1 <0>         0.0000
     17 C17         1.2908   -2.0519    5.2349 C.ar      1 <0>         0.0000
     18 C18         3.5411   -0.3800    4.5795 C.ar      1 <0>         0.0000
     19 N1          0.8589    0.7529    4.4897 N.2       1 <0>         0.0000
     20 P1          1.7340   -0.5474    4.2835 P.3       1 <0>         0.0000
     21 H1          1.1209   -1.9640   -1.2083 H         1 <0>         0.0000
     22 H2          0.1019   -5.0621    7.4045 H         1 <0>         0.0000
     23 H3          7.3588    0.2043    5.0660 H         1 <0>         0.0000
     24 H4          2.8592   -3.0996    0.1642 H         1 <0>         0.0000
     25 H5         -0.3129   -0.2059   -0.1861 H         1 <0>         0.0000
     26 H6          1.5642   -3.3082    8.3984 H         1 <0>         0.0000
     27 H7         -0.6047   -4.8814    5.0248 H         1 <0>         0.0000
     28 H8          6.4232   -2.0974    5.2036 H         1 <0>         0.0000
     29 H9          5.8489    2.1332    4.6261 H         1 <0>         0.0000
     30 H10         3.1600   -2.4864    2.5409 H         1 <0>         0.0000
     31 H11        -0.0043    0.4040    2.2271 H         1 <0>         0.0000
     32 H12         2.3244   -1.4000    7.0213 H         1 <0>         0.0000
     33 H13         0.1447   -2.9655    3.6474 H         1 <0>         0.0000
     34 H14         3.9954   -2.4710    4.9093 H         1 <0>         0.0000
     35 H15         3.4000    1.7485    4.3197 H         1 <0>         0.0000
     36 H16         0.7424    1.0448    5.4583 H         1 <0>         0.0000
@<TRIPOS>BOND
     1    1    5 ar
     2    1    4 ar
     3    1   21 1
     4    2    7 ar
     5    2    6 ar
     6    2   22 1
     7    3    9 ar
     8    3    8 ar
     9    3   23 1
    10    4   10 ar
    11    4   24 1
    12    5   11 ar
    13    5   25 1
    14    6   12 ar
    15    6   26 1
    16    7   13 ar
    17    7   27 1
    18    8   14 ar
    19    8   28 1
    20    9   15 ar
    21    9   29 1
    22   10   16 ar
    23   10   30 1
    24   11   16 ar
    25   11   31 1
    26   12   17 ar
    27   12   32 1
    28   13   17 ar
    29   13   33 1
    30   14   18 ar
    31   14   34 1
    32   15   18 ar
    33   15   35 1
    34   16   20 1
    35   17   20 1
    36   18   20 1
    37   19   20 2
    38   19   36 1
