@<TRIPOS>MOLECULE
*****
   24    24     0     0     0
SMALL
NO_CHARGES

@<TRIPOS>ATOM
      1 C1          3.5776    1.0821   -4.9129 C.2       1 <0>         0.0000
      2 C2          3.3263    0.5322   -3.6884 C.2       1 <0>         0.0000
      3 C3          4.9817   -0.8773   -4.2521 C.2       1 <0>         0.0000
      4 C4          1.4806   -0.2993   -2.3206 C.2       1 <0>         0.0000
      5 C5          1.8500   -2.2951   -1.0914 C.3       1 <0>         0.0000
      6 C6          6.1624   -2.0626   -1.5236 C.3       1 <0>         0.0000
      7 C7          2.2322    0.9566   -2.7304 C.3       1 <0>         0.0000
      8 N1          4.1082   -0.5355   -3.3153 N.2       1 <0>         0.0000
      9 N2          5.8986   -1.8543   -4.2740 N.2       1 <0>         0.0000
     10 O1          0.5264   -0.7624   -2.9198 O.2       1 <0>         0.0000
     11 O2          7.0172   -3.8558   -3.2665 O.2       1 <0>         0.0000
     12 O3          4.5323   -3.6205   -2.9003 O.2       1 <0>         0.0000
     13 O4          2.0522   -0.8711   -1.2378 O.3       1 <0>         0.0000
     14 S1          4.8866    0.2073   -5.6935 S.3       1 <0>         0.0000
     15 S2          5.8536   -2.9650   -3.0730 S.o2      1 <0>         0.0000
     16 H1          3.0646    1.9010   -5.4006 H         1 <0>         0.0000
     17 H2          2.1432   -2.5302   -0.0665 H         1 <0>         0.0000
     18 H3          2.5084   -2.8083   -1.7988 H         1 <0>         0.0000
     19 H4          0.8036   -2.5576   -1.2623 H         1 <0>         0.0000
     20 H5          6.1722   -2.8063   -0.7233 H         1 <0>         0.0000
     21 H6          7.1352   -1.5738   -1.6064 H         1 <0>         0.0000
     22 H7          5.3588   -1.3386   -1.3873 H         1 <0>         0.0000
     23 H8          2.6669    1.4251   -1.8409 H         1 <0>         0.0000
     24 H9          1.5432    1.6493   -3.2174 H         1 <0>         0.0000
@<TRIPOS>BOND
     1    1    2 2
     2    1   14 1
     3    1   16 1
     4    2    7 1
     5    2    8 1
     6    3    8 2
     7    3    9 1
     8    3   14 1
     9    4    7 1
    10    4   10 2
    11    4   13 1
    12    5   13 1
    13    5   17 1
    14    5   18 1
    15    5   19 1
    16    6   15 1
    17    6   20 1
    18    6   21 1
    19    6   22 1
    20    7   23 1
    21    7   24 1
    22    9   15 1
    23   11   15 2
    24   12   15 2
