@<TRIPOS>MOLECULE
*****
   20    19     0     0     0
SMALL
NO_CHARGES

@<TRIPOS>ATOM
      1 C1         -1.3298    1.2981    0.0985 C.2       1 <0>         0.0000
      2 C2          1.9775    0.3220    0.5556 C.3       1 <0>         0.0000
      3 C3          0.7158   -3.3016   -0.9097 C.3       1 <0>         0.0000
      4 C4         -2.4522    1.6697    1.1373 C.3       1 <0>         0.0000
      5 N1         -1.0077   -0.0365    0.0841 N.am      1 <0>         0.0000
      6 O1         -0.7832    2.1496   -0.5661 O.2       1 <0>         0.0000
      7 O2         -0.2590   -0.8362   -2.4255 O.2       1 <0>         0.0000
      8 O3          1.4884    0.0295   -0.7723 O.3       1 <0>         0.0000
      9 O4          0.2153   -2.1391   -0.1994 O.3       1 <0>         0.0000
     10 P1          0.1153   -0.7441   -1.0061 P.3       1 <0>         0.0000
     11 Cl1        -1.7527    1.4179    2.7898 Cl        1 <0>         0.0000
     12 Cl2        -2.9431    3.3567    0.9369 Cl        1 <0>         0.0000
     13 Cl3        -3.8821    0.5843    0.9236 Cl        1 <0>         0.0000
     14 H1          3.0136    0.6359    0.4307 H         1 <0>         0.0000
     15 H2          1.9298   -0.5663    1.1914 H         1 <0>         0.0000
     16 H3          1.3955    1.1357    0.9940 H         1 <0>         0.0000
     17 H4          0.5674   -4.1479   -0.2393 H         1 <0>         0.0000
     18 H5          1.7802   -3.1791   -1.1268 H         1 <0>         0.0000
     19 H6          0.1586   -3.4437   -1.8376 H         1 <0>         0.0000
     20 H7         -1.5617   -0.6821    0.6388 H         1 <0>         0.0000
@<TRIPOS>BOND
     1    1    4 1
     2    1    5 am
     3    1    6 2
     4    2    8 1
     5    2   14 1
     6    2   15 1
     7    2   16 1
     8    3    9 1
     9    3   17 1
    10    3   18 1
    11    3   19 1
    12    4   11 1
    13    4   12 1
    14    4   13 1
    15    5   10 1
    16    5   20 1
    17    7   10 2
    18    8   10 1
    19    9   10 1
