@<TRIPOS>MOLECULE
*****
   28    29     0     0     0
SMALL
NO_CHARGES

@<TRIPOS>ATOM
      1 C1          2.0412    1.3385   -1.3118 C.2       1 <0>         0.0000
      2 C2          5.4084    1.8428   -2.7548 C.3       1 <0>         0.0000
      3 C3          4.1900    2.0908   -3.6136 C.3       1 <0>         0.0000
      4 C4         -1.0601    1.6124   -0.7649 C.3       1 <0>         0.0000
      5 C5         -0.5829   -0.7752   -1.0298 C.3       1 <0>         0.0000
      6 C6          4.1475    1.0460   -2.5261 C.3       1 <0>         0.0000
      7 C7         -1.4684    0.3603   -1.5917 C.3       1 <0>         0.0000
      8 C8          1.4168    1.7079    0.0410 C.3       1 <0>         0.0000
      9 N1          3.3857    1.3195   -1.3231 N.am      1 <0>         0.0000
     10 N2          0.0284    1.1476    0.1935 N.4       1 <0>         0.0000
     11 O1          1.3254    1.1359   -2.2942 O.2       1 <0>         0.0000
     12 O2          0.0560   -0.2882    0.1915 O.3       1 <0>         0.0000
     13 O3         -1.3542    0.5357   -2.9725 O.3       1 <0>         0.0000
     14 H1          6.2563    1.3172   -3.1810 H         1 <0>         0.0000
     15 H2          5.6667    2.6025   -2.0224 H         1 <0>         0.0000
     16 H3          3.6342    3.0074   -3.4459 H         1 <0>         0.0000
     17 H4          4.1877    1.7360   -4.6385 H         1 <0>         0.0000
     18 H5         -0.6650    2.3965   -1.4041 H         1 <0>         0.0000
     19 H6         -1.8748    1.9924   -0.1485 H         1 <0>         0.0000
     20 H7         -1.1495   -1.6503   -0.7115 H         1 <0>         0.0000
     21 H8          0.1878   -1.0512   -1.7491 H         1 <0>         0.0000
     22 H9          4.1333    0.0005   -2.8207 H         1 <0>         0.0000
     23 H10        -2.5223    0.1471   -1.4083 H         1 <0>         0.0000
     24 H11         1.3262    2.7949    0.1344 H         1 <0>         0.0000
     25 H12         1.9896    1.3239    0.8872 H         1 <0>         0.0000
     26 H13         3.8933    1.3931   -0.4479 H         1 <0>         0.0000
     27 H14        -0.2638    1.3636    1.1521 H         1 <0>         0.0000
     28 H15        -0.4190    0.7230   -3.1790 H         1 <0>         0.0000
@<TRIPOS>BOND
     1    1    8 1
     2    1    9 am
     3    1   11 2
     4    2    3 1
     5    2    6 1
     6    2   14 1
     7    2   15 1
     8    3    6 1
     9    3   16 1
    10    3   17 1
    11    4    7 1
    12    4   10 1
    13    4   18 1
    14    4   19 1
    15    5    7 1
    16    5   12 1
    17    5   20 1
    18    5   21 1
    19    6    9 1
    20    6   22 1
    21    7   13 1
    22    7   23 1
    23    8   10 1
    24    8   24 1
    25    8   25 1
    26    9   26 1
    27   10   12 1
    28   10   27 1
    29   13   28 1
