@<TRIPOS>MOLECULE
*****
   18    18     0     0     0
SMALL
NO_CHARGES

@<TRIPOS>ATOM
      1 C1          0.3069   -0.5484   -0.6982 C.1       1 <0>         0.0000
      2 C2         -1.1158    0.6877    2.4085 C.2       1 <0>         0.0000
      3 C3         -1.6368   -0.2109    4.3194 C.2       1 <0>         0.0000
      4 C4         -1.5103    1.7575    0.1378 C.3       1 <0>         0.0000
      5 C5         -0.5954    0.8899    1.0097 C.3       1 <0>         0.0000
      6 N1          0.8976   -0.6011   -1.7058 N.1       1 <0>         0.0000
      7 N2         -1.0373   -0.4345    3.0546 N.2       1 <0>         0.0000
      8 N3         -1.6672    1.7305    3.1317 N.pl3     1 <0>         0.0000
      9 N4         -2.1870    1.1064    4.2909 N.am      1 <0>         0.0000
     10 N5         -0.4227   -0.4488    0.4233 N.3       1 <0>         0.0000
     11 O1         -1.6909   -0.9591    5.2708 O.2       1 <0>         0.0000
     12 H1         -2.5155    1.3300    0.0843 H         1 <0>         0.0000
     13 H2         -1.5616    2.7824    0.5197 H         1 <0>         0.0000
     14 H3         -1.1053    1.8089   -0.8757 H         1 <0>         0.0000
     15 H4          0.3779    1.3931    1.1084 H         1 <0>         0.0000
     16 H5         -2.3417    2.3233    2.6523 H         1 <0>         0.0000
     17 H6         -2.0566    1.6468    5.1422 H         1 <0>         0.0000
     18 H7         -0.3028   -1.1889    1.1142 H         1 <0>         0.0000
@<TRIPOS>BOND
     1    1    6 3
     2    1   10 1
     3    2    5 1
     4    2    7 2
     5    2    8 1
     6    3    7 1
     7    3    9 am
     8    3   11 2
     9    4    5 1
    10    4   12 1
    11    4   13 1
    12    4   14 1
    13    5   10 1
    14    5   15 1
    15    8    9 1
    16    8   16 1
    17    9   17 1
    18   10   18 1
