@<TRIPOS>MOLECULE
*****
   25    25     0     0     0
SMALL
NO_CHARGES

@<TRIPOS>ATOM
      1 C1          4.1773    0.9025   -5.2474 C.2       1 <0>         0.0000
      2 C2          3.6551    0.4537   -4.0661 C.2       1 <0>         0.0000
      3 C3          5.2274   -1.0845   -4.3211 C.2       1 <0>         0.0000
      4 C4          2.9634    1.6023   -1.9166 C.2       1 <0>         0.0000
      5 C5          4.6744    2.6816   -0.6970 C.3       1 <0>         0.0000
      6 C6          8.3793   -2.5288   -5.3337 C.3       1 <0>         0.0000
      7 C7          2.5403    1.0907   -3.2894 C.3       1 <0>         0.0000
      8 N1          4.2638   -0.6761   -3.5475 N.2       1 <0>         0.0000
      9 N2          5.9688   -2.2528   -4.0802 N.pl3     1 <0>         0.0000
     10 O1          2.2755    1.5279   -0.9181 O.2       1 <0>         0.0000
     11 O2          8.0147   -0.7463   -3.4085 O.2       1 <0>         0.0000
     12 O3          7.9219   -3.2338   -2.8078 O.2       1 <0>         0.0000
     13 O4          4.1803    2.1813   -1.9575 O.3       1 <0>         0.0000
     14 S1          5.4661   -0.1378   -5.7752 S.3       1 <0>         0.0000
     15 S2          7.6666   -2.1281   -3.7312 S.o2      1 <0>         0.0000
     16 H1          3.9086    1.7860   -5.8113 H         1 <0>         0.0000
     17 H2          5.6664    3.0774   -0.9124 H         1 <0>         0.0000
     18 H3          4.7329    1.8709    0.0324 H         1 <0>         0.0000
     19 H4          4.0168    3.4661   -0.3150 H         1 <0>         0.0000
     20 H5          9.4626   -2.5125   -5.2015 H         1 <0>         0.0000
     21 H6          8.0329   -3.5201   -5.6245 H         1 <0>         0.0000
     22 H7          8.0730   -1.7691   -6.0534 H         1 <0>         0.0000
     23 H8          2.1328    1.9393   -3.8483 H         1 <0>         0.0000
     24 H9          1.7278    0.3801   -3.1222 H         1 <0>         0.0000
     25 H10         5.5452   -2.8032   -3.3306 H         1 <0>         0.0000
@<TRIPOS>BOND
     1    1    2 2
     2    1   14 1
     3    1   16 1
     4    2    7 1
     5    2    8 1
     6    3    8 2
     7    3    9 1
     8    3   14 1
     9    4    7 1
    10    4   10 2
    11    4   13 1
    12    5   13 1
    13    5   17 1
    14    5   18 1
    15    5   19 1
    16    6   15 1
    17    6   20 1
    18    6   21 1
    19    6   22 1
    20    7   23 1
    21    7   24 1
    22    9   15 1
    23    9   25 1
    24   11   15 2
    25   12   15 2
