@<TRIPOS>MOLECULE
*****
   25    25     0     0     0
SMALL
NO_CHARGES

@<TRIPOS>ATOM
      1 C1          0.2085    0.7665    0.0213 C.3       1 <0>         0.0000
      2 C2         -1.6235    0.1366   -0.7675 C.3       1 <0>         0.0000
      3 C3         -0.3655    0.7526   -1.4080 C.3       1 <0>         0.0000
      4 C4         -2.8050   -0.6269    1.7297 C.3       1 <0>         0.0000
      5 C5         -0.5669   -0.3317    2.8215 C.3       1 <0>         0.0000
      6 C6         -1.6785    1.6101    1.6892 C.3       1 <0>         0.0000
      7 C7         -1.4546    0.0941    1.6474 C.3       1 <0>         0.0000
      8 N1         -0.7937   -0.2614    0.3966 N.3       1 <0>         0.0000
      9 N2          0.3247   -0.2719   -2.1927 N.3       1 <0>         0.0000
     10 H1          1.2508    0.4511    0.1395 H         1 <0>         0.0000
     11 H2          0.0950    1.7406    0.5155 H         1 <0>         0.0000
     12 H3         -2.4033    0.8815   -0.5599 H         1 <0>         0.0000
     13 H4         -2.0920   -0.6977   -1.3004 H         1 <0>         0.0000
     14 H5         -0.4849    1.7129   -1.9076 H         1 <0>         0.0000
     15 H6         -3.4594   -0.3384    0.8988 H         1 <0>         0.0000
     16 H7         -2.6790   -1.7147    1.6965 H         1 <0>         0.0000
     17 H8         -3.3308   -0.3759    2.6583 H         1 <0>         0.0000
     18 H9          0.4062    0.1717    2.7842 H         1 <0>         0.0000
     19 H10        -0.3741   -1.4106    2.8005 H         1 <0>         0.0000
     20 H11        -1.0343   -0.0913    3.7828 H         1 <0>         0.0000
     21 H12        -0.7271    2.1517    1.6318 H         1 <0>         0.0000
     22 H13        -2.3075    1.9436    0.8564 H         1 <0>         0.0000
     23 H14        -2.1676    1.9126    2.6224 H         1 <0>         0.0000
     24 H15         1.3195   -0.2655   -2.1927 H         1 <0>         0.0000
     25 H16        -0.2118   -0.7961   -2.8465 H         1 <0>         0.0000
@<TRIPOS>BOND
     1    1    3 1
     2    1    8 1
     3    1   10 1
     4    1   11 1
     5    2    3 1
     6    2    8 1
     7    2   12 1
     8    2   13 1
     9    3    9 1
    10    3   14 1
    11    4    7 1
    12    4   15 1
    13    4   16 1
    14    4   17 1
    15    5    7 1
    16    5   18 1
    17    5   19 1
    18    5   20 1
    19    6    7 1
    20    6   21 1
    21    6   22 1
    22    6   23 1
    23    7    8 1
    24    9   24 1
    25    9   25 1
