@<TRIPOS>MOLECULE
*****
   20    20     0     0     0
SMALL
NO_CHARGES

@<TRIPOS>ATOM
      1 C1          1.9714   -0.9163   -0.1160 C.ar      1 <0>         0.0000
      2 C2          0.8564   -0.3995    0.5413 C.ar      1 <0>         0.0000
      3 C3          2.9819   -1.5447    0.6049 C.ar      1 <0>         0.0000
      4 C4          0.7335   -0.5316    1.9325 C.ar      1 <0>         0.0000
      5 C5          2.9086   -1.6650    2.0054 C.ar      1 <0>         0.0000
      6 C6          1.7637   -1.1556    2.6568 C.ar      1 <0>         0.0000
      7 C7         -0.5263    0.0316    2.5187 C.2       1 <0>         0.0000
      8 C8         -2.2111   -0.1765    4.1542 C.3       1 <0>         0.0000
      9 N1          3.9769   -2.2106    2.7166 N.pl3     1 <0>         0.0000
     10 O1         -1.0905    1.0121    2.0652 O.2       1 <0>         0.0000
     11 O2         -1.0035   -0.6870    3.5535 O.3       1 <0>         0.0000
     12 Cl1         1.7332   -1.2759    4.4132 Cl        1 <0>         0.0000
     13 H1          2.0568   -0.8261   -1.1952 H         1 <0>         0.0000
     14 H2          0.0655    0.1074   -0.0001 H         1 <0>         0.0000
     15 H3          3.8591   -1.9343    0.0928 H         1 <0>         0.0000
     16 H4         -2.4340   -0.8578    4.9750 H         1 <0>         0.0000
     17 H5         -3.0248   -0.1683    3.4253 H         1 <0>         0.0000
     18 H6         -2.0506    0.8381    4.5259 H         1 <0>         0.0000
     19 H7          4.5468   -2.8571    2.1849 H         1 <0>         0.0000
     20 H8          3.7497   -2.5609    3.6396 H         1 <0>         0.0000
@<TRIPOS>BOND
     1    1    2 ar
     2    1    3 ar
     3    1   13 1
     4    2    4 ar
     5    2   14 1
     6    3    5 ar
     7    3   15 1
     8    4    6 ar
     9    4    7 1
    10    5    6 ar
    11    5    9 1
    12    6   12 1
    13    7   10 2
    14    7   11 1
    15    8   11 1
    16    8   16 1
    17    8   17 1
    18    8   18 1
    19    9   19 1
    20    9   20 1
