@<TRIPOS>MOLECULE
*****
   20    20     0     0     0
SMALL
NO_CHARGES

@<TRIPOS>ATOM
      1 C1          2.2372   -0.7527    0.1165 C.ar      1 <0>         0.0000
      2 C2          1.0462   -1.1728    2.1924 C.ar      1 <0>         0.0000
      3 C3          1.1101   -0.5606    0.9304 C.ar      1 <0>         0.0000
      4 C4          3.2799   -1.5487    0.5720 C.ar      1 <0>         0.0000
      5 C5          2.0990   -1.9616    2.6234 C.ar      1 <0>         0.0000
      6 C6          3.2278   -2.1617    1.8233 C.ar      1 <0>         0.0000
      7 C7         -0.0579    0.2877    0.5065 C.2       1 <0>         0.0000
      8 C8          0.8369    2.3481   -0.6495 C.3       1 <0>         0.0000
      9 C9          0.0126    1.0541   -0.8034 C.3       1 <0>         0.0000
     10 O1         -1.0367    0.3861    1.2363 O.2       1 <0>         0.0000
     11 F1          4.3699   -1.7455   -0.1954 F         1 <0>         0.0000
     12 F2          2.0616   -2.5591    3.8291 F         1 <0>         0.0000
     13 F3          4.2392   -2.9273    2.2501 F         1 <0>         0.0000
     14 H1          2.3299   -0.3022   -0.8647 H         1 <0>         0.0000
     15 H2          0.1743   -1.0251    2.8210 H         1 <0>         0.0000
     16 H3          0.4009    2.9901    0.1215 H         1 <0>         0.0000
     17 H4          1.8742    2.1414   -0.3698 H         1 <0>         0.0000
     18 H5          0.8448    2.9047   -1.5914 H         1 <0>         0.0000
     19 H6          0.4322    0.4322   -1.6007 H         1 <0>         0.0000
     20 H7         -1.0155    1.3004   -1.0786 H         1 <0>         0.0000
@<TRIPOS>BOND
     1    1    3 ar
     2    1    4 ar
     3    1   14 1
     4    2    3 ar
     5    2    5 ar
     6    2   15 1
     7    3    7 1
     8    4    6 ar
     9    4   11 1
    10    5    6 ar
    11    5   12 1
    12    6   13 1
    13    7    9 1
    14    7   10 2
    15    8    9 1
    16    8   16 1
    17    8   17 1
    18    8   18 1
    19    9   19 1
    20    9   20 1
