@<TRIPOS>MOLECULE
*****
   28    29     0     0     0
SMALL
NO_CHARGES

@<TRIPOS>ATOM
      1 C1          1.6379    0.2939   -3.1582 C.2       1 <0>         0.0000
      2 C2          1.3139   -0.3897   -4.3831 C.2       1 <0>         0.0000
      3 C3          0.7469   -0.1421   -2.2186 C.2       1 <0>         0.0000
      4 C4          0.2439   -1.1957   -4.1099 C.2       1 <0>         0.0000
      5 C5          0.6106   -0.6167    1.4994 C.3       1 <0>         0.0000
      6 C6         -0.7993   -0.0744    1.7088 C.3       1 <0>         0.0000
      7 C7         -0.8693    0.7239   -0.5060 C.3       1 <0>         0.0000
      8 C8          0.5494    0.1978   -0.7808 C.3       1 <0>         0.0000
      9 C9         -0.4198   -3.6187   -4.4184 C.3       1 <0>         0.0000
     10 C10        -0.5499   -2.1679   -4.9172 C.3       1 <0>         0.0000
     11 N1          0.7703   -0.9746    0.0853 N.3       1 <0>         0.0000
     12 O1         -0.1122   -1.0529   -2.7903 O.3       1 <0>         0.0000
     13 O2         -1.0407    1.0563    0.8700 O.3       1 <0>         0.0000
     14 H1          2.4277    1.0163   -2.9966 H         1 <0>         0.0000
     15 H2          1.8102   -0.2950   -5.3402 H         1 <0>         0.0000
     16 H3          1.3360    0.1482    1.8305 H         1 <0>         0.0000
     17 H4          0.7544   -1.5132    2.1128 H         1 <0>         0.0000
     18 H5         -1.5338   -0.8646    1.4913 H         1 <0>         0.0000
     19 H6         -0.9386    0.2706    2.7366 H         1 <0>         0.0000
     20 H7         -1.0500    1.6407   -1.0720 H         1 <0>         0.0000
     21 H8         -1.6001   -0.0390   -0.8087 H         1 <0>         0.0000
     22 H9          1.2539    1.0166   -0.5494 H         1 <0>         0.0000
     23 H10         0.6208   -3.9551   -4.4679 H         1 <0>         0.0000
     24 H11        -1.0289   -4.2926   -5.0299 H         1 <0>         0.0000
     25 H12        -0.7529   -3.7028   -3.3801 H         1 <0>         0.0000
     26 H13        -1.6068   -1.8724   -4.9059 H         1 <0>         0.0000
     27 H14        -0.2121   -2.0933   -5.9556 H         1 <0>         0.0000
     28 H15         1.7037   -1.3430   -0.0844 H         1 <0>         0.0000
@<TRIPOS>BOND
     1    1    2 1
     2    1    3 2
     3    1   14 1
     4    2    4 2
     5    2   15 1
     6    3    8 1
     7    3   12 1
     8    4   10 1
     9    4   12 1
    10    5    6 1
    11    5   11 1
    12    5   16 1
    13    5   17 1
    14    6   13 1
    15    6   18 1
    16    6   19 1
    17    7    8 1
    18    7   13 1
    19    7   20 1
    20    7   21 1
    21    8   11 1
    22    8   22 1
    23    9   10 1
    24    9   23 1
    25    9   24 1
    26    9   25 1
    27   10   26 1
    28   10   27 1
    29   11   28 1
