@<TRIPOS>MOLECULE
*****
   25    26     0     0     0
SMALL
NO_CHARGES

@<TRIPOS>ATOM
      1 C1         -5.4503   -0.5628   -3.2460 C.ar      1 <0>         0.0000
      2 C2         -4.5881   -1.5781   -2.8071 C.ar      1 <0>         0.0000
      3 C3         -3.6131    1.0392   -3.0468 C.ar      1 <0>         0.0000
      4 C4         -2.7561    0.0224   -2.6071 C.ar      1 <0>         0.0000
      5 C5         -4.9358    0.7199   -3.3537 C.ar      1 <0>         0.0000
      6 C6         -3.2719   -1.2829   -2.4970 C.ar      1 <0>         0.0000
      7 C7          1.8778    3.1239   -1.1143 C.3       1 <0>         0.0000
      8 C8          1.0716    2.5198    0.0299 C.3       1 <0>         0.0000
      9 C9          0.5495    1.4207   -1.9166 C.3       1 <0>         0.0000
     10 C10        -0.9033    1.5033   -2.3688 C.3       1 <0>         0.0000
     11 O1          1.1695    2.6553   -2.2698 O.3       1 <0>         0.0000
     12 O2          0.6805    1.2526   -0.5115 O.3       1 <0>         0.0000
     13 O3         -1.4503    0.1900   -2.2745 O.3       1 <0>         0.0000
     14 F1         -5.7467    1.7254   -3.7774 F         1 <0>         0.0000
     15 F2         -2.4452   -2.2686   -2.0759 F         1 <0>         0.0000
     16 H1         -6.4866   -0.7623   -3.4961 H         1 <0>         0.0000
     17 H2         -4.9330   -2.6021   -2.7036 H         1 <0>         0.0000
     18 H3         -3.2818    2.0643   -3.1574 H         1 <0>         0.0000
     19 H4          1.8785    4.2159   -1.1352 H         1 <0>         0.0000
     20 H5          2.9096    2.7500   -1.1213 H         1 <0>         0.0000
     21 H6          1.6488    2.3365    0.9384 H         1 <0>         0.0000
     22 H7          0.1919    3.1325    0.2701 H         1 <0>         0.0000
     23 H8          1.0504    0.5705   -2.3958 H         1 <0>         0.0000
     24 H9         -0.9360    1.8627   -3.4046 H         1 <0>         0.0000
     25 H10        -1.4493    2.2023   -1.7238 H         1 <0>         0.0000
@<TRIPOS>BOND
     1    1    2 ar
     2    1    5 ar
     3    1   16 1
     4    2    6 ar
     5    2   17 1
     6    3    4 ar
     7    3    5 ar
     8    3   18 1
     9    4    6 ar
    10    4   13 1
    11    5   14 1
    12    6   15 1
    13    7    8 1
    14    7   11 1
    15    7   19 1
    16    7   20 1
    17    8   12 1
    18    8   21 1
    19    8   22 1
    20    9   10 1
    21    9   12 1
    22    9   11 1
    23    9   23 1
    24   10   13 1
    25   10   24 1
    26   10   25 1
