@<TRIPOS>MOLECULE
*****
   25    26     0     0     0
SMALL
NO_CHARGES

@<TRIPOS>ATOM
      1 C1          0.8686   -0.5650    2.1729 C.ar      1 <0>         0.0000
      2 C2         -0.0195   -1.5514    1.7450 C.ar      1 <0>         0.0000
      3 C3          2.1031   -0.9137    2.7319 C.ar      1 <0>         0.0000
      4 C4          0.3317   -2.8994    1.8787 C.ar      1 <0>         0.0000
      5 C5          7.6240   -3.1830    4.5584 C.2       1 <0>         0.0000
      6 C6          5.6922   -3.1632    5.6519 C.2       1 <0>         0.0000
      7 C7          6.9680   -3.6958    5.7147 C.2       1 <0>         0.0000
      8 C8          2.4641   -2.2623    2.8705 C.ar      1 <0>         0.0000
      9 C9          1.5578   -3.2509    2.4366 C.ar      1 <0>         0.0000
     10 C10         4.5190   -1.7181    3.9673 C.3       1 <0>         0.0000
     11 N1          6.8184   -2.4076    3.8337 N.2       1 <0>         0.0000
     12 N2          5.6502   -2.3879    4.5157 N.pl3     1 <0>         0.0000
     13 N3          7.5435   -4.4864    6.7316 N.pl3     1 <0>         0.0000
     14 O1          3.6441   -2.6982    3.3961 O.3       1 <0>         0.0000
     15 Cl1         1.9830   -4.9403    2.6051 Cl        1 <0>         0.0000
     16 H1          0.6097    0.4854    2.0731 H         1 <0>         0.0000
     17 H2         -0.9776   -1.2834    1.3096 H         1 <0>         0.0000
     18 H3          2.7803   -0.1285    3.0481 H         1 <0>         0.0000
     19 H4         -0.3438   -3.6844    1.5527 H         1 <0>         0.0000
     20 H5          8.6473   -3.3462    4.2408 H         1 <0>         0.0000
     21 H6          4.8300   -3.2783    6.2942 H         1 <0>         0.0000
     22 H7          3.9842   -1.1723    4.7536 H         1 <0>         0.0000
     23 H8          4.8886   -1.0297    3.2032 H         1 <0>         0.0000
     24 H9          8.2361   -5.1305    6.3624 H         1 <0>         0.0000
     25 H10         6.8481   -5.0155    7.2481 H         1 <0>         0.0000
@<TRIPOS>BOND
     1    1    2 ar
     2    1    3 ar
     3    1   16 1
     4    2    4 ar
     5    2   17 1
     6    3    8 ar
     7    3   18 1
     8    4    9 ar
     9    4   19 1
    10    5    7 1
    11    5   11 2
    12    5   20 1
    13    6    7 2
    14    6   12 1
    15    6   21 1
    16    7   13 1
    17    8    9 ar
    18    8   14 1
    19    9   15 1
    20   10   12 1
    21   10   14 1
    22   10   22 1
    23   10   23 1
    24   11   12 1
    25   13   24 1
    26   13   25 1
