@<TRIPOS>MOLECULE
*****
   18    18     0     0     0
SMALL
NO_CHARGES

@<TRIPOS>ATOM
      1 C1          1.6998   -0.1935    4.3008 C.2       1 <0>         0.0000
      2 C2          1.7883   -0.6640    2.9522 C.2       1 <0>         0.0000
      3 C3          1.2545    1.1010    4.3726 C.2       1 <0>         0.0000
      4 C4          1.4138    0.2747    2.0223 C.2       1 <0>         0.0000
      5 C5         -0.0384    0.0170   -0.0138 C.2       1 <0>         0.0000
      6 C6          1.3745    0.1094    0.5256 C.3       1 <0>         0.0000
      7 N1         -0.7547    1.0195   -0.3897 N.2       1 <0>         0.0000
      8 N2         -0.6281   -1.2472   -0.0143 N.pl3     1 <0>         0.0000
      9 O1         -0.0570    2.2468   -0.1740 O.3       1 <0>         0.0000
     10 S1          0.9348    1.7603    2.8005 S.3       1 <0>         0.0000
     11 H1          1.9553   -0.7885    5.1718 H         1 <0>         0.0000
     12 H2          2.1165   -1.6622    2.6776 H         1 <0>         0.0000
     13 H3          1.0944    1.7056    5.2566 H         1 <0>         0.0000
     14 H4          1.8805    0.9397    0.0283 H         1 <0>         0.0000
     15 H5          1.9130   -0.8106    0.2747 H         1 <0>         0.0000
     16 H6         -0.0216   -1.9890   -0.3477 H         1 <0>         0.0000
     17 H7         -1.5321   -1.2571   -0.4782 H         1 <0>         0.0000
     18 H8         -0.7214    2.9034   -0.4348 H         1 <0>         0.0000
@<TRIPOS>BOND
     1    1    2 1
     2    1    3 2
     3    1   11 1
     4    2    4 2
     5    2   12 1
     6    3   10 1
     7    3   13 1
     8    4    6 1
     9    4   10 1
    10    5    6 1
    11    5    7 2
    12    5    8 1
    13    6   14 1
    14    6   15 1
    15    7    9 1
    16    8   16 1
    17    8   17 1
    18    9   18 1
