@<TRIPOS>MOLECULE
*****
   21    21     0     0     0
SMALL
NO_CHARGES

@<TRIPOS>ATOM
      1 C1          1.3803   -0.7440    1.7894 C.2       1 <0>         0.0000
      2 C2         -1.5945    0.4725   -0.1306 C.3       1 <0>         0.0000
      3 C3         -0.8019    1.0165   -1.3189 C.3       1 <0>         0.0000
      4 C4          1.1471   -0.0958   -0.5995 C.3       1 <0>         0.0000
      5 C5          0.4043   -0.6662    0.6326 C.3       1 <0>         0.0000
      6 C6          3.1106   -2.0097    2.7831 C.3       1 <0>         0.0000
      7 N1         -0.7498    0.1437    1.0238 N.3       1 <0>         0.0000
      8 O1          1.5435    0.1402    2.6097 O.2       1 <0>         0.0000
      9 O2          0.2463    0.1120   -1.6800 O.3       1 <0>         0.0000
     10 O3          2.0975   -1.8876    1.7598 O.3       1 <0>         0.0000
     11 H1         -2.3541    1.1948    0.1868 H         1 <0>         0.0000
     12 H2         -2.1174   -0.4402   -0.4414 H         1 <0>         0.0000
     13 H3         -1.4309    1.1228   -2.2075 H         1 <0>         0.0000
     14 H4         -0.3708    2.0014   -1.0733 H         1 <0>         0.0000
     15 H5          1.6326    0.8549   -0.3243 H         1 <0>         0.0000
     16 H6          1.9080   -0.7942   -0.9573 H         1 <0>         0.0000
     17 H7          0.0620   -1.6754    0.3816 H         1 <0>         0.0000
     18 H8          3.5895   -2.9717    2.6030 H         1 <0>         0.0000
     19 H9          2.6512   -1.9855    3.7736 H         1 <0>         0.0000
     20 H10         3.8340   -1.1953    2.7010 H         1 <0>         0.0000
     21 H11        -0.4123    0.9892    1.4824 H         1 <0>         0.0000
@<TRIPOS>BOND
     1    1    5 1
     2    1    8 2
     3    1   10 1
     4    2    3 1
     5    2    7 1
     6    2   11 1
     7    2   12 1
     8    3    9 1
     9    3   13 1
    10    3   14 1
    11    4    5 1
    12    4    9 1
    13    4   15 1
    14    4   16 1
    15    5    7 1
    16    5   17 1
    17    6   10 1
    18    6   18 1
    19    6   19 1
    20    6   20 1
    21    7   21 1
