@<TRIPOS>MOLECULE
*****
   24    25     0     0     0
SMALL
NO_CHARGES

@<TRIPOS>ATOM
      1 C1          0.7295    1.5117    1.3429 C.ar      1 <0>         0.0000
      2 C2         -0.1975    0.5692    0.9166 C.ar      1 <0>         0.0000
      3 C3          0.6139    2.1251    2.6096 C.ar      1 <0>         0.0000
      4 C4         -1.2940    0.1820    1.7262 C.ar      1 <0>         0.0000
      5 C5         -0.4566    1.7429    3.3920 C.ar      1 <0>         0.0000
      6 C6         -1.3961    0.7951    2.9736 C.ar      1 <0>         0.0000
      7 C7         -2.2377   -0.8343    1.1905 C.2       1 <0>         0.0000
      8 C8         -1.9747    1.5014    5.0318 C.3       1 <0>         0.0000
      9 C9         -5.2310   -2.2626    2.7007 C.3       1 <0>         0.0000
     10 C10        -4.1994   -2.1040    1.5989 C.3       1 <0>         0.0000
     11 O1         -2.1231   -1.3545    0.0923 O.2       1 <0>         0.0000
     12 O2         -0.7773    2.1956    4.6534 O.3       1 <0>         0.0000
     13 O3         -2.3377    0.6200    3.9553 O.3       1 <0>         0.0000
     14 O4         -3.2359   -1.1200    2.0519 O.3       1 <0>         0.0000
     15 H1          1.5575    1.7843    0.6955 H         1 <0>         0.0000
     16 H2         -0.1079    0.0985   -0.0566 H         1 <0>         0.0000
     17 H3          1.3289    2.8633    2.9590 H         1 <0>         0.0000
     18 H4         -1.7841    0.9085    5.9329 H         1 <0>         0.0000
     19 H5         -2.7817    2.2248    5.1917 H         1 <0>         0.0000
     20 H6         -4.7619   -2.6055    3.6275 H         1 <0>         0.0000
     21 H7         -5.7368   -1.3134    2.9003 H         1 <0>         0.0000
     22 H8         -5.9825   -2.9995    2.3990 H         1 <0>         0.0000
     23 H9         -4.6451   -1.7541    0.6634 H         1 <0>         0.0000
     24 H10        -3.6727   -3.0395    1.3894 H         1 <0>         0.0000
@<TRIPOS>BOND
     1    1    2 ar
     2    1    3 ar
     3    1   15 1
     4    2    4 ar
     5    2   16 1
     6    3    5 ar
     7    3   17 1
     8    4    6 ar
     9    4    7 1
    10    5    6 ar
    11    5   12 1
    12    6   13 1
    13    7   11 2
    14    7   14 1
    15    8   12 1
    16    8   13 1
    17    8   18 1
    18    8   19 1
    19    9   10 1
    20    9   20 1
    21    9   21 1
    22    9   22 1
    23   10   14 1
    24   10   23 1
    25   10   24 1
