@<TRIPOS>MOLECULE
*****
   18    18     0     0     0
SMALL
NO_CHARGES

@<TRIPOS>ATOM
      1 C1          1.5189    0.3974    4.5007 C.2       1 <0>         0.0000
      2 C2          1.5760   -0.3731    3.2963 C.2       1 <0>         0.0000
      3 C3          1.3608    1.7386    4.2593 C.2       1 <0>         0.0000
      4 C4          1.4595    0.3873    2.1557 C.2       1 <0>         0.0000
      5 C5          0.0932   -0.5455    0.2200 C.2       1 <0>         0.0000
      6 C6          1.4501   -0.0889    0.7313 C.3       1 <0>         0.0000
      7 N1         -0.0705   -1.2279   -0.8616 N.2       1 <0>         0.0000
      8 N2         -1.0390   -0.1337    0.9147 N.pl3     1 <0>         0.0000
      9 O1          1.1831   -1.4279   -1.5224 O.3       1 <0>         0.0000
     10 S1          1.2754    2.0716    2.5608 S.3       1 <0>         0.0000
     11 H1          1.5995   -0.0234    5.4978 H         1 <0>         0.0000
     12 H2          1.7054   -1.4513    3.2698 H         1 <0>         0.0000
     13 H3          1.2953    2.5469    4.9765 H         1 <0>         0.0000
     14 H4          1.8155    0.6883    0.0513 H         1 <0>         0.0000
     15 H5          2.1440   -0.9254    0.6161 H         1 <0>         0.0000
     16 H6         -0.9319   -0.1360    1.9237 H         1 <0>         0.0000
     17 H7         -1.8847   -0.6016    0.6034 H         1 <0>         0.0000
     18 H8          0.9173   -1.9604   -2.2880 H         1 <0>         0.0000
@<TRIPOS>BOND
     1    1    2 1
     2    1    3 2
     3    1   11 1
     4    2    4 2
     5    2   12 1
     6    3   10 1
     7    3   13 1
     8    4    6 1
     9    4   10 1
    10    5    6 1
    11    5    7 2
    12    5    8 1
    13    6   14 1
    14    6   15 1
    15    7    9 1
    16    8   16 1
    17    8   17 1
    18    9   18 1
