@<TRIPOS>MOLECULE
*****
   22    22     0     0     0
SMALL
NO_CHARGES

@<TRIPOS>ATOM
      1 C1         -3.8532   -1.3333    2.6084 C.ar      1 <0>         0.0000
      2 C2         -4.0022    1.0572    2.4527 C.ar      1 <0>         0.0000
      3 C3         -2.4601   -1.2582    2.5429 C.ar      1 <0>         0.0000
      4 C4         -2.6099    1.1470    2.3863 C.ar      1 <0>         0.0000
      5 C5         -4.6511   -0.1808    2.5653 C.ar      1 <0>         0.0000
      6 C6         -1.8254   -0.0141    2.4237 C.ar      1 <0>         0.0000
      7 C7          0.2323    0.0409    1.3272 C.2       1 <0>         0.0000
      8 C8         -6.1567   -0.2675    2.6757 C.3       1 <0>         0.0000
      9 C9          0.5781   -0.0912   -1.0077 C.3       1 <0>         0.0000
     10 N1         -0.4080    0.0740    2.4196 N.2       1 <0>         0.0000
     11 O1         -0.3351   -0.0763    0.0982 O.3       1 <0>         0.0000
     12 H1         -4.3270   -2.3094    2.6946 H         1 <0>         0.0000
     13 H2         -4.5936    1.9702    2.4159 H         1 <0>         0.0000
     14 H3         -1.8564   -2.1611    2.5828 H         1 <0>         0.0000
     15 H4         -2.1227    2.1150    2.3045 H         1 <0>         0.0000
     16 H5          1.3240    0.1090    1.3334 H         1 <0>         0.0000
     17 H6         -6.4814   -0.2199    3.7227 H         1 <0>         0.0000
     18 H7         -6.6446    0.5561    2.1450 H         1 <0>         0.0000
     19 H8         -6.5348   -1.2065    2.2592 H         1 <0>         0.0000
     20 H9         -0.0345   -0.1938   -1.9036 H         1 <0>         0.0000
     21 H10         1.2664   -0.9410   -0.9384 H         1 <0>         0.0000
     22 H11         1.1469    0.8439   -1.0609 H         1 <0>         0.0000
@<TRIPOS>BOND
     1    1    3 ar
     2    1    5 ar
     3    1   12 1
     4    2    4 ar
     5    2    5 ar
     6    2   13 1
     7    3    6 ar
     8    3   14 1
     9    4    6 ar
    10    4   15 1
    11    5    8 1
    12    6   10 1
    13    7   10 2
    14    7   11 1
    15    7   16 1
    16    8   17 1
    17    8   18 1
    18    8   19 1
    19    9   11 1
    20    9   20 1
    21    9   21 1
    22    9   22 1
