@<TRIPOS>MOLECULE
*****
   22    23     0     0     0
SMALL
NO_CHARGES

@<TRIPOS>ATOM
      1 C1         -0.0701   -1.0275    0.3584 C.ar      1 <0>         0.0000
      2 C2          0.4661   -2.0705   -0.3801 C.ar      1 <0>         0.0000
      3 C3         -0.6947   -1.3008    1.5809 C.ar      1 <0>         0.0000
      4 C4          0.2772   -6.0460    0.9371 C.2       1 <0>         0.0000
      5 C5          0.3826   -3.3869    0.0947 C.ar      1 <0>         0.0000
      6 C6         -0.2477   -3.6990    1.3374 C.ar      1 <0>         0.0000
      7 C7         -0.2816   -5.1011    1.7418 C.2       1 <0>         0.0000
      8 C8         -0.7855   -2.6028    2.0658 C.ar      1 <0>         0.0000
      9 C9          0.9853   -4.4298   -0.7669 C.2       1 <0>         0.0000
     10 C10        -0.9251   -6.7568    3.3358 C.3       1 <0>         0.0000
     11 N1          0.8815   -5.7094   -0.2641 N.am      1 <0>         0.0000
     12 O1          1.5409   -4.2121   -1.8476 O.2       1 <0>         0.0000
     13 O2         -0.8847   -5.3962    2.9307 O.3       1 <0>         0.0000
     14 Cl1        -1.6027   -2.7591    3.6157 Cl        1 <0>         0.0000
     15 H1         -0.0114   -0.0036    0.0006 H         1 <0>         0.0000
     16 H2          0.9593   -1.9084   -1.3325 H         1 <0>         0.0000
     17 H3         -1.1195   -0.4948    2.1708 H         1 <0>         0.0000
     18 H4          0.2848   -7.0992    1.1796 H         1 <0>         0.0000
     19 H5         -1.4426   -6.7650    4.2956 H         1 <0>         0.0000
     20 H6          0.0861   -7.1659    3.4632 H         1 <0>         0.0000
     21 H7         -1.4819   -7.3716    2.6160 H         1 <0>         0.0000
     22 H8          1.2899   -6.4348   -0.8426 H         1 <0>         0.0000
@<TRIPOS>BOND
     1    1    2 ar
     2    1    3 ar
     3    1   15 1
     4    2    5 ar
     5    2   16 1
     6    3    8 ar
     7    3   17 1
     8    4    7 2
     9    4   11 1
    10    4   18 1
    11    5    6 ar
    12    5    9 1
    13    6    8 ar
    14    6    7 1
    15    7   13 1
    16    8   14 1
    17    9   11 am
    18    9   12 2
    19   10   13 1
    20   10   19 1
    21   10   20 1
    22   10   21 1
    23   11   22 1
