@<TRIPOS>MOLECULE
*****
   18    18     0     0     0
SMALL
NO_CHARGES

@<TRIPOS>ATOM
      1 C1          0.9718    0.7596    4.2489 C.2       1 <0>         0.0000
      2 C2          0.5321    0.8729    2.8916 C.2       1 <0>         0.0000
      3 C3          2.2543    0.2848    4.3538 C.2       1 <0>         0.0000
      4 C4          1.4849    0.4816    1.9833 C.2       1 <0>         0.0000
      5 C5          0.0672   -0.0122   -0.0202 C.2       1 <0>         0.0000
      6 C6          1.4066    0.4828    0.4748 C.3       1 <0>         0.0000
      7 N1         -0.2242   -1.2368   -0.2887 N.2       1 <0>         0.0000
      8 N2         -0.9583    0.9373   -0.1030 N.pl3     1 <0>         0.0000
      9 O1          0.8722   -2.0982   -0.0020 O.3       1 <0>         0.0000
     10 S1          2.9357   -0.0389    2.7926 S.3       1 <0>         0.0000
     11 H1          0.3610    1.0166    5.1085 H         1 <0>         0.0000
     12 H2         -0.4520    1.2163    2.5908 H         1 <0>         0.0000
     13 H3          2.8325    0.0987    5.2499 H         1 <0>         0.0000
     14 H4          1.5748    1.4993    0.0956 H         1 <0>         0.0000
     15 H5          2.1853   -0.1567    0.0558 H         1 <0>         0.0000
     16 H6         -0.6696    1.8119   -0.5306 H         1 <0>         0.0000
     17 H7         -1.7935    0.5621   -0.5456 H         1 <0>         0.0000
     18 H8          0.5127   -2.9659   -0.2440 H         1 <0>         0.0000
@<TRIPOS>BOND
     1    1    2 1
     2    1    3 2
     3    1   11 1
     4    2    4 2
     5    2   12 1
     6    3   10 1
     7    3   13 1
     8    4    6 1
     9    4   10 1
    10    5    6 1
    11    5    7 2
    12    5    8 1
    13    6   14 1
    14    6   15 1
    15    7    9 1
    16    8   16 1
    17    8   17 1
    18    9   18 1
