@<TRIPOS>MOLECULE
*****
   20    21     0     0     0
SMALL
NO_CHARGES

@<TRIPOS>ATOM
      1 C1         -0.0097    1.0184    3.7155 C.ar      1 <0>         0.0000
      2 C2          0.2260    2.8816    2.2522 C.ar      1 <0>         0.0000
      3 C3          0.1361    2.3957    3.5578 C.ar      1 <0>         0.0000
      4 C4          0.0311    0.7412    1.4462 C.ar      1 <0>         0.0000
      5 C5         -0.1799   -1.6110    0.3669 C.2       1 <0>         0.0000
      6 C6         -0.6589    0.5082   -1.0302 C.3       1 <0>         0.0000
      7 C7          0.8149    0.3546   -0.9824 C.3       1 <0>         0.0000
      8 C8         -0.0203   -0.1287    0.2262 C.3       1 <0>         0.0000
      9 N1         -0.0619    0.1951    2.6651 N.ar      1 <0>         0.0000
     10 N2          0.1740    2.0612    1.2040 N.ar      1 <0>         0.0000
     11 O1         -0.2824   -2.2615    1.3839 O.2       1 <0>         0.0000
     12 O2         -0.2023   -2.2234   -0.8640 O.3       1 <0>         0.0000
     13 Br1         0.2105    3.5715    5.0579 Br        1 <0>         0.0000
     14 H1         -0.0861    0.5669    4.7031 H         1 <0>         0.0000
     15 H2          0.3412    3.9451    2.0514 H         1 <0>         0.0000
     16 H3         -1.0695    1.4982   -0.8693 H         1 <0>         0.0000
     17 H4         -1.2311   -0.1618   -1.6603 H         1 <0>         0.0000
     18 H5          1.2761   -0.4230   -1.5790 H         1 <0>         0.0000
     19 H6          1.4094    1.2400   -0.7889 H         1 <0>         0.0000
     20 H7         -0.3084   -3.1737   -0.6711 H         1 <0>         0.0000
@<TRIPOS>BOND
     1    1    3 ar
     2    1    9 ar
     3    1   14 1
     4    2    3 ar
     5    2   10 ar
     6    2   15 1
     7    3   13 1
     8    4    8 1
     9    4    9 ar
    10    4   10 ar
    11    5    8 1
    12    5   11 2
    13    5   12 1
    14    6    7 1
    15    6    8 1
    16    6   16 1
    17    6   17 1
    18    7    8 1
    19    7   18 1
    20    7   19 1
    21   12   20 1
