@<TRIPOS>MOLECULE
*****
   18    18     0     0     0
SMALL
NO_CHARGES

@<TRIPOS>ATOM
      1 C1          1.4288    0.7233    1.6442 C.2       1 <0>         0.0000
      2 C2          0.1119    0.5036    1.1358 C.2       1 <0>         0.0000
      3 C3          1.5346    0.0270    2.8341 C.2       1 <0>         0.0000
      4 C4         -0.5509   -0.3129    2.0358 C.2       1 <0>         0.0000
      5 C5         -1.9411   -0.8765    2.0122 C.3       1 <0>         0.0000
      6 C6         -1.9535   -2.3650    1.6362 C.3       1 <0>         0.0000
      7 N1          0.3227   -0.5862    3.0698 N.pl3     1 <0>         0.0000
      8 N2         -2.7691   -0.1534    1.0426 N.3       1 <0>         0.0000
      9 F1         -1.2452   -2.6226    0.5034 F         1 <0>         0.0000
     10 F2         -1.3667   -3.0860    2.6660 F         1 <0>         0.0000
     11 H1          2.2081    1.3225    1.1912 H         1 <0>         0.0000
     12 H2         -0.3025    0.8755    0.2085 H         1 <0>         0.0000
     13 H3          2.3580   -0.0753    3.5277 H         1 <0>         0.0000
     14 H4         -2.3484   -0.8494    3.0390 H         1 <0>         0.0000
     15 H5         -2.9658   -2.7613    1.4998 H         1 <0>         0.0000
     16 H6          0.1379   -1.2450    3.8136 H         1 <0>         0.0000
     17 H7         -2.6751    0.8467    1.2052 H         1 <0>         0.0000
     18 H8         -3.7515   -0.3879    1.1725 H         1 <0>         0.0000
@<TRIPOS>BOND
     1    1    2 1
     2    1    3 2
     3    1   11 1
     4    2    4 2
     5    2   12 1
     6    3    7 1
     7    3   13 1
     8    4    5 1
     9    4    7 1
    10    5    6 1
    11    5    8 1
    12    5   14 1
    13    6    9 1
    14    6   10 1
    15    6   15 1
    16    7   16 1
    17    8   17 1
    18    8   18 1
