@<TRIPOS>MOLECULE
*****
   19    20     0     0     0
SMALL
NO_CHARGES

@<TRIPOS>ATOM
      1 C1          2.3783   -2.5119    5.0720 C.1       1 <0>         0.0000
      2 C2          1.5098   -0.7691    1.2607 C.ar      1 <0>         0.0000
      3 C3          1.8063   -1.3407    2.4981 C.ar      1 <0>         0.0000
      4 C4         -0.6603   -0.2084    2.1433 C.ar      1 <0>         0.0000
      5 C5          0.2527   -0.1938    1.0849 C.ar      1 <0>         0.0000
      6 C6          0.8351   -1.3140    3.5081 C.ar      1 <0>         0.0000
      7 C7          0.4332   -1.2426    6.0858 C.3       1 <0>         0.0000
      8 C8         -0.0983   -2.5515    5.6076 C.3       1 <0>         0.0000
      9 C9          1.0827   -1.9091    4.8627 C.3       1 <0>         0.0000
     10 N1          3.4230   -2.9980    5.2415 N.1       1 <0>         0.0000
     11 N2         -0.3723   -0.7568    3.3261 N.ar      1 <0>         0.0000
     12 Br1        -0.2314    0.6102   -0.5802 Br        1 <0>         0.0000
     13 H1          2.2393   -0.7726    0.4568 H         1 <0>         0.0000
     14 H2          2.7748   -1.7981    2.6729 H         1 <0>         0.0000
     15 H3         -1.6475    0.2341    2.0306 H         1 <0>         0.0000
     16 H4         -0.1395   -0.3509    5.8561 H         1 <0>         0.0000
     17 H5          1.0258   -1.2169    6.9940 H         1 <0>         0.0000
     18 H6          0.1201   -3.4474    6.1789 H         1 <0>         0.0000
     19 H7         -1.0310   -2.5462    5.0541 H         1 <0>         0.0000
@<TRIPOS>BOND
     1    1    9 1
     2    1   10 3
     3    2    3 ar
     4    2    5 ar
     5    2   13 1
     6    3    6 ar
     7    3   14 1
     8    4    5 ar
     9    4   11 ar
    10    4   15 1
    11    5   12 1
    12    6    9 1
    13    6   11 ar
    14    7    8 1
    15    7    9 1
    16    7   16 1
    17    7   17 1
    18    8    9 1
    19    8   18 1
    20    8   19 1
