@<TRIPOS>MOLECULE
*****
   24    25     0     0     0
SMALL
NO_CHARGES

@<TRIPOS>ATOM
      1 C1          0.9241    1.5024    1.9761 C.ar      1 <0>         0.0000
      2 C2         -0.1776    1.1609    1.2019 C.ar      1 <0>         0.0000
      3 C3          0.7742    1.8841    3.3273 C.ar      1 <0>         0.0000
      4 C4         -1.4934    1.1776    1.7273 C.ar      1 <0>         0.0000
      5 C5         -0.5098    1.8953    3.8327 C.ar      1 <0>         0.0000
      6 C6         -1.6268    1.5517    3.0631 C.ar      1 <0>         0.0000
      7 C7         -2.6141    0.8030    0.8247 C.2       1 <0>         0.0000
      8 C8         -2.3092    1.9420    5.1636 C.3       1 <0>         0.0000
      9 C9         -5.4534    1.7027   -0.1606 C.3       1 <0>         0.0000
     10 C10        -4.9689    0.5006    0.6377 C.3       1 <0>         0.0000
     11 O1         -2.4628    0.4957   -0.3471 O.2       1 <0>         0.0000
     12 O2         -0.9122    2.2600    5.1005 O.3       1 <0>         0.0000
     13 O3         -2.7613    1.6851    3.8239 O.3       1 <0>         0.0000
     14 O4         -3.8114    0.8350    1.4468 O.3       1 <0>         0.0000
     15 H1          1.9181    1.4759    1.5398 H         1 <0>         0.0000
     16 H2         -0.0608    0.8673    0.1642 H         1 <0>         0.0000
     17 H3          1.6231    2.1600    3.9449 H         1 <0>         0.0000
     18 H4         -2.4530    1.0388    5.7715 H         1 <0>         0.0000
     19 H5         -2.8588    2.7936    5.5713 H         1 <0>         0.0000
     20 H6         -5.6678    2.5461    0.5027 H         1 <0>         0.0000
     21 H7         -4.7046    2.0083   -0.8952 H         1 <0>         0.0000
     22 H8         -6.3736    1.4416   -0.6949 H         1 <0>         0.0000
     23 H9         -4.7146   -0.3355   -0.0171 H         1 <0>         0.0000
     24 H10        -5.7158    0.1782    1.3660 H         1 <0>         0.0000
@<TRIPOS>BOND
     1    1    2 ar
     2    1    3 ar
     3    1   15 1
     4    2    4 ar
     5    2   16 1
     6    3    5 ar
     7    3   17 1
     8    4    6 ar
     9    4    7 1
    10    5    6 ar
    11    5   12 1
    12    6   13 1
    13    7   11 2
    14    7   14 1
    15    8   12 1
    16    8   13 1
    17    8   18 1
    18    8   19 1
    19    9   10 1
    20    9   20 1
    21    9   21 1
    22    9   22 1
    23   10   14 1
    24   10   23 1
    25   10   24 1
