@<TRIPOS>MOLECULE
*****
   25    26     0     0     0
SMALL
NO_CHARGES

@<TRIPOS>ATOM
      1 C1          1.2364   -2.9945    4.2972 C.ar      1 <0>         0.0000
      2 C2          0.5532   -3.8924    3.4760 C.ar      1 <0>         0.0000
      3 C3          2.3753   -2.3265    3.8356 C.ar      1 <0>         0.0000
      4 C4          1.0160   -4.1273    2.1775 C.ar      1 <0>         0.0000
      5 C5          6.0723   -1.9200    5.7924 C.2       1 <0>         0.0000
      6 C6          6.4073   -2.5257    3.6823 C.2       1 <0>         0.0000
      7 C7          6.8477   -2.7851    4.9708 C.2       1 <0>         0.0000
      8 C8          2.8382   -2.5504    2.5325 C.ar      1 <0>         0.0000
      9 C9          2.1488   -3.4632    1.7124 C.ar      1 <0>         0.0000
     10 C10         4.6600   -0.9801    2.7223 C.3       1 <0>         0.0000
     11 N1          5.2135   -1.1942    5.0725 N.2       1 <0>         0.0000
     12 N2          5.4327   -1.5642    3.7914 N.pl3     1 <0>         0.0000
     13 N3          7.8903   -3.6383    5.3882 N.pl3     1 <0>         0.0000
     14 O1          3.9309   -1.9382    1.9706 O.3       1 <0>         0.0000
     15 Cl1         2.7195   -3.7667    0.0832 Cl        1 <0>         0.0000
     16 H1          0.8928   -2.8106    5.3113 H         1 <0>         0.0000
     17 H2         -0.3298   -4.4119    3.8365 H         1 <0>         0.0000
     18 H3          2.9080   -1.6594    4.5030 H         1 <0>         0.0000
     19 H4          0.5033   -4.8224    1.5198 H         1 <0>         0.0000
     20 H5          6.1098   -1.8032    6.8691 H         1 <0>         0.0000
     21 H6          6.6869   -2.9445    2.7252 H         1 <0>         0.0000
     22 H7          4.0140   -0.2236    3.1747 H         1 <0>         0.0000
     23 H8          5.3209   -0.5190    1.9859 H         1 <0>         0.0000
     24 H9          8.0730   -4.3804    4.7203 H         1 <0>         0.0000
     25 H10         7.7027   -4.0520    6.2961 H         1 <0>         0.0000
@<TRIPOS>BOND
     1    1    2 ar
     2    1    3 ar
     3    1   16 1
     4    2    4 ar
     5    2   17 1
     6    3    8 ar
     7    3   18 1
     8    4    9 ar
     9    4   19 1
    10    5    7 1
    11    5   11 2
    12    5   20 1
    13    6    7 2
    14    6   12 1
    15    6   21 1
    16    7   13 1
    17    8    9 ar
    18    8   14 1
    19    9   15 1
    20   10   12 1
    21   10   14 1
    22   10   22 1
    23   10   23 1
    24   11   12 1
    25   13   24 1
    26   13   25 1
