@<TRIPOS>MOLECULE
*****
   18    18     0     0     0
SMALL
NO_CHARGES

@<TRIPOS>ATOM
      1 C1          1.4258   -0.1347    4.4010 C.2       1 <0>         0.0000
      2 C2          1.4506   -0.8263    3.1472 C.2       1 <0>         0.0000
      3 C3          1.4159    1.2276    4.2495 C.2       1 <0>         0.0000
      4 C4          1.4642    0.0151    2.0609 C.2       1 <0>         0.0000
      5 C5          0.0890   -0.1647   -0.0437 C.2       1 <0>         0.0000
      6 C6          1.4518   -0.3445    0.6010 C.3       1 <0>         0.0000
      7 N1         -0.1298    0.3292   -1.2135 N.2       1 <0>         0.0000
      8 N2         -1.0006   -0.6603    0.6714 N.pl3     1 <0>         0.0000
      9 O1          1.0886    0.6476   -1.8874 O.3       1 <0>         0.0000
     10 S1          1.4412    1.6826    2.5753 S.3       1 <0>         0.0000
     11 H1          1.4195   -0.6272    5.3680 H         1 <0>         0.0000
     12 H2          1.4596   -1.9077    3.0486 H         1 <0>         0.0000
     13 H3          1.4055    1.9890    5.0191 H         1 <0>         0.0000
     14 H4          2.1788    0.2418    0.0379 H         1 <0>         0.0000
     15 H5          1.7366   -1.3975    0.4998 H         1 <0>         0.0000
     16 H6         -0.9502   -0.4727    1.6681 H         1 <0>         0.0000
     17 H7         -1.8907   -0.3825    0.2688 H         1 <0>         0.0000
     18 H8          0.7586    1.0437   -2.7088 H         1 <0>         0.0000
@<TRIPOS>BOND
     1    1    2 1
     2    1    3 2
     3    1   11 1
     4    2    4 2
     5    2   12 1
     6    3   10 1
     7    3   13 1
     8    4    6 1
     9    4   10 1
    10    5    6 1
    11    5    7 2
    12    5    8 1
    13    6   14 1
    14    6   15 1
    15    7    9 1
    16    8   16 1
    17    8   17 1
    18    9   18 1
