@<TRIPOS>MOLECULE
*****
   23    24     0     0     0
SMALL
NO_CHARGES

@<TRIPOS>ATOM
      1 C1          2.0660   -0.9540   -0.0738 C.ar      1 <0>         0.0000
      2 C2          0.8427   -0.5492    0.4691 C.ar      1 <0>         0.0000
      3 C3          3.0458   -1.4873    0.7593 C.ar      1 <0>         0.0000
      4 C4          0.6190   -0.6800    1.8397 C.ar      1 <0>         0.0000
      5 C5          2.8234   -1.6310    2.1414 C.ar      1 <0>         0.0000
      6 C6          1.5882   -1.2190    2.6986 C.ar      1 <0>         0.0000
      7 C7          3.9349   -2.2008    2.9113 C.2       1 <0>         0.0000
      8 C8          5.7856   -2.9577    3.5762 C.2       1 <0>         0.0000
      9 C9          7.2266   -3.3454    3.5833 C.3       1 <0>         0.0000
     10 C10         1.2579   -1.2884    4.1567 C.3       1 <0>         0.0000
     11 N1          5.1635   -2.3793    2.4901 N.2       1 <0>         0.0000
     12 N2          5.0030   -3.1380    4.6163 N.2       1 <0>         0.0000
     13 O1          3.7581   -2.6338    4.1772 O.3       1 <0>         0.0000
     14 Br1         2.0583    0.2597    5.1454 Br        1 <0>         0.0000
     15 H1          2.2556   -0.8549   -1.1389 H         1 <0>         0.0000
     16 H2          0.0693   -0.1305   -0.1691 H         1 <0>         0.0000
     17 H3          4.0017   -1.8046    0.3568 H         1 <0>         0.0000
     18 H4         -0.3260   -0.3482    2.2622 H         1 <0>         0.0000
     19 H5          7.8501   -2.4668    3.3939 H         1 <0>         0.0000
     20 H6          7.4991   -3.7810    4.5458 H         1 <0>         0.0000
     21 H7          7.4233   -4.0708    2.7883 H         1 <0>         0.0000
     22 H8          1.6471   -2.1628    4.6655 H         1 <0>         0.0000
     23 H9          0.1876   -1.1941    4.3247 H         1 <0>         0.0000
@<TRIPOS>BOND
     1    1    2 ar
     2    1    3 ar
     3    1   15 1
     4    2    4 ar
     5    2   16 1
     6    3    5 ar
     7    3   17 1
     8    4    6 ar
     9    4   18 1
    10    5    6 ar
    11    5    7 1
    12    6   10 1
    13    7   11 2
    14    7   13 1
    15    8    9 1
    16    8   11 1
    17    8   12 2
    18    9   19 1
    19    9   20 1
    20    9   21 1
    21   10   14 1
    22   10   22 1
    23   10   23 1
    24   12   13 1
