@<TRIPOS>MOLECULE
*****
   20    21     0     0     0
SMALL
NO_CHARGES

@<TRIPOS>ATOM
      1 C1          0.8868    1.0893    3.4490 C.ar      1 <0>         0.0000
      2 C2         -0.7683    2.5712    2.5813 C.ar      1 <0>         0.0000
      3 C3          0.0853    2.2202    3.6256 C.ar      1 <0>         0.0000
      4 C4         -0.0410    0.7622    1.3845 C.ar      1 <0>         0.0000
      5 C5          0.0241   -1.5280    0.2294 C.2       1 <0>         0.0000
      6 C6         -0.8656    0.4567   -1.0763 C.3       1 <0>         0.0000
      7 C7          0.6229    0.5832   -1.0966 C.3       1 <0>         0.0000
      8 C8         -0.0572   -0.0382    0.1238 C.3       1 <0>         0.0000
      9 N1          0.8316    0.3681    2.3293 N.ar      1 <0>         0.0000
     10 N2         -0.8351    1.8408    1.4632 N.ar      1 <0>         0.0000
     11 O1          0.4612   -2.2630   -0.6376 O.2       1 <0>         0.0000
     12 O2         -0.5327   -2.0039    1.3709 O.3       1 <0>         0.0000
     13 Br1         0.1679    3.2511    5.2278 Br        1 <0>         0.0000
     14 H1          1.5878    0.7687    4.2174 H         1 <0>         0.0000
     15 H2         -1.4090    3.4485    2.6448 H         1 <0>         0.0000
     16 H3         -1.4637    1.3422   -0.8965 H         1 <0>         0.0000
     17 H4         -1.3176   -0.3124   -1.6936 H         1 <0>         0.0000
     18 H5          1.1950   -0.1029   -1.7116 H         1 <0>         0.0000
     19 H6          1.0548    1.5671   -0.9445 H         1 <0>         0.0000
     20 H7         -0.4489   -2.9755    1.3264 H         1 <0>         0.0000
@<TRIPOS>BOND
     1    1    3 ar
     2    1    9 ar
     3    1   14 1
     4    2    3 ar
     5    2   10 ar
     6    2   15 1
     7    3   13 1
     8    4    8 1
     9    4    9 ar
    10    4   10 ar
    11    5    8 1
    12    5   11 2
    13    5   12 1
    14    6    7 1
    15    6    8 1
    16    6   16 1
    17    6   17 1
    18    7    8 1
    19    7   18 1
    20    7   19 1
    21   12   20 1
