@<TRIPOS>MOLECULE
*****
   52    53     0     0     0
SMALL
NO_CHARGES

@<TRIPOS>ATOM
      1 C1         -2.5431   -0.2239    1.8270 C.ar      1 <0>         0.0000
      2 C2         -2.7522    0.8888    0.9913 C.ar      1 <0>         0.0000
      3 C3         -1.3522   -0.9302    1.7386 C.ar      1 <0>         0.0000
      4 C4         -1.7757    1.2995    0.0885 C.ar      1 <0>         0.0000
      5 C5         -0.3544   -0.5405    0.8233 C.ar      1 <0>         0.0000
      6 C6         -0.5716    0.5890    0.0101 C.ar      1 <0>         0.0000
      7 C7          0.8655   -1.3502    0.6579 C.2       1 <0>         0.0000
      8 C8          1.7106    0.5696   -0.6635 C.3       1 <0>         0.0000
      9 C9          1.7513   -0.9742   -0.5440 C.3       1 <0>         0.0000
     10 C10         3.4456    3.3027   -2.8609 C.3       1 <0>         0.0000
     11 C11         1.5271   -3.9316   -4.3108 C.3       1 <0>         0.0000
     12 C12         6.5249   -0.8363   -0.3614 C.3       1 <0>         0.0000
     13 C13         2.5559    1.1779   -1.7772 C.3       1 <0>         0.0000
     14 C14         1.1363   -1.6185   -1.8202 C.3       1 <0>         0.0000
     15 C15         3.1827   -1.5092   -0.3382 C.3       1 <0>         0.0000
     16 C16         2.5770    2.7113   -1.7462 C.3       1 <0>         0.0000
     17 C17         0.7916   -3.0997   -1.6718 C.3       1 <0>         0.0000
     18 C18         3.9331   -0.8923    0.8403 C.3       1 <0>         0.0000
     19 O1          1.1386   -2.3033    1.3807 O.2       1 <0>         0.0000
     20 O2         -0.3700   -5.1515   -2.9136 O.2       1 <0>         0.0000
     21 O3         -0.8159   -2.7877   -3.7867 O.2       1 <0>         0.0000
     22 O4          6.1785   -1.0231    2.2621 O.2       1 <0>         0.0000
     23 O5          5.5579   -3.0265    0.7908 O.2       1 <0>         0.0000
     24 O6          0.3589    1.0286   -0.8828 O.3       1 <0>         0.0000
     25 S1          0.0980   -3.7885   -3.2079 S.o2      1 <0>         0.0000
     26 S2          5.6124   -1.5732    1.0204 S.o2      1 <0>         0.0000
     27 H1         -3.3131   -0.5305    2.5286 H         1 <0>         0.0000
     28 H2         -3.6855    1.4425    1.0524 H         1 <0>         0.0000
     29 H3         -1.1636   -1.8050    2.3537 H         1 <0>         0.0000
     30 H4         -1.9201    2.1632   -0.5533 H         1 <0>         0.0000
     31 H5          2.0281    0.9939    0.3007 H         1 <0>         0.0000
     32 H6          4.4847    2.9618   -2.7814 H         1 <0>         0.0000
     33 H7          3.4511    4.3966   -2.8201 H         1 <0>         0.0000
     34 H8          3.0745    3.0088   -3.8492 H         1 <0>         0.0000
     35 H9          1.1416   -4.3718   -5.2323 H         1 <0>         0.0000
     36 H10         1.9385   -2.9419   -4.5132 H         1 <0>         0.0000
     37 H11         2.2663   -4.5934   -3.8568 H         1 <0>         0.0000
     38 H12         7.5489   -1.2016   -0.2625 H         1 <0>         0.0000
     39 H13         6.0992   -1.1718   -1.3078 H         1 <0>         0.0000
     40 H14         6.5031    0.2508   -0.2692 H         1 <0>         0.0000
     41 H15         3.5817    0.8039   -1.6865 H         1 <0>         0.0000
     42 H16         2.1768    0.8342   -2.7460 H         1 <0>         0.0000
     43 H17         1.8547   -1.4840   -2.6353 H         1 <0>         0.0000
     44 H18         0.2313   -1.0819   -2.1104 H         1 <0>         0.0000
     45 H19         3.7417   -1.3599   -1.2670 H         1 <0>         0.0000
     46 H20         3.1340   -2.5846   -0.1620 H         1 <0>         0.0000
     47 H21         1.5528    3.0864   -1.8319 H         1 <0>         0.0000
     48 H22         2.9506    3.0464   -0.7696 H         1 <0>         0.0000
     49 H23         1.6378   -3.7346   -1.3993 H         1 <0>         0.0000
     50 H24        -0.0024   -3.2727   -0.9408 H         1 <0>         0.0000
     51 H25         4.0643    0.1909    0.7798 H         1 <0>         0.0000
     52 H26         3.4517   -1.1340    1.7915 H         1 <0>         0.0000
@<TRIPOS>BOND
     1    1    2 ar
     2    1    3 ar
     3    1   27 1
     4    2    4 ar
     5    2   28 1
     6    3    5 ar
     7    3   29 1
     8    4    6 ar
     9    4   30 1
    10    5    6 ar
    11    5    7 1
    12    6   24 1
    13    7    9 1
    14    7   19 2
    15    8    9 1
    16    8   13 1
    17    8   24 1
    18    8   31 1
    19    9   14 1
    20    9   15 1
    21   10   16 1
    22   10   32 1
    23   10   33 1
    24   10   34 1
    25   11   25 1
    26   11   35 1
    27   11   36 1
    28   11   37 1
    29   12   26 1
    30   12   38 1
    31   12   39 1
    32   12   40 1
    33   13   16 1
    34   13   41 1
    35   13   42 1
    36   14   17 1
    37   14   43 1
    38   14   44 1
    39   15   18 1
    40   15   45 1
    41   15   46 1
    42   16   47 1
    43   16   48 1
    44   17   25 1
    45   17   49 1
    46   17   50 1
    47   18   26 1
    48   18   51 1
    49   18   52 1
    50   20   25 2
    51   21   25 2
    52   22   26 2
    53   23   26 2
