@<TRIPOS>MOLECULE
*****
   35    36     0     0     0
SMALL
NO_CHARGES

@<TRIPOS>ATOM
      1 C1          5.4221   -0.3902   -0.3603 C.ar      1 <0>         0.0000
      2 C2          4.9499    1.9387    0.0678 C.ar      1 <0>         0.0000
      3 C3          4.2706   -0.4906   -1.1405 C.ar      1 <0>         0.0000
      4 C4          3.7905    1.8555   -0.7050 C.ar      1 <0>         0.0000
      5 C5          5.7777    0.8212    0.2555 C.ar      1 <0>         0.0000
      6 C6          3.4590    0.6356   -1.2964 C.ar      1 <0>         0.0000
      7 C7         -0.0068   -0.2447    1.2831 C.2       1 <0>         0.0000
      8 C8          0.5243    0.5620    0.1017 C.3       1 <0>         0.0000
      9 C9         -1.5970   -1.3724   -1.2292 C.3       1 <0>         0.0000
     10 C10        -0.4972   -0.6033   -1.9733 C.3       1 <0>         0.0000
     11 C11        -2.1533   -0.6545    0.0079 C.3       1 <0>         0.0000
     12 C12         0.7564   -0.3173   -1.1350 C.3       1 <0>         0.0000
     13 C13         7.0424    0.9255    1.0738 C.3       1 <0>         0.0000
     14 N1         -1.2830   -0.7231    1.1803 N.am      1 <0>         0.0000
     15 O1          0.6870   -0.4600    2.2763 O.2       1 <0>         0.0000
     16 O2          1.4599    1.8698   -2.5289 O.2       1 <0>         0.0000
     17 O3          2.2073   -0.4315   -3.3800 O.2       1 <0>         0.0000
     18 S1          1.9581    0.5055   -2.2692 S.o2      1 <0>         0.0000
     19 H1          6.0567   -1.2638   -0.2313 H         1 <0>         0.0000
     20 H2          5.2128    2.8856    0.5334 H         1 <0>         0.0000
     21 H3          4.0119   -1.4218   -1.6359 H         1 <0>         0.0000
     22 H4          3.1513    2.7192   -0.8608 H         1 <0>         0.0000
     23 H5         -0.1500    1.3837   -0.1594 H         1 <0>         0.0000
     24 H6          1.4604    0.9927    0.4566 H         1 <0>         0.0000
     25 H7         -2.4224   -1.5291   -1.9338 H         1 <0>         0.0000
     26 H8         -1.2390   -2.3654   -0.9322 H         1 <0>         0.0000
     27 H9         -0.2029   -1.1702   -2.8607 H         1 <0>         0.0000
     28 H10        -0.9019    0.3532   -2.3245 H         1 <0>         0.0000
     29 H11        -2.3751    0.3924   -0.2354 H         1 <0>         0.0000
     30 H12        -3.1016   -1.1120    0.3004 H         1 <0>         0.0000
     31 H13         1.2564   -1.2502   -0.8521 H         1 <0>         0.0000
     32 H14         7.8966    1.1751    0.4330 H         1 <0>         0.0000
     33 H15         6.9624    1.7060    1.8353 H         1 <0>         0.0000
     34 H16         7.2723   -0.0190    1.5750 H         1 <0>         0.0000
     35 H17        -1.5708   -1.2953    1.9655 H         1 <0>         0.0000
@<TRIPOS>BOND
     1    1    3 ar
     2    1    5 ar
     3    1   19 1
     4    2    4 ar
     5    2    5 ar
     6    2   20 1
     7    3    6 ar
     8    3   21 1
     9    4    6 ar
    10    4   22 1
    11    5   13 1
    12    6   18 1
    13    7    8 1
    14    7   14 am
    15    7   15 2
    16    8   12 1
    17    8   23 1
    18    8   24 1
    19    9   10 1
    20    9   11 1
    21    9   25 1
    22    9   26 1
    23   10   12 1
    24   10   27 1
    25   10   28 1
    26   11   14 1
    27   11   29 1
    28   11   30 1
    29   12   18 1
    30   12   31 1
    31   13   32 1
    32   13   33 1
    33   13   34 1
    34   14   35 1
    35   16   18 2
    36   17   18 2
