@<TRIPOS>MOLECULE
*****
   35    36     0     0     0
SMALL
NO_CHARGES

@<TRIPOS>ATOM
      1 C1          2.5098    3.1712    4.9732 C.ar      1 <0>         0.0000
      2 C2          1.6325    4.9192    3.5572 C.ar      1 <0>         0.0000
      3 C3          2.7734    2.3823    3.8518 C.ar      1 <0>         0.0000
      4 C4          1.8934    4.1464    2.4256 C.ar      1 <0>         0.0000
      5 C5          1.9352    4.4452    4.8447 C.ar      1 <0>         0.0000
      6 C6          2.4536    2.8767    2.5864 C.ar      1 <0>         0.0000
      7 C7          0.3021   -0.6738   -1.0163 C.2       1 <0>         0.0000
      8 C8          1.3037    0.4185   -0.6172 C.3       1 <0>         0.0000
      9 C9         -0.9665    0.2911    1.8390 C.3       1 <0>         0.0000
     10 C10         0.5741    0.3058    1.8512 C.3       1 <0>         0.0000
     11 C11        -1.5560    0.2851    0.4220 C.3       1 <0>         0.0000
     12 C12         1.1241    1.1741    0.7146 C.3       1 <0>         0.0000
     13 C13         1.6865    5.3074    6.0592 C.3       1 <0>         0.0000
     14 N1         -0.9454   -0.7117   -0.4513 N.am      1 <0>         0.0000
     15 O1          0.6402   -1.5116   -1.8498 O.2       1 <0>         0.0000
     16 O2          3.1503    2.7711    0.0285 O.2       1 <0>         0.0000
     17 O3          3.6567    0.7598    1.5367 O.2       1 <0>         0.0000
     18 S1          2.7767    1.8708    1.1336 S.o2      1 <0>         0.0000
     19 H1          2.7595    2.7926    5.9616 H         1 <0>         0.0000
     20 H2          1.1993    5.9097    3.4386 H         1 <0>         0.0000
     21 H3          3.2338    1.4032    3.9444 H         1 <0>         0.0000
     22 H4          1.6901    4.5287    1.4294 H         1 <0>         0.0000
     23 H5          2.2599   -0.1117   -0.6021 H         1 <0>         0.0000
     24 H6          1.3646    1.1251   -1.4495 H         1 <0>         0.0000
     25 H7         -1.3213   -0.5837    2.3938 H         1 <0>         0.0000
     26 H8         -1.3479    1.1795    2.3575 H         1 <0>         0.0000
     27 H9          0.9085    0.6697    2.8257 H         1 <0>         0.0000
     28 H10         0.9745   -0.7057    1.7431 H         1 <0>         0.0000
     29 H11        -2.6264    0.0692    0.4658 H         1 <0>         0.0000
     30 H12        -1.4679    1.2790   -0.0311 H         1 <0>         0.0000
     31 H13         0.5146    2.0731    0.5841 H         1 <0>         0.0000
     32 H14         2.5421    5.9681    6.2429 H         1 <0>         0.0000
     33 H15         0.8055    5.9419    5.9260 H         1 <0>         0.0000
     34 H16         1.5399    4.7015    6.9576 H         1 <0>         0.0000
     35 H17        -1.5223   -1.4601   -0.8171 H         1 <0>         0.0000
@<TRIPOS>BOND
     1    1    3 ar
     2    1    5 ar
     3    1   19 1
     4    2    4 ar
     5    2    5 ar
     6    2   20 1
     7    3    6 ar
     8    3   21 1
     9    4    6 ar
    10    4   22 1
    11    5   13 1
    12    6   18 1
    13    7    8 1
    14    7   14 am
    15    7   15 2
    16    8   12 1
    17    8   23 1
    18    8   24 1
    19    9   10 1
    20    9   11 1
    21    9   25 1
    22    9   26 1
    23   10   12 1
    24   10   27 1
    25   10   28 1
    26   11   14 1
    27   11   29 1
    28   11   30 1
    29   12   18 1
    30   12   31 1
    31   13   32 1
    32   13   33 1
    33   13   34 1
    34   14   35 1
    35   16   18 2
    36   17   18 2
