@<TRIPOS>MOLECULE
*****
   34    35     0     0     0
SMALL
NO_CHARGES

@<TRIPOS>ATOM
      1 C1          1.4828   -0.5774    0.6497 C.ar      1 <0>         0.0000
      2 C2          0.5200   -1.4286    1.1898 C.ar      1 <0>         0.0000
      3 C3          3.1092   -1.3358    2.2928 C.ar      1 <0>         0.0000
      4 C4          2.7808   -0.5217    1.1927 C.ar      1 <0>         0.0000
      5 C5          0.8614   -2.2257    2.2814 C.ar      1 <0>         0.0000
      6 C6          2.1460   -2.1850    2.8307 C.ar      1 <0>         0.0000
      7 C7          3.7696    0.4158    0.5732 C.2       1 <0>         0.0000
      8 C8         -1.8111   -1.7293    3.7994 C.2       1 <0>         0.0000
      9 C9          2.2647   -3.1542    3.9898 C.3       1 <0>         0.0000
     10 C10         0.7913   -3.4819    4.3337 C.3       1 <0>         0.0000
     11 C11         0.0087   -3.2467    3.0132 C.3       1 <0>         0.0000
     12 C12         5.1567    0.5239    1.1850 C.3       1 <0>         0.0000
     13 C13        -3.7939   -0.9548    5.1724 C.3       1 <0>         0.0000
     14 C14        -3.3209   -1.5076    3.8237 C.3       1 <0>         0.0000
     15 N1         -1.3949   -2.8789    3.1774 N.am      1 <0>         0.0000
     16 O1          3.4735    1.0878   -0.4100 O.2       1 <0>         0.0000
     17 O2         -1.0217   -0.9202    4.2827 O.2       1 <0>         0.0000
     18 H1          1.2545    0.0661   -0.1942 H         1 <0>         0.0000
     19 H2         -0.4870   -1.4546    0.7801 H         1 <0>         0.0000
     20 H3          4.1032   -1.3006    2.7302 H         1 <0>         0.0000
     21 H4          2.8062   -4.0560    3.6745 H         1 <0>         0.0000
     22 H5          2.8094   -2.7334    4.8405 H         1 <0>         0.0000
     23 H6          0.6534   -4.4964    4.7177 H         1 <0>         0.0000
     24 H7          0.4223   -2.7738    5.0770 H         1 <0>         0.0000
     25 H8          0.0020   -4.1722    2.4233 H         1 <0>         0.0000
     26 H9          5.6732   -0.4417    1.1560 H         1 <0>         0.0000
     27 H10         5.0993    0.8336    2.2339 H         1 <0>         0.0000
     28 H11         5.7340    1.2577    0.6214 H         1 <0>         0.0000
     29 H12        -3.6340   -1.6831    5.9743 H         1 <0>         0.0000
     30 H13        -3.2366   -0.0498    5.4245 H         1 <0>         0.0000
     31 H14        -4.8608   -0.7139    5.1378 H         1 <0>         0.0000
     32 H15        -3.5446   -0.7843    3.0299 H         1 <0>         0.0000
     33 H16        -3.8583   -2.4294    3.5714 H         1 <0>         0.0000
     34 H17        -2.0981   -3.5183    2.8360 H         1 <0>         0.0000
@<TRIPOS>BOND
     1    1    2 ar
     2    1    4 ar
     3    1   18 1
     4    2    5 ar
     5    2   19 1
     6    3    4 ar
     7    3    6 ar
     8    3   20 1
     9    4    7 1
    10    5    6 ar
    11    5   11 1
    12    6    9 1
    13    7   12 1
    14    7   16 2
    15    8   14 1
    16    8   15 am
    17    8   17 2
    18    9   10 1
    19    9   21 1
    20    9   22 1
    21   10   11 1
    22   10   23 1
    23   10   24 1
    24   11   15 1
    25   11   25 1
    26   12   26 1
    27   12   27 1
    28   12   28 1
    29   13   14 1
    30   13   29 1
    31   13   30 1
    32   13   31 1
    33   14   32 1
    34   14   33 1
    35   15   34 1
