@<TRIPOS>MOLECULE
*****
   38    41     0     0     0
SMALL
NO_CHARGES

@<TRIPOS>ATOM
      1 C1          0.5248   -4.2160   -3.3254 C.2       1 <0>         0.0000
      2 C2         -0.7269   -2.6720   -2.7520 C.2       1 <0>         0.0000
      3 C3         -1.2226    1.7055   -0.6102 C.3       1 <0>         0.0000
      4 C4          2.7650   -5.5779   -3.3607 C.3       1 <0>         0.0000
      5 C5          2.0554   -5.9545   -2.0978 C.3       1 <0>         0.0000
      6 C6         -0.6056    1.3026    0.7247 C.3       1 <0>         0.0000
      7 C7         -1.9360    0.5229   -1.2662 C.3       1 <0>         0.0000
      8 C8         -0.4708   -1.0650   -0.1587 C.3       1 <0>         0.0000
      9 C9          2.0585   -0.6089    1.8067 C.3       1 <0>         0.0000
     10 C10         2.5093    0.4078    0.7957 C.3       1 <0>         0.0000
     11 C11         1.2514   -5.5640   -3.3200 C.3       1 <0>         0.0000
     12 C12         0.2756    0.0617    0.5707 C.3       1 <0>         0.0000
     13 C13        -1.6999   -1.7140   -2.1278 C.3       1 <0>         0.0000
     14 N1         -0.3670   -3.8660   -2.3537 N.2       1 <0>         0.0000
     15 N2          0.7255   -3.3074   -4.2845 N.2       1 <0>         0.0000
     16 N3         -1.0220   -0.6126   -1.4449 N.3       1 <0>         0.0000
     17 O1         -0.1217   -2.2615   -3.8973 O.3       1 <0>         0.0000
     18 O2          0.6506   -0.3925    1.8837 O.3       1 <0>         0.0000
     19 O3          1.4629    0.3925   -0.1737 O.3       1 <0>         0.0000
     20 H1         -1.9328    2.5255   -0.4545 H         1 <0>         0.0000
     21 H2         -0.4410    2.0846   -1.2806 H         1 <0>         0.0000
     22 H3          3.2909   -4.6309   -3.3804 H         1 <0>         0.0000
     23 H4          3.2473   -6.3673   -3.9245 H         1 <0>         0.0000
     24 H5          2.0586   -6.9983   -1.8081 H         1 <0>         0.0000
     25 H6          2.1051   -5.2613   -1.2667 H         1 <0>         0.0000
     26 H7         -0.0208    2.1411    1.1217 H         1 <0>         0.0000
     27 H8         -1.4009    1.1058    1.4551 H         1 <0>         0.0000
     28 H9         -2.8047    0.2341   -0.6599 H         1 <0>         0.0000
     29 H10        -2.3149    0.8519   -2.2415 H         1 <0>         0.0000
     30 H11         0.2315   -1.8894   -0.3391 H         1 <0>         0.0000
     31 H12        -1.2632   -1.4641    0.4893 H         1 <0>         0.0000
     32 H13         2.2276   -1.6319    1.4538 H         1 <0>         0.0000
     33 H14         2.5245   -0.4825    2.7870 H         1 <0>         0.0000
     34 H15         2.5588    1.4129    1.2281 H         1 <0>         0.0000
     35 H16         3.4693    0.1648    0.3338 H         1 <0>         0.0000
     36 H17         0.7405   -6.3659   -3.8457 H         1 <0>         0.0000
     37 H18        -2.3601   -1.2838   -2.8888 H         1 <0>         0.0000
     38 H19        -2.3359   -2.2216   -1.3949 H         1 <0>         0.0000
@<TRIPOS>BOND
     1    1   11 1
     2    1   14 1
     3    1   15 2
     4    2   13 1
     5    2   14 2
     6    2   17 1
     7    3    6 1
     8    3    7 1
     9    3   20 1
    10    3   21 1
    11    4    5 1
    12    4   11 1
    13    4   22 1
    14    4   23 1
    15    5   11 1
    16    5   24 1
    17    5   25 1
    18    6   12 1
    19    6   26 1
    20    6   27 1
    21    7   16 1
    22    7   28 1
    23    7   29 1
    24    8   12 1
    25    8   16 1
    26    8   30 1
    27    8   31 1
    28    9   10 1
    29    9   18 1
    30    9   32 1
    31    9   33 1
    32   10   19 1
    33   10   34 1
    34   10   35 1
    35   11   36 1
    36   12   19 1
    37   12   18 1
    38   13   16 1
    39   13   37 1
    40   13   38 1
    41   15   17 1
