@<TRIPOS>MOLECULE
*****
   25    26     0     0     0
SMALL
NO_CHARGES

@<TRIPOS>ATOM
      1 C1         -0.1546    2.2151    1.2988 C.2       1 <0>         0.0000
      2 C2          1.3399   -0.2518    0.0843 C.3       1 <0>         0.0000
      3 C3         -0.6894    0.1486   -1.4189 C.3       1 <0>         0.0000
      4 C4          0.7588    2.0911   -0.6831 C.3       1 <0>         0.0000
      5 C5          0.8355   -1.5996    0.5830 C.3       1 <0>         0.0000
      6 C6         -1.3550   -1.1697   -1.0452 C.3       1 <0>         0.0000
      7 C7          0.2060    0.7178   -0.3071 C.3       1 <0>         0.0000
      8 N1          0.6462    2.8967    0.5409 N.2       1 <0>         0.0000
      9 N2         -0.6378    2.5458    2.5283 N.pl3     1 <0>         0.0000
     10 O1         -0.8621   -3.5078    0.0186 O.2       1 <0>         0.0000
     11 O2          0.6602   -2.6675   -1.8081 O.2       1 <0>         0.0000
     12 O3         -0.5871    1.0035    0.8469 O.3       1 <0>         0.0000
     13 S1         -0.1607   -2.4221   -0.6385 S.o2      1 <0>         0.0000
     14 H1          1.9485    0.1892    0.8837 H         1 <0>         0.0000
     15 H2          2.0023   -0.4048   -0.7769 H         1 <0>         0.0000
     16 H3         -0.0983    0.0180   -2.3337 H         1 <0>         0.0000
     17 H4         -1.4893    0.8640   -1.6487 H         1 <0>         0.0000
     18 H5          1.7976    2.0464   -1.0263 H         1 <0>         0.0000
     19 H6          0.1704    2.5762   -1.4706 H         1 <0>         0.0000
     20 H7          1.6735   -2.2639    0.8160 H         1 <0>         0.0000
     21 H8          0.2253   -1.4884    1.4849 H         1 <0>         0.0000
     22 H9         -2.0145   -1.0512   -0.1795 H         1 <0>         0.0000
     23 H10        -1.9506   -1.5516   -1.8801 H         1 <0>         0.0000
     24 H11        -1.2516    1.9085    2.9896 H         1 <0>         0.0000
     25 H12        -0.3645    3.4160    2.9330 H         1 <0>         0.0000
@<TRIPOS>BOND
     1    1    8 2
     2    1    9 1
     3    1   12 1
     4    2    5 1
     5    2    7 1
     6    2   14 1
     7    2   15 1
     8    3    6 1
     9    3    7 1
    10    3   16 1
    11    3   17 1
    12    4    7 1
    13    4    8 1
    14    4   18 1
    15    4   19 1
    16    5   13 1
    17    5   20 1
    18    5   21 1
    19    6   13 1
    20    6   22 1
    21    6   23 1
    22    7   12 1
    23    9   24 1
    24    9   25 1
    25   10   13 2
    26   11   13 2
