@<TRIPOS>MOLECULE
*****
   18    18     0     0     0
SMALL
NO_CHARGES

@<TRIPOS>ATOM
      1 C1          0.8691   -2.0215    2.9438 C.ar      1 <0>         0.0000
      2 C2          1.4150   -1.3226    1.8673 C.ar      1 <0>         0.0000
      3 C3          0.0565    0.6131    2.4473 C.ar      1 <0>         0.0000
      4 C4         -0.4579   -0.0928    3.5346 C.ar      1 <0>         0.0000
      5 C5         -0.0697   -1.4180    3.7793 C.ar      1 <0>         0.0000
      6 C6          0.9912   -0.0169    1.6363 C.ar      1 <0>         0.0000
      7 C7         -1.7612   -2.7833    4.7122 C.3       1 <0>         0.0000
      8 N1         -1.3938    0.6307    4.4168 N.pl3     1 <0>         0.0000
      9 O1         -2.1272    1.4656    3.8802 O.3       1 <0>         0.0000
     10 O2         -1.3555    0.3777    5.6205 O.2       1 <0>         0.0000
     11 O3         -0.5574   -2.1509    4.8570 O.3       1 <0>         0.0000
     12 F1          1.5082    0.6649    0.5929 F         1 <0>         0.0000
     13 F2         -2.7325   -1.9327    4.3054 F         1 <0>         0.0000
     14 F3         -2.0905   -3.2679    5.9107 F         1 <0>         0.0000
     15 Cl1        -1.7133   -4.1470    3.5263 Cl        1 <0>         0.0000
     16 H1          1.1616   -3.0456    3.1479 H         1 <0>         0.0000
     17 H2          2.1506   -1.7775    1.2119 H         1 <0>         0.0000
     18 H3         -0.2636    1.6299    2.2515 H         1 <0>         0.0000
@<TRIPOS>BOND
     1    1    2 ar
     2    1    5 ar
     3    1   16 1
     4    2    6 ar
     5    2   17 1
     6    3    4 ar
     7    3    6 ar
     8    3   18 1
     9    4    5 ar
    10    4    8 1
    11    5   11 1
    12    6   12 1
    13    7   11 1
    14    7   13 1
    15    7   14 1
    16    7   15 1
    17    8    9 1
    18    8   10 2
