@<TRIPOS>MOLECULE
*****
   39    41     0     0     0
SMALL
NO_CHARGES

@<TRIPOS>ATOM
      1 C1         -1.6252   -0.8736    2.0352 C.ar      1 <0>         0.0000
      2 C2         -2.2262    0.3584    1.7879 C.ar      1 <0>         0.0000
      3 C3          2.5393   -4.4877    3.0000 C.ar      1 <0>         0.0000
      4 C4         -0.5018   -1.2536    1.3019 C.ar      1 <0>         0.0000
      5 C5          2.5612   -4.6093    1.6106 C.ar      1 <0>         0.0000
      6 C6          2.6122   -2.1002    2.8187 C.ar      1 <0>         0.0000
      7 C7         -1.7251    1.2302    0.8109 C.ar      1 <0>         0.0000
      8 C8          2.5659   -3.2353    3.6326 C.ar      1 <0>         0.0000
      9 C9          0.0457   -0.3930    0.3463 C.ar      1 <0>         0.0000
     10 C10        -0.5724    0.8467    0.0936 C.ar      1 <0>         0.0000
     11 C11         2.6138   -3.4695    0.7981 C.ar      1 <0>         0.0000
     12 C12         2.6335   -2.2127    1.4256 C.ar      1 <0>         0.0000
     13 C13        -2.4770    2.5274    0.6279 C.2       1 <0>         0.0000
     14 C14         1.2665   -0.1280   -1.7218 C.3       1 <0>         0.0000
     15 C15         1.1264    1.3768   -1.5606 C.3       1 <0>         0.0000
     16 C16         2.5680   -3.1168    5.1390 C.3       1 <0>         0.0000
     17 N1          1.1986   -0.7875   -0.4070 N.pl3     1 <0>         0.0000
     18 O1         -3.4726    2.7827    1.2763 O.2       1 <0>         0.0000
     19 O2          2.6594    0.4148    1.4189 O.2       1 <0>         0.0000
     20 O3          3.7533   -0.7746   -0.5377 O.2       1 <0>         0.0000
     21 O4         -0.1128    1.6968   -0.8858 O.3       1 <0>         0.0000
     22 O5          2.6158   -3.5338   -0.5617 O.3       1 <0>         0.0000
     23 O6         -2.0135    3.4120   -0.2819 O.3       1 <0>         0.0000
     24 S1          2.6963   -0.7057    0.4721 S.o2      1 <0>         0.0000
     25 H1         -2.0383   -1.5445    2.7824 H         1 <0>         0.0000
     26 H2         -3.1081    0.6775    2.3331 H         1 <0>         0.0000
     27 H3          2.4949   -5.3913    3.6038 H         1 <0>         0.0000
     28 H4         -0.0397   -2.2225    1.4563 H         1 <0>         0.0000
     29 H5          2.5337   -5.5952    1.1496 H         1 <0>         0.0000
     30 H6          2.6153   -1.1045    3.2515 H         1 <0>         0.0000
     31 H7          0.4492   -0.5332   -2.3257 H         1 <0>         0.0000
     32 H8          2.2135   -0.3771   -2.1997 H         1 <0>         0.0000
     33 H9          1.9548    1.7869   -0.9759 H         1 <0>         0.0000
     34 H10         1.0697    1.8886   -2.5234 H         1 <0>         0.0000
     35 H11         3.5841   -3.2147    5.5389 H         1 <0>         0.0000
     36 H12         2.1792   -2.1474    5.4617 H         1 <0>         0.0000
     37 H13         1.9565   -3.8978    5.6008 H         1 <0>         0.0000
     38 H14         2.6208   -4.4644   -0.8377 H         1 <0>         0.0000
     39 H15        -1.2091    3.0549   -0.7118 H         1 <0>         0.0000
@<TRIPOS>BOND
     1    1    2 ar
     2    1    4 ar
     3    1   25 1
     4    2    7 ar
     5    2   26 1
     6    3    5 ar
     7    3    8 ar
     8    3   27 1
     9    4    9 ar
    10    4   28 1
    11    5   11 ar
    12    5   29 1
    13    6    8 ar
    14    6   12 ar
    15    6   30 1
    16    7   10 ar
    17    7   13 1
    18    8   16 1
    19    9   10 ar
    20    9   17 1
    21   10   21 1
    22   11   12 ar
    23   11   22 1
    24   12   24 1
    25   13   18 2
    26   13   23 1
    27   14   15 1
    28   14   17 1
    29   14   31 1
    30   14   32 1
    31   15   21 1
    32   15   33 1
    33   15   34 1
    34   16   35 1
    35   16   36 1
    36   16   37 1
    37   17   24 1
    38   19   24 2
    39   20   24 2
    40   22   38 1
    41   23   39 1
