@<TRIPOS>MOLECULE
*****
   49    52     0     0     0
SMALL
NO_CHARGES

@<TRIPOS>ATOM
      1 C1          0.2614   -5.3681   10.4879 C.2       1 <0>         0.0000
      2 C2          0.6994   -4.4504    8.2959 C.2       1 <0>         0.0000
      3 C3          0.3568   -1.2100    2.0307 C.2       1 <0>         0.0000
      4 C4          2.2670   -4.5100    4.8953 C.3       1 <0>         0.0000
      5 C5          1.0756   -3.5451    2.8239 C.3       1 <0>         0.0000
      6 C6          2.0482   -5.0195    6.3218 C.3       1 <0>         0.0000
      7 C7         -1.7940   -0.1308    2.7972 C.3       1 <0>         0.0000
      8 C8         -0.2505    1.0381    1.2814 C.3       1 <0>         0.0000
      9 C9         -2.9528    0.2554    1.8618 C.3       1 <0>         0.0000
     10 C10        -1.4452    1.3937    0.3830 C.3       1 <0>         0.0000
     11 C11         0.6373   -2.9293    6.3792 C.3       1 <0>         0.0000
     12 C12         0.0082   -2.4508    2.8669 C.3       1 <0>         0.0000
     13 C13         0.9321   -4.2492    4.1906 C.3       1 <0>         0.0000
     14 C14         0.0385   -3.2799    5.0183 C.3       1 <0>         0.0000
     15 C15         0.1636   -6.1431   11.7647 C.3       1 <0>         0.0000
     16 C16        -2.8643    2.7017    1.8925 C.3       1 <0>         0.0000
     17 N1         -0.3641   -4.2564   10.2531 N.2       1 <0>         0.0000
     18 N2         -0.1239   -3.7174    9.0139 N.2       1 <0>         0.0000
     19 N3          1.0959   -4.1587    7.0280 N.pl3     1 <0>         0.0000
     20 N4         -0.5444   -0.1855    2.0341 N.am      1 <0>         0.0000
     21 N5         -2.7220    1.4831    1.0982 N.3       1 <0>         0.0000
     22 O1          1.4031   -1.1766    1.3758 O.2       1 <0>         0.0000
     23 O2         -0.0854   -2.0772    4.2509 O.3       1 <0>         0.0000
     24 S1          1.2676   -5.9028    9.1308 S.3       1 <0>         0.0000
     25 H1          2.8597   -3.5892    4.9137 H         1 <0>         0.0000
     26 H2          2.8567   -5.2493    4.3439 H         1 <0>         0.0000
     27 H3          0.9346   -4.2219    1.9783 H         1 <0>         0.0000
     28 H4          2.0561   -3.0777    2.7135 H         1 <0>         0.0000
     29 H5          1.6512   -6.0441    6.2894 H         1 <0>         0.0000
     30 H6          3.0038   -5.0575    6.8635 H         1 <0>         0.0000
     31 H7         -1.6844    0.6046    3.6050 H         1 <0>         0.0000
     32 H8         -1.9917   -1.0878    3.2743 H         1 <0>         0.0000
     33 H9          0.6486    0.8638    0.6908 H         1 <0>         0.0000
     34 H10        -0.0404    1.8501    1.9907 H         1 <0>         0.0000
     35 H11        -3.1080   -0.5626    1.1461 H         1 <0>         0.0000
     36 H12        -3.8739    0.3650    2.4441 H         1 <0>         0.0000
     37 H13        -1.2554    2.3440   -0.1269 H         1 <0>         0.0000
     38 H14        -1.5424    0.6185   -0.3873 H         1 <0>         0.0000
     39 H15         1.4679   -2.2263    6.2425 H         1 <0>         0.0000
     40 H16        -0.0980   -2.4573    7.0281 H         1 <0>         0.0000
     41 H17        -0.9609   -2.8564    2.5318 H         1 <0>         0.0000
     42 H18         0.4068   -5.2038    4.0785 H         1 <0>         0.0000
     43 H19        -0.9577   -3.7211    5.1635 H         1 <0>         0.0000
     44 H20        -0.2291   -7.1512   11.5936 H         1 <0>         0.0000
     45 H21         1.1403   -6.2413   12.2505 H         1 <0>         0.0000
     46 H22        -0.5122   -5.6119   12.4382 H         1 <0>         0.0000
     47 H23        -3.8684    2.7307    2.3279 H         1 <0>         0.0000
     48 H24        -2.7599    3.5710    1.2353 H         1 <0>         0.0000
     49 H25        -2.1381    2.8142    2.7157 H         1 <0>         0.0000
@<TRIPOS>BOND
     1    1   15 1
     2    1   17 2
     3    1   24 1
     4    2   18 2
     5    2   19 1
     6    2   24 1
     7    3   12 1
     8    3   20 am
     9    3   22 2
    10    4    6 1
    11    4   13 1
    12    4   25 1
    13    4   26 1
    14    5   12 1
    15    5   13 1
    16    5   27 1
    17    5   28 1
    18    6   19 1
    19    6   29 1
    20    6   30 1
    21    7    9 1
    22    7   20 1
    23    7   31 1
    24    7   32 1
    25    8   10 1
    26    8   20 1
    27    8   33 1
    28    8   34 1
    29    9   21 1
    30    9   35 1
    31    9   36 1
    32   10   21 1
    33   10   37 1
    34   10   38 1
    35   11   14 1
    36   11   19 1
    37   11   39 1
    38   11   40 1
    39   12   23 1
    40   12   41 1
    41   13   14 1
    42   13   42 1
    43   14   23 1
    44   14   43 1
    45   15   44 1
    46   15   45 1
    47   15   46 1
    48   16   21 1
    49   16   47 1
    50   16   48 1
    51   16   49 1
    52   17   18 1
