@<TRIPOS>MOLECULE
*****
   36    38     0     0     0
SMALL
NO_CHARGES

@<TRIPOS>ATOM
      1 C1         -4.8380    4.0752    2.2102 C.ar      1 <0>         0.0000
      2 C2         -4.3707    3.9527    3.5215 C.ar      1 <0>         0.0000
      3 C3         -5.2580    2.9410    1.5144 C.ar      1 <0>         0.0000
      4 C4         -4.3377    2.6946    4.1257 C.ar      1 <0>         0.0000
      5 C5         -5.2307    1.6598    2.0885 C.ar      1 <0>         0.0000
      6 C6         -4.7674    1.5723    3.4141 C.ar      1 <0>         0.0000
      7 C7         -4.7227   -0.7386    1.2000 C.2       1 <0>         0.0000
      8 C8         -0.6595    0.3100    1.4460 C.3       1 <0>         0.0000
      9 C9         -1.7537    1.3605    1.2021 C.3       1 <0>         0.0000
     10 C10        -1.2560   -0.9911    2.0041 C.3       1 <0>         0.0000
     11 C11        -7.1316    0.0188    1.5566 C.3       1 <0>         0.0000
     12 C12        -6.7130    0.5581    0.2198 C.3       1 <0>         0.0000
     13 C13        -2.8798    0.7653    0.3518 C.3       1 <0>         0.0000
     14 C14        -2.4002   -1.5094    1.1233 C.3       1 <0>         0.0000
     15 C15        -5.6866    0.4392    1.3433 C.3       1 <0>         0.0000
     16 N1         -3.4037   -0.4557    0.9613 N.am      1 <0>         0.0000
     17 O1         -5.1273   -1.8967    1.3260 O.2       1 <0>         0.0000
     18 Cl1        -4.7230    0.0204    4.2343 Cl        1 <0>         0.0000
     19 H1         -4.8698    5.0484    1.7280 H         1 <0>         0.0000
     20 H2         -4.0360    4.8257    4.0749 H         1 <0>         0.0000
     21 H3         -5.5997    3.0449    0.4887 H         1 <0>         0.0000
     22 H4         -3.9847    2.5768    5.1453 H         1 <0>         0.0000
     23 H5          0.1024    0.7037    2.1281 H         1 <0>         0.0000
     24 H6         -0.1509    0.0946    0.4958 H         1 <0>         0.0000
     25 H7         -2.1725    1.7005    2.1555 H         1 <0>         0.0000
     26 H8         -1.3390    2.2392    0.6944 H         1 <0>         0.0000
     27 H9         -0.4824   -1.7637    2.0844 H         1 <0>         0.0000
     28 H10        -1.6496   -0.8157    3.0124 H         1 <0>         0.0000
     29 H11        -7.7229    0.6647    2.1976 H         1 <0>         0.0000
     30 H12        -7.2999   -1.0471    1.6563 H         1 <0>         0.0000
     31 H13        -6.6113   -0.1472   -0.5991 H         1 <0>         0.0000
     32 H14        -7.0534    1.5467   -0.0710 H         1 <0>         0.0000
     33 H15        -3.6811    1.4803    0.1938 H         1 <0>         0.0000
     34 H16        -2.4853    0.5018   -0.6424 H         1 <0>         0.0000
     35 H17        -2.0177   -1.8065    0.1350 H         1 <0>         0.0000
     36 H18        -2.8902   -2.3767    1.5635 H         1 <0>         0.0000
@<TRIPOS>BOND
     1    1    2 ar
     2    1    3 ar
     3    1   19 1
     4    2    4 ar
     5    2   20 1
     6    3    5 ar
     7    3   21 1
     8    4    6 ar
     9    4   22 1
    10    5    6 ar
    11    5   15 1
    12    6   18 1
    13    7   15 1
    14    7   16 am
    15    7   17 2
    16    8   10 1
    17    8    9 1
    18    8   23 1
    19    8   24 1
    20    9   13 1
    21    9   25 1
    22    9   26 1
    23   10   14 1
    24   10   27 1
    25   10   28 1
    26   11   12 1
    27   11   15 1
    28   11   29 1
    29   11   30 1
    30   12   15 1
    31   12   31 1
    32   12   32 1
    33   13   16 1
    34   13   33 1
    35   13   34 1
    36   14   16 1
    37   14   35 1
    38   14   36 1
