@<TRIPOS>MOLECULE
*****
   41    44     0     0     0
SMALL
NO_CHARGES

@<TRIPOS>ATOM
      1 C1          3.2049    0.5099    0.7566 C.ar      1 <0>         0.0000
      2 C2          2.2426    0.2767    1.7638 C.ar      1 <0>         0.0000
      3 C3          0.4169   -4.5416   -0.6771 C.ar      1 <0>         0.0000
      4 C4          3.8549   -0.5430    0.1120 C.ar      1 <0>         0.0000
      5 C5          1.9007   -1.0176    2.1600 C.ar      1 <0>         0.0000
      6 C6         -0.5392   -3.6156   -0.2616 C.ar      1 <0>         0.0000
      7 C7          0.6068   -1.9044   -1.5550 C.ar      1 <0>         0.0000
      8 C8          1.4797   -4.1796   -1.5170 C.ar      1 <0>         0.0000
      9 C9          3.5236   -1.8497    0.4926 C.ar      1 <0>         0.0000
     10 C10         2.5515   -2.0658    1.5044 C.ar      1 <0>         0.0000
     11 C11         1.5293   -2.8584   -2.0023 C.ar      1 <0>         0.0000
     12 C12        -0.4048   -2.2911   -0.6818 C.ar      1 <0>         0.0000
     13 C13         3.2688   -3.9746    0.6380 C.2       1 <0>         0.0000
     14 C14         2.5308   -5.1879   -1.8400 C.2       1 <0>         0.0000
     15 C15         2.7450   -5.5481   -3.2879 C.3       1 <0>         0.0000
     16 C16         3.4495   -4.4024   -4.0370 C.3       1 <0>         0.0000
     17 C17         2.6471   -3.1064   -4.1110 C.3       1 <0>         0.0000
     18 C18         1.5131   -4.1605    2.4693 C.3       1 <0>         0.0000
     19 N1          3.9626   -3.0675   -0.0118 N.2       1 <0>         0.0000
     20 N2          3.3118   -5.7573   -0.9892 N.2       1 <0>         0.0000
     21 N3          2.4088   -3.4430    1.5849 N.pl3     1 <0>         0.0000
     22 N4          3.2551   -5.3677    0.3675 N.pl3     1 <0>         0.0000
     23 O1          2.5046   -2.4138   -2.8544 O.3       1 <0>         0.0000
     24 Br1        -1.6424   -0.9746   -0.0407 Br        1 <0>         0.0000
     25 H1          3.4353    1.5339    0.4749 H         1 <0>         0.0000
     26 H2          1.7485    1.1231    2.2329 H         1 <0>         0.0000
     27 H3          0.3629   -5.5650   -0.3166 H         1 <0>         0.0000
     28 H4          4.5815   -0.3692   -0.6762 H         1 <0>         0.0000
     29 H5          1.1458   -1.1914    2.9216 H         1 <0>         0.0000
     30 H6         -1.3537   -3.9113    0.3910 H         1 <0>         0.0000
     31 H7          0.7110   -0.8792   -1.8918 H         1 <0>         0.0000
     32 H8          3.3628   -6.4487   -3.3304 H         1 <0>         0.0000
     33 H9          1.7813   -5.7630   -3.7673 H         1 <0>         0.0000
     34 H10         4.4147   -4.1970   -3.5627 H         1 <0>         0.0000
     35 H11         3.6485   -4.7211   -5.0682 H         1 <0>         0.0000
     36 H12         3.1631   -2.3886   -4.7534 H         1 <0>         0.0000
     37 H13         1.6494   -3.2887   -4.5325 H         1 <0>         0.0000
     38 H14         0.5059   -3.7408    2.3986 H         1 <0>         0.0000
     39 H15         1.4871   -5.2058    2.1601 H         1 <0>         0.0000
     40 H16         1.8563   -4.0972    3.5080 H         1 <0>         0.0000
     41 H17         4.0288   -5.8418    0.8244 H         1 <0>         0.0000
@<TRIPOS>BOND
     1    1    2 ar
     2    1    4 ar
     3    1   25 1
     4    2    5 ar
     5    2   26 1
     6    3    6 ar
     7    3    8 ar
     8    3   27 1
     9    4    9 ar
    10    4   28 1
    11    5   10 ar
    12    5   29 1
    13    6   12 ar
    14    6   30 1
    15    7   11 ar
    16    7   12 ar
    17    7   31 1
    18    8   11 ar
    19    8   14 1
    20    9   10 ar
    21    9   19 1
    22   10   21 1
    23   11   23 1
    24   12   24 1
    25   13   19 2
    26   13   21 1
    27   13   22 1
    28   14   15 1
    29   14   20 2
    30   15   16 1
    31   15   32 1
    32   15   33 1
    33   16   17 1
    34   16   34 1
    35   16   35 1
    36   17   23 1
    37   17   36 1
    38   17   37 1
    39   18   21 1
    40   18   38 1
    41   18   39 1
    42   18   40 1
    43   20   22 1
    44   22   41 1
