@<TRIPOS>MOLECULE
*****
   49    52     0     0     0
SMALL
NO_CHARGES

@<TRIPOS>ATOM
      1 C1         -6.7540    3.6820   -3.1535 C.2       1 <0>         0.0000
      2 C2         -5.7842    1.4830   -3.4158 C.2       1 <0>         0.0000
      3 C3         -2.9059   -2.2824   -0.1616 C.2       1 <0>         0.0000
      4 C4         -4.6535   -1.7966   -4.6245 C.3       1 <0>         0.0000
      5 C5         -3.5399   -2.9492   -2.5610 C.3       1 <0>         0.0000
      6 C6         -5.6710   -0.8863   -3.9368 C.3       1 <0>         0.0000
      7 C7         -0.5621   -1.6250    0.4841 C.3       1 <0>         0.0000
      8 C8         -2.3511   -1.6649    2.1355 C.3       1 <0>         0.0000
      9 C9         -0.3663   -0.1314    0.7519 C.3       1 <0>         0.0000
     10 C10        -2.1388   -0.1713    2.3827 C.3       1 <0>         0.0000
     11 C11        -3.9356    0.1279   -2.5281 C.3       1 <0>         0.0000
     12 C12        -2.4238   -2.4776   -1.6159 C.3       1 <0>         0.0000
     13 C13        -3.3896   -2.0321   -3.7885 C.3       1 <0>         0.0000
     14 C14        -2.8404   -0.7521   -3.1509 C.3       1 <0>         0.0000
     15 C15        -7.1158    5.1035   -2.8553 C.3       1 <0>         0.0000
     16 C16        -0.5090    1.6105    2.4158 C.3       1 <0>         0.0000
     17 N1         -7.5088    2.8556   -3.8086 N.2       1 <0>         0.0000
     18 N2         -6.9745    1.5980   -3.9563 N.2       1 <0>         0.0000
     19 N3         -5.0114    0.3527   -3.4932 N.pl3     1 <0>         0.0000
     20 N4         -1.9454   -2.0103    0.7708 N.am      1 <0>         0.0000
     21 N5         -0.7457    0.2011    2.1264 N.3       1 <0>         0.0000
     22 O1         -4.1032   -2.3767    0.1288 O.2       1 <0>         0.0000
     23 O2         -1.9414   -1.2052   -2.1292 O.3       1 <0>         0.0000
     24 S1         -5.2252    2.9650   -2.6265 S.3       1 <0>         0.0000
     25 H1         -5.1308   -2.7537   -4.8636 H         1 <0>         0.0000
     26 H2         -4.3689   -1.3340   -5.5764 H         1 <0>         0.0000
     27 H3         -3.4300   -4.0050   -2.8193 H         1 <0>         0.0000
     28 H4         -4.5062   -2.8233   -2.0700 H         1 <0>         0.0000
     29 H5         -6.4719   -0.6155   -4.6229 H         1 <0>         0.0000
     30 H6         -6.1324   -1.3820   -3.0699 H         1 <0>         0.0000
     31 H7         -0.3017   -1.8448   -0.5481 H         1 <0>         0.0000
     32 H8          0.0973   -2.2017    1.1439 H         1 <0>         0.0000
     33 H9         -1.7375   -2.2436    2.8357 H         1 <0>         0.0000
     34 H10        -3.3978   -1.9368    2.2625 H         1 <0>         0.0000
     35 H11         0.6898    0.1229    0.6082 H         1 <0>         0.0000
     36 H12        -0.9562    0.4380    0.0097 H         1 <0>         0.0000
     37 H13        -2.8391    0.4007    1.7435 H         1 <0>         0.0000
     38 H14        -2.3779    0.0601    3.4265 H         1 <0>         0.0000
     39 H15        -4.3290   -0.3476   -1.6189 H         1 <0>         0.0000
     40 H16        -3.4876    1.0794   -2.2353 H         1 <0>         0.0000
     41 H17        -1.5738   -3.1676   -1.6317 H         1 <0>         0.0000
     42 H18        -2.6054   -2.4389   -4.4372 H         1 <0>         0.0000
     43 H19        -2.2543   -0.1583   -3.8580 H         1 <0>         0.0000
     44 H20        -7.1362    5.2938   -1.7770 H         1 <0>         0.0000
     45 H21        -6.4022    5.8014   -3.3062 H         1 <0>         0.0000
     46 H22        -8.1081    5.2994   -3.2666 H         1 <0>         0.0000
     47 H23         0.5493    1.8461    2.2636 H         1 <0>         0.0000
     48 H24        -0.7560    1.8187    3.4618 H         1 <0>         0.0000
     49 H25        -1.1080    2.2886    1.7788 H         1 <0>         0.0000
@<TRIPOS>BOND
     1    1   15 1
     2    1   17 2
     3    1   24 1
     4    2   18 2
     5    2   19 1
     6    2   24 1
     7    3   12 1
     8    3   20 am
     9    3   22 2
    10    4    6 1
    11    4   13 1
    12    4   25 1
    13    4   26 1
    14    5   12 1
    15    5   13 1
    16    5   27 1
    17    5   28 1
    18    6   19 1
    19    6   29 1
    20    6   30 1
    21    7    9 1
    22    7   20 1
    23    7   31 1
    24    7   32 1
    25    8   10 1
    26    8   20 1
    27    8   33 1
    28    8   34 1
    29    9   21 1
    30    9   35 1
    31    9   36 1
    32   10   21 1
    33   10   37 1
    34   10   38 1
    35   11   14 1
    36   11   19 1
    37   11   39 1
    38   11   40 1
    39   12   23 1
    40   12   41 1
    41   13   14 1
    42   13   42 1
    43   14   23 1
    44   14   43 1
    45   15   44 1
    46   15   45 1
    47   15   46 1
    48   16   21 1
    49   16   47 1
    50   16   48 1
    51   16   49 1
    52   17   18 1
