@<TRIPOS>MOLECULE
*****
   37    39     0     0     0
SMALL
NO_CHARGES

@<TRIPOS>ATOM
      1 C1         -1.6138    4.9234    2.0169 C.1       1 <0>         0.0000
      2 C2         -4.8045    1.2461    5.3733 C.ar      1 <0>         0.0000
      3 C3         -4.6973    3.6702    5.5733 C.ar      1 <0>         0.0000
      4 C4         -5.7122    1.1890    6.4347 C.ar      1 <0>         0.0000
      5 C5         -5.6015    3.6208    6.6376 C.ar      1 <0>         0.0000
      6 C6         -4.3082    2.4835    4.9286 C.ar      1 <0>         0.0000
      7 C7         -6.0757    2.3787    7.0684 C.ar      1 <0>         0.0000
      8 C8         -1.5358    2.4156    1.7315 C.2       1 <0>         0.0000
      9 C9         -0.5263    0.9620    0.4476 C.2       1 <0>         0.0000
     10 C10        -2.0307    3.6097    2.4162 C.2       1 <0>         0.0000
     11 C11         0.3363    0.3707   -0.6172 C.3       1 <0>         0.0000
     12 C12         0.0484    0.9299   -2.0260 C.3       1 <0>         0.0000
     13 C13         0.5851    2.3467   -2.2773 C.3       1 <0>         0.0000
     14 C14        -0.0063    3.4603   -1.4002 C.3       1 <0>         0.0000
     15 C15         0.2763    3.3165    0.0992 C.3       1 <0>         0.0000
     16 N1         -1.2680    5.9827    1.6714 N.1       1 <0>         0.0000
     17 N2         -2.0062    1.1992    2.0093 N.2       1 <0>         0.0000
     18 N3         -1.3765    0.2904    1.2004 N.2       1 <0>         0.0000
     19 N4         -2.8995    3.6108    3.4078 N.2       1 <0>         0.0000
     20 N5         -0.5761    2.3050    0.7423 N.pl3     1 <0>         0.0000
     21 N6         -3.3984    2.4814    3.8616 N.pl3     1 <0>         0.0000
     22 I1         -8.0616    2.3694    8.2515 I         1 <0>         0.0000
     23 H1         -4.4905    0.3268    4.8843 H         1 <0>         0.0000
     24 H2         -4.2978    4.6197    5.2351 H         1 <0>         0.0000
     25 H3         -6.1071    0.2323    6.7594 H         1 <0>         0.0000
     26 H4         -5.9113    4.5391    7.1252 H         1 <0>         0.0000
     27 H5          1.3963    0.5199   -0.3708 H         1 <0>         0.0000
     28 H6          0.1515   -0.7057   -0.5925 H         1 <0>         0.0000
     29 H7          0.5081    0.2544   -2.7559 H         1 <0>         0.0000
     30 H8         -1.0325    0.8975   -2.2084 H         1 <0>         0.0000
     31 H9          1.6762    2.3401   -2.1471 H         1 <0>         0.0000
     32 H10         0.4066    2.6045   -3.3275 H         1 <0>         0.0000
     33 H11         0.4206    4.4180   -1.7181 H         1 <0>         0.0000
     34 H12        -1.0898    3.5379   -1.5487 H         1 <0>         0.0000
     35 H13         1.3196    3.0286    0.2694 H         1 <0>         0.0000
     36 H14         0.1189    4.2642    0.6040 H         1 <0>         0.0000
     37 H15        -3.1189    1.5974    3.4023 H         1 <0>         0.0000
@<TRIPOS>BOND
     1    1   10 1
     2    1   16 3
     3    2    4 ar
     4    2    6 ar
     5    2   23 1
     6    3    5 ar
     7    3    6 ar
     8    3   24 1
     9    4    7 ar
    10    4   25 1
    11    5    7 ar
    12    5   26 1
    13    6   21 1
    14    7   22 1
    15    8   10 1
    16    8   17 2
    17    8   20 1
    18    9   11 1
    19    9   18 2
    20    9   20 1
    21   10   19 2
    22   11   12 1
    23   11   27 1
    24   11   28 1
    25   12   13 1
    26   12   29 1
    27   12   30 1
    28   13   14 1
    29   13   31 1
    30   13   32 1
    31   14   15 1
    32   14   33 1
    33   14   34 1
    34   15   20 1
    35   15   35 1
    36   15   36 1
    37   17   18 1
    38   19   21 1
    39   21   37 1
