@<TRIPOS>MOLECULE
*****
   41    43     0     0     0
SMALL
NO_CHARGES

@<TRIPOS>ATOM
      1 C1         -4.5702    4.4286   -2.0711 C.ar      1 <0>         0.0000
      2 C2         -4.3229    4.8828   -3.3678 C.ar      1 <0>         0.0000
      3 C3         -1.8791    1.2135   -1.0837 C.ar      1 <0>         0.0000
      4 C4         -0.8976    1.6097   -0.1790 C.ar      1 <0>         0.0000
      5 C5         -1.2558    3.5035   -3.9612 C.2       1 <0>         0.0000
      6 C6         -0.0613    3.2419   -1.7767 C.ar      1 <0>         0.0000
      7 C7         -2.4064    6.0872   -2.5309 C.ar      1 <0>         0.0000
      8 C8         -1.0548    2.8521   -2.6947 C.ar      1 <0>         0.0000
      9 C9         -2.3135    3.1925   -4.7534 C.2       1 <0>         0.0000
     10 C10        -3.7504    4.7876   -0.9916 C.ar      1 <0>         0.0000
     11 C11        -2.6640    5.6565   -1.2239 C.ar      1 <0>         0.0000
     12 C12        -3.2083    5.6910   -3.6053 C.ar      1 <0>         0.0000
     13 C13        -1.9580    1.8398   -2.3291 C.ar      1 <0>         0.0000
     14 C14         0.0007    2.6274   -0.5352 C.ar      1 <0>         0.0000
     15 C15        -3.2298    2.1082   -4.3652 C.2       1 <0>         0.0000
     16 C16        -2.6439    3.9704   -5.9826 C.2       1 <0>         0.0000
     17 C17        -4.0114    4.2300    0.3867 C.3       1 <0>         0.0000
     18 C18        -1.7488    6.0681   -0.0964 C.3       1 <0>         0.0000
     19 C19        -2.7022    3.2167   -7.2889 C.3       1 <0>         0.0000
     20 N1         -2.8550    5.2448   -6.0334 N.2       1 <0>         0.0000
     21 N2         -2.8011    6.0733   -4.9319 N.pl3     1 <0>         0.0000
     22 O1         -4.2103    1.7514   -4.9848 O.2       1 <0>         0.0000
     23 O2         -2.9538    1.4436   -3.1739 O.3       1 <0>         0.0000
     24 Br1         1.3133    3.2020    0.7381 Br        1 <0>         0.0000
     25 H1         -5.4139    3.7644   -1.8987 H         1 <0>         0.0000
     26 H2         -4.9549    4.5643   -4.1913 H         1 <0>         0.0000
     27 H3         -2.5952    0.4373   -0.8326 H         1 <0>         0.0000
     28 H4         -0.8329    1.1411    0.7973 H         1 <0>         0.0000
     29 H5         -0.5915    4.3152   -4.2455 H         1 <0>         0.0000
     30 H6          0.6263    4.0402   -2.0373 H         1 <0>         0.0000
     31 H7         -1.5348    6.7046   -2.7362 H         1 <0>         0.0000
     32 H8         -3.1585    3.6394    0.7411 H         1 <0>         0.0000
     33 H9         -4.1770    5.0256    1.1225 H         1 <0>         0.0000
     34 H10        -4.8909    3.5812    0.3893 H         1 <0>         0.0000
     35 H11        -2.2960    6.5995    0.6910 H         1 <0>         0.0000
     36 H12        -1.2773    5.1988    0.3749 H         1 <0>         0.0000
     37 H13        -0.9520    6.7262   -0.4525 H         1 <0>         0.0000
     38 H14        -3.4904    2.4590   -7.2612 H         1 <0>         0.0000
     39 H15        -2.8967    3.9145   -8.1056 H         1 <0>         0.0000
     40 H16        -1.7538    2.6984   -7.4774 H         1 <0>         0.0000
     41 H17        -3.1323    6.9893   -5.2111 H         1 <0>         0.0000
@<TRIPOS>BOND
     1    1    2 ar
     2    1   10 ar
     3    1   25 1
     4    2   12 ar
     5    2   26 1
     6    3    4 ar
     7    3   13 ar
     8    3   27 1
     9    4   14 ar
    10    4   28 1
    11    5    8 1
    12    5    9 2
    13    5   29 1
    14    6    8 ar
    15    6   14 ar
    16    6   30 1
    17    7   11 ar
    18    7   12 ar
    19    7   31 1
    20    8   13 ar
    21    9   15 1
    22    9   16 1
    23   10   11 ar
    24   10   17 1
    25   11   18 1
    26   12   21 1
    27   13   23 1
    28   14   24 1
    29   15   22 2
    30   15   23 1
    31   16   19 1
    32   16   20 2
    33   17   32 1
    34   17   33 1
    35   17   34 1
    36   18   35 1
    37   18   36 1
    38   18   37 1
    39   19   38 1
    40   19   39 1
    41   19   40 1
    42   20   21 1
    43   21   41 1
