@<TRIPOS>MOLECULE
*****
   37    39     0     0     0
SMALL
NO_CHARGES

@<TRIPOS>ATOM
      1 C1          0.2206   -4.3264    2.7778 C.2       1 <0>         0.0000
      2 C2          1.4649   -3.7777    2.5367 C.2       1 <0>         0.0000
      3 C3          0.2985    5.9731   -2.0498 C.ar      1 <0>         0.0000
      4 C4         -0.8415   -2.3788    1.7470 C.2       1 <0>         0.0000
      5 C5         -0.9331   -3.5885    2.3901 C.2       1 <0>         0.0000
      6 C6          0.8097   -0.6212    0.9818 C.2       1 <0>         0.0000
      7 C7          1.3228    5.1287   -1.6045 C.ar      1 <0>         0.0000
      8 C8         -1.0218    5.5202   -1.9244 C.ar      1 <0>         0.0000
      9 C9          2.2162   -0.6484    1.0280 C.2       1 <0>         0.0000
     10 C10         1.5841   -2.5196    1.9072 C.2       1 <0>         0.0000
     11 C11        -0.2329    3.5908   -1.0013 C.ar      1 <0>         0.0000
     12 C12        -0.1076    0.3698    0.4811 C.2       1 <0>         0.0000
     13 C13         2.7746    5.5166   -1.6902 C.3       1 <0>         0.0000
     14 C14        -2.1990    6.3451   -2.3717 C.3       1 <0>         0.0000
     15 C15         3.1440    0.4160    0.5395 C.3       1 <0>         0.0000
     16 N1          2.6670   -1.7989    1.5996 N.2       1 <0>         0.0000
     17 N2          1.0601    3.9240   -1.0742 N.ar      1 <0>         0.0000
     18 N3         -1.2941    4.3200   -1.3960 N.ar      1 <0>         0.0000
     19 N4          0.3319    1.4821   -0.0116 N.2       1 <0>         0.0000
     20 N5          0.4055   -1.8311    1.5422 N.pl3     1 <0>         0.0000
     21 N6         -0.5807    2.3644   -0.4651 N.pl3     1 <0>         0.0000
     22 I1         -2.8694   -4.7479    2.0949 I         1 <0>         0.0000
     23 H1          0.1225   -5.2892    3.2665 H         1 <0>         0.0000
     24 H2          2.3770   -4.2902    2.8250 H         1 <0>         0.0000
     25 H3          0.5189    6.9457   -2.4773 H         1 <0>         0.0000
     26 H4         -1.6990   -1.8212    1.3938 H         1 <0>         0.0000
     27 H5         -1.1839    0.1545    0.5278 H         1 <0>         0.0000
     28 H6          3.2190    5.5141   -0.6899 H         1 <0>         0.0000
     29 H7          3.3215    4.7790   -2.2858 H         1 <0>         0.0000
     30 H8          2.9067    6.5051   -2.1365 H         1 <0>         0.0000
     31 H9         -2.7654    5.8044   -3.1366 H         1 <0>         0.0000
     32 H10        -2.8767    6.5177   -1.5297 H         1 <0>         0.0000
     33 H11        -1.8862    7.3095   -2.7788 H         1 <0>         0.0000
     34 H12         2.9420    1.3703    1.0354 H         1 <0>         0.0000
     35 H13         4.1757    0.1112    0.7256 H         1 <0>         0.0000
     36 H14         3.0010    0.6012   -0.5299 H         1 <0>         0.0000
     37 H15        -1.5813    2.1692   -0.4288 H         1 <0>         0.0000
@<TRIPOS>BOND
     1    1    2 2
     2    1    5 1
     3    1   23 1
     4    2   10 1
     5    2   24 1
     6    3    8 ar
     7    3    7 ar
     8    3   25 1
     9    4    5 2
    10    4   20 1
    11    4   26 1
    12    5   22 1
    13    6    9 2
    14    6   12 1
    15    6   20 1
    16    7   13 1
    17    7   17 ar
    18    8   14 1
    19    8   18 ar
    20    9   15 1
    21    9   16 1
    22   10   16 2
    23   10   20 1
    24   11   18 ar
    25   11   17 ar
    26   11   21 1
    27   12   19 2
    28   12   27 1
    29   13   28 1
    30   13   29 1
    31   13   30 1
    32   14   31 1
    33   14   32 1
    34   14   33 1
    35   15   34 1
    36   15   35 1
    37   15   36 1
    38   19   21 1
    39   21   37 1
