@<TRIPOS>MOLECULE
*****
   36    38     0     0     0
SMALL
NO_CHARGES

@<TRIPOS>ATOM
      1 C1         -1.2155   -2.8870    5.8968 C.ar      1 <0>         0.0000
      2 C2         -1.0096   -2.9376    4.5145 C.ar      1 <0>         0.0000
      3 C3         -0.5596   -1.9318    6.6777 C.ar      1 <0>         0.0000
      4 C4          0.5131   -1.0693    4.6632 C.ar      1 <0>         0.0000
      5 C5         -0.1456   -2.0318    3.8873 C.ar      1 <0>         0.0000
      6 C6          0.2934   -1.0403    6.0339 C.ar      1 <0>         0.0000
      7 C7         -0.7200   -0.9906    1.6473 C.2       1 <0>         0.0000
      8 C8          1.6876    0.9951   -2.7902 C.3       1 <0>         0.0000
      9 C9          0.5898    0.0800   -3.3063 C.3       1 <0>         0.0000
     10 C10         1.3958   -0.9260   -1.0476 C.3       1 <0>         0.0000
     11 C11        -0.2332    1.0119   -1.0179 C.3       1 <0>         0.0000
     12 C12         0.2681   -1.8231   -0.5122 C.3       1 <0>         0.0000
     13 C13        -1.3074    0.0537   -0.4840 C.3       1 <0>         0.0000
     14 C14         0.8130    0.2494   -1.8169 C.3       1 <0>         0.0000
     15 C15         0.0712   -2.0802    2.3952 C.3       1 <0>         0.0000
     16 N1         -0.6850   -1.0382    0.2737 N.am      1 <0>         0.0000
     17 O1         -1.3640   -0.1387    2.2578 O.2       1 <0>         0.0000
     18 F1          0.9410   -0.1025    6.7776 F         1 <0>         0.0000
     19 H1         -1.8891   -3.5956    6.3711 H         1 <0>         0.0000
     20 H2         -1.5299   -3.6839    3.9191 H         1 <0>         0.0000
     21 H3         -0.6985   -1.8703    7.7527 H         1 <0>         0.0000
     22 H4          1.1774   -0.3374    4.2129 H         1 <0>         0.0000
     23 H5          2.7179    0.6695   -2.9091 H         1 <0>         0.0000
     24 H6          1.5434    2.0678   -2.8882 H         1 <0>         0.0000
     25 H7         -0.2887    0.5404   -3.7506 H         1 <0>         0.0000
     26 H8          0.8871   -0.8566   -3.7712 H         1 <0>         0.0000
     27 H9          1.9911   -0.5570   -0.2014 H         1 <0>         0.0000
     28 H10         2.0649   -1.5147   -1.6861 H         1 <0>         0.0000
     29 H11        -0.7029    1.7853   -1.6366 H         1 <0>         0.0000
     30 H12         0.2406    1.5182   -0.1673 H         1 <0>         0.0000
     31 H13        -0.2736   -2.2696   -1.3560 H         1 <0>         0.0000
     32 H14         0.6692   -2.6429    0.0814 H         1 <0>         0.0000
     33 H15        -2.0070    0.5648    0.1756 H         1 <0>         0.0000
     34 H16        -1.8654   -0.3873   -1.3196 H         1 <0>         0.0000
     35 H17         1.1367   -1.9548    2.1697 H         1 <0>         0.0000
     36 H18        -0.2142   -3.0642    2.0106 H         1 <0>         0.0000
@<TRIPOS>BOND
     1    1    2 ar
     2    1    3 ar
     3    1   19 1
     4    2    5 ar
     5    2   20 1
     6    3    6 ar
     7    3   21 1
     8    4    5 ar
     9    4    6 ar
    10    4   22 1
    11    5   15 1
    12    6   18 1
    13    7   15 1
    14    7   16 am
    15    7   17 2
    16    8    9 1
    17    8   14 1
    18    8   23 1
    19    8   24 1
    20    9   14 1
    21    9   25 1
    22    9   26 1
    23   10   12 1
    24   10   14 1
    25   10   27 1
    26   10   28 1
    27   11   13 1
    28   11   14 1
    29   11   29 1
    30   11   30 1
    31   12   16 1
    32   12   31 1
    33   12   32 1
    34   13   16 1
    35   13   33 1
    36   13   34 1
    37   15   35 1
    38   15   36 1
