@<TRIPOS>MOLECULE
*****
   49    52     0     0     0
SMALL
NO_CHARGES

@<TRIPOS>ATOM
      1 C1          0.6335    6.2998   -4.2288 C.2       1 <0>         0.0000
      2 C2         -0.2201    4.2610   -3.2469 C.2       1 <0>         0.0000
      3 C3         -2.1431   -0.5678   -0.1298 C.2       1 <0>         0.0000
      4 C4         -2.8543    1.6574   -2.7345 C.3       1 <0>         0.0000
      5 C5         -2.2352   -0.8525   -2.6709 C.3       1 <0>         0.0000
      6 C6         -2.3437    3.0328   -3.1749 C.3       1 <0>         0.0000
      7 C7         -3.7690   -1.1049    1.6252 C.3       1 <0>         0.0000
      8 C8         -3.3261   -2.8055   -0.0671 C.3       1 <0>         0.0000
      9 C9         -5.2616   -1.2148    1.3214 C.3       1 <0>         0.0000
     10 C10        -4.8294   -2.8947   -0.3428 C.3       1 <0>         0.0000
     11 C11        -0.3221    2.1848   -1.9405 C.3       1 <0>         0.0000
     12 C12        -1.3792   -1.0163   -1.3954 C.3       1 <0>         0.0000
     13 C13        -1.8758    0.5595   -3.1729 C.3       1 <0>         0.0000
     14 C14        -0.4604    0.7995   -2.5848 C.3       1 <0>         0.0000
     15 C15         0.9042    7.5874   -4.9426 C.3       1 <0>         0.0000
     16 C16        -7.0289   -2.7151    0.6328 C.3       1 <0>         0.0000
     17 N1          1.5132    5.6441   -3.5372 N.2       1 <0>         0.0000
     18 N2          1.0464    4.4864   -2.9678 N.2       1 <0>         0.0000
     19 N3         -0.9309    3.1831   -2.8268 N.pl3     1 <0>         0.0000
     20 N4         -2.9828   -1.4824    0.4493 N.am      1 <0>         0.0000
     21 N5         -5.5957   -2.5623    0.8551 N.3       1 <0>         0.0000
     22 O1         -2.0086    0.5722    0.3194 O.2       1 <0>         0.0000
     23 O2         -0.2205   -0.2295   -1.6075 O.3       1 <0>         0.0000
     24 S1         -0.9558    5.5168   -4.2574 S.3       1 <0>         0.0000
     25 H1         -2.9843    1.6355   -1.6501 H         1 <0>         0.0000
     26 H2         -3.8389    1.4924   -3.1850 H         1 <0>         0.0000
     27 H3         -1.9334   -1.6053   -3.4052 H         1 <0>         0.0000
     28 H4         -3.3069   -0.9704   -2.4880 H         1 <0>         0.0000
     29 H5         -2.4550    3.1319   -4.2641 H         1 <0>         0.0000
     30 H6         -2.9444    3.8292   -2.7120 H         1 <0>         0.0000
     31 H7         -3.4980   -0.0868    1.9011 H         1 <0>         0.0000
     32 H8         -3.5133   -1.7807    2.4507 H         1 <0>         0.0000
     33 H9         -3.0538   -3.5612    0.6809 H         1 <0>         0.0000
     34 H10        -2.7779   -3.0235   -0.9813 H         1 <0>         0.0000
     35 H11        -5.8315   -1.0079    2.2335 H         1 <0>         0.0000
     36 H12        -5.5363   -0.4463    0.5725 H         1 <0>         0.0000
     37 H13        -5.0815   -2.2221   -1.1878 H         1 <0>         0.0000
     38 H14        -5.0765   -3.9173   -0.6487 H         1 <0>         0.0000
     39 H15        -0.8122    2.1762   -0.9635 H         1 <0>         0.0000
     40 H16         0.7245    2.4475   -1.8019 H         1 <0>         0.0000
     41 H17        -1.0298   -2.0442   -1.2665 H         1 <0>         0.0000
     42 H18        -1.8223    0.5650   -4.2665 H         1 <0>         0.0000
     43 H19         0.3026    0.6850   -3.3624 H         1 <0>         0.0000
     44 H20         0.7348    7.4929   -6.0208 H         1 <0>         0.0000
     45 H21         0.2636    8.3949   -4.5719 H         1 <0>         0.0000
     46 H22         1.9478    7.8610   -4.7734 H         1 <0>         0.0000
     47 H23        -7.5690   -2.5071    1.5616 H         1 <0>         0.0000
     48 H24        -7.2491   -3.7455    0.3358 H         1 <0>         0.0000
     49 H25        -7.4186   -2.0388   -0.1513 H         1 <0>         0.0000
@<TRIPOS>BOND
     1    1   15 1
     2    1   17 2
     3    1   24 1
     4    2   18 2
     5    2   19 1
     6    2   24 1
     7    3   12 1
     8    3   20 am
     9    3   22 2
    10    4    6 1
    11    4   13 1
    12    4   25 1
    13    4   26 1
    14    5   12 1
    15    5   13 1
    16    5   27 1
    17    5   28 1
    18    6   19 1
    19    6   29 1
    20    6   30 1
    21    7    9 1
    22    7   20 1
    23    7   31 1
    24    7   32 1
    25    8   10 1
    26    8   20 1
    27    8   33 1
    28    8   34 1
    29    9   21 1
    30    9   35 1
    31    9   36 1
    32   10   21 1
    33   10   37 1
    34   10   38 1
    35   11   14 1
    36   11   19 1
    37   11   39 1
    38   11   40 1
    39   12   23 1
    40   12   41 1
    41   13   14 1
    42   13   42 1
    43   14   23 1
    44   14   43 1
    45   15   44 1
    46   15   45 1
    47   15   46 1
    48   16   21 1
    49   16   47 1
    50   16   48 1
    51   16   49 1
    52   17   18 1
