@<TRIPOS>MOLECULE
*****
   41    44     0     0     0
SMALL
NO_CHARGES

@<TRIPOS>ATOM
      1 C1          2.0284   -7.2805    6.3685 C.ar      1 <0>         0.0000
      2 C2          3.4208   -7.4491    6.2315 C.ar      1 <0>         0.0000
      3 C3          1.9239   -1.6644   -0.2492 C.ar      1 <0>         0.0000
      4 C4          1.2921   -6.5249    5.4520 C.ar      1 <0>         0.0000
      5 C5          4.1231   -6.8670    5.1701 C.ar      1 <0>         0.0000
      6 C6          0.9317   -0.7040   -0.4387 C.ar      1 <0>         0.0000
      7 C7         -0.0800   -2.1317   -2.1269 C.ar      1 <0>         0.0000
      8 C8          1.9452   -2.8664   -0.9783 C.ar      1 <0>         0.0000
      9 C9          1.9781   -5.9323    4.3851 C.ar      1 <0>         0.0000
     10 C10         3.3805   -6.1095    4.2635 C.ar      1 <0>         0.0000
     11 C11         0.9324   -3.0800   -1.9346 C.ar      1 <0>         0.0000
     12 C12        -0.0705   -0.9583   -1.3779 C.ar      1 <0>         0.0000
     13 C13         2.5738   -4.8696    2.6209 C.2       1 <0>         0.0000
     14 C14         3.0197   -3.8699   -0.7337 C.2       1 <0>         0.0000
     15 C15         3.8717   -4.3244   -1.8941 C.3       1 <0>         0.0000
     16 C16         3.1089   -5.2202   -2.8839 C.3       1 <0>         0.0000
     17 C17         1.9303   -4.5366   -3.5661 C.3       1 <0>         0.0000
     18 C18         5.1073   -5.1956    2.6483 C.3       1 <0>         0.0000
     19 N1          1.5033   -5.1558    3.3309 N.2       1 <0>         0.0000
     20 N2          3.2849   -4.3942    0.4142 N.2       1 <0>         0.0000
     21 N3          3.7472   -5.3942    3.1226 N.pl3     1 <0>         0.0000
     22 N4          2.5292   -4.0339    1.5097 N.pl3     1 <0>         0.0000
     23 O1          0.8387   -4.2357   -2.6706 O.3       1 <0>         0.0000
     24 Br1        -1.4550    0.3367   -1.6518 Br        1 <0>         0.0000
     25 H1          1.5185   -7.7515    7.2048 H         1 <0>         0.0000
     26 H2          3.9608   -8.0456    6.9618 H         1 <0>         0.0000
     27 H3          2.7015   -1.4847    0.4879 H         1 <0>         0.0000
     28 H4          0.2183   -6.3961    5.5542 H         1 <0>         0.0000
     29 H5          5.1955   -7.0086    5.0652 H         1 <0>         0.0000
     30 H6          0.9343    0.2168    0.1344 H         1 <0>         0.0000
     31 H7         -0.8541   -2.3353   -2.8586 H         1 <0>         0.0000
     32 H8          4.2587   -3.4451   -2.4262 H         1 <0>         0.0000
     33 H9          4.7241   -4.8747   -1.4877 H         1 <0>         0.0000
     34 H10         3.8000   -5.5512   -3.6695 H         1 <0>         0.0000
     35 H11         2.7500   -6.1170   -2.3674 H         1 <0>         0.0000
     36 H12         2.2463   -3.6126   -4.0677 H         1 <0>         0.0000
     37 H13         1.4918   -5.2004   -4.3152 H         1 <0>         0.0000
     38 H14         5.4019   -5.9743    1.9385 H         1 <0>         0.0000
     39 H15         5.1888   -4.2282    2.1540 H         1 <0>         0.0000
     40 H16         5.7818   -5.2124    3.5081 H         1 <0>         0.0000
     41 H17         1.5808   -3.6970    1.3385 H         1 <0>         0.0000
@<TRIPOS>BOND
     1    1    2 ar
     2    1    4 ar
     3    1   25 1
     4    2    5 ar
     5    2   26 1
     6    3    6 ar
     7    3    8 ar
     8    3   27 1
     9    4    9 ar
    10    4   28 1
    11    5   10 ar
    12    5   29 1
    13    6   12 ar
    14    6   30 1
    15    7   11 ar
    16    7   12 ar
    17    7   31 1
    18    8   11 ar
    19    8   14 1
    20    9   10 ar
    21    9   19 1
    22   10   21 1
    23   11   23 1
    24   12   24 1
    25   13   19 2
    26   13   21 1
    27   13   22 1
    28   14   15 1
    29   14   20 2
    30   15   16 1
    31   15   32 1
    32   15   33 1
    33   16   17 1
    34   16   34 1
    35   16   35 1
    36   17   23 1
    37   17   36 1
    38   17   37 1
    39   18   21 1
    40   18   38 1
    41   18   39 1
    42   18   40 1
    43   20   22 1
    44   22   41 1
