@<TRIPOS>MOLECULE
*****
   44    47     0     0     0
SMALL
NO_CHARGES

@<TRIPOS>ATOM
      1 C1         -0.7138    4.1195   -2.6002 C.ar      1 <0>         0.0000
      2 C2          1.5771    3.8373   -3.2891 C.ar      1 <0>         0.0000
      3 C3         -0.5394    5.5026   -2.5426 C.ar      1 <0>         0.0000
      4 C4          1.7712    5.2219   -3.2446 C.ar      1 <0>         0.0000
      5 C5          0.3381    3.2637   -2.9708 C.ar      1 <0>         0.0000
      6 C6          0.7063    6.0312   -2.8684 C.ar      1 <0>         0.0000
      7 C7          0.0101   -1.3497   -0.0226 C.2       1 <0>         0.0000
      8 C8         -0.8691    1.2286   -1.9849 C.2       1 <0>         0.0000
      9 C9          0.6967    0.5326    2.6298 C.3       1 <0>         0.0000
     10 C10        -0.3677   -0.5368    2.3534 C.3       1 <0>         0.0000
     11 C11         1.9523    0.4637    1.7530 C.3       1 <0>         0.0000
     12 C12        -0.0786    1.1619   -4.4158 C.3       1 <0>         0.0000
     13 C13         1.1106    0.8007   -3.5668 C.3       1 <0>         0.0000
     14 C14        -1.3762    0.7919    0.3525 C.3       1 <0>         0.0000
     15 C15         0.8538    1.7186   -0.2453 C.3       1 <0>         0.0000
     16 C16        -0.9330   -0.5930    0.9137 C.3       1 <0>         0.0000
     17 C17         1.7210    0.5033    0.2294 C.3       1 <0>         0.0000
     18 C18         0.0767    1.7862   -3.0418 C.3       1 <0>         0.0000
     19 N1          1.2157   -0.7580   -0.3046 N.am      1 <0>         0.0000
     20 N2         -0.4885    1.3542   -0.6654 N.am      1 <0>         0.0000
     21 O1         -0.2744   -2.4546   -0.4799 O.2       1 <0>         0.0000
     22 O2         -1.9407    0.7124   -2.3026 O.2       1 <0>         0.0000
     23 F1          0.8861    7.3776   -2.8158 F         1 <0>         0.0000
     24 H1         -1.6855    3.6977   -2.3588 H         1 <0>         0.0000
     25 H2          2.4148    3.2076   -3.5726 H         1 <0>         0.0000
     26 H3         -1.3497    6.1667   -2.2574 H         1 <0>         0.0000
     27 H4          2.7291    5.6697   -3.4912 H         1 <0>         0.0000
     28 H5          0.2455    1.5271    2.5389 H         1 <0>         0.0000
     29 H6          1.0044    0.4506    3.6786 H         1 <0>         0.0000
     30 H7          0.0244   -1.5286    2.6097 H         1 <0>         0.0000
     31 H8         -1.2101   -0.3579    3.0326 H         1 <0>         0.0000
     32 H9          2.6039    1.3072    2.0147 H         1 <0>         0.0000
     33 H10         2.5152   -0.4498    1.9786 H         1 <0>         0.0000
     34 H11         0.0844    1.8236   -5.2605 H         1 <0>         0.0000
     35 H12        -0.8761    0.4359   -4.5286 H         1 <0>         0.0000
     36 H13         1.1133   -0.1817   -3.1049 H         1 <0>         0.0000
     37 H14         2.0924    1.1654   -3.8526 H         1 <0>         0.0000
     38 H15        -2.3513    0.6868   -0.1178 H         1 <0>         0.0000
     39 H16        -1.4689    1.5172    1.1678 H         1 <0>         0.0000
     40 H17         0.7845    2.4579    0.5597 H         1 <0>         0.0000
     41 H18         1.3564    2.2098   -1.0714 H         1 <0>         0.0000
     42 H19        -1.8175   -1.2313    0.9435 H         1 <0>         0.0000
     43 H20         2.7073    0.6259   -0.2267 H         1 <0>         0.0000
     44 H21         1.8304   -1.3287   -0.8723 H         1 <0>         0.0000
@<TRIPOS>BOND
     1    1    3 ar
     2    1    5 ar
     3    1   24 1
     4    2    4 ar
     5    2    5 ar
     6    2   25 1
     7    3    6 ar
     8    3   26 1
     9    4    6 ar
    10    4   27 1
    11    5   18 1
    12    6   23 1
    13    7   16 1
    14    7   19 am
    15    7   21 2
    16    8   18 1
    17    8   20 am
    18    8   22 2
    19    9   10 1
    20    9   11 1
    21    9   28 1
    22    9   29 1
    23   10   16 1
    24   10   30 1
    25   10   31 1
    26   11   17 1
    27   11   32 1
    28   11   33 1
    29   12   13 1
    30   12   18 1
    31   12   34 1
    32   12   35 1
    33   13   18 1
    34   13   36 1
    35   13   37 1
    36   14   16 1
    37   14   20 1
    38   14   38 1
    39   14   39 1
    40   15   17 1
    41   15   20 1
    42   15   40 1
    43   15   41 1
    44   16   42 1
    45   17   19 1
    46   17   43 1
    47   19   44 1
