@<TRIPOS>MOLECULE
*****
   49    52     0     0     0
SMALL
NO_CHARGES

@<TRIPOS>ATOM
      1 C1          0.7267    5.0273    1.7519 C.2       1 <0>         0.0000
      2 C2          0.1342    3.6486   -0.1398 C.2       1 <0>         0.0000
      3 C3         -3.8772    0.3100   -0.2404 C.2       1 <0>         0.0000
      4 C4         -2.0167    2.7399   -3.0370 C.3       1 <0>         0.0000
      5 C5         -3.1289    0.4209   -2.6769 C.3       1 <0>         0.0000
      6 C6         -1.7822    3.3178   -1.6404 C.3       1 <0>         0.0000
      7 C7         -5.3512   -1.6206   -0.9366 C.3       1 <0>         0.0000
      8 C8         -6.0518   -0.0770    0.8085 C.3       1 <0>         0.0000
      9 C9         -6.5926   -1.2430   -1.7500 C.3       1 <0>         0.0000
     10 C10        -7.2815    0.2858   -0.0229 C.3       1 <0>         0.0000
     11 C11         0.2224    1.7801   -1.6790 C.3       1 <0>         0.0000
     12 C12        -2.8140   -0.1335   -1.2570 C.3       1 <0>         0.0000
     13 C13        -1.8605    1.2069   -3.0845 C.3       1 <0>         0.0000
     14 C14        -0.8168    0.7333   -2.0501 C.3       1 <0>         0.0000
     15 C15         0.8438    6.0023    2.8819 C.3       1 <0>         0.0000
     16 C16        -8.8979   -0.5433   -1.6188 C.3       1 <0>         0.0000
     17 N1          1.6501    4.1790    1.4180 N.2       1 <0>         0.0000
     18 N2          1.3317    3.3885    0.3412 N.2       1 <0>         0.0000
     19 N3         -0.4130    3.0150   -1.2113 N.pl3     1 <0>         0.0000
     20 N4         -4.9594   -0.5157   -0.0631 N.am      1 <0>         0.0000
     21 N5         -7.6848   -0.8422   -0.8667 N.3       1 <0>         0.0000
     22 O1         -3.7573    1.3774    0.3593 O.2       1 <0>         0.0000
     23 O2         -1.5639    0.4120   -0.8734 O.3       1 <0>         0.0000
     24 S1         -0.7168    4.9285    0.7332 S.3       1 <0>         0.0000
     25 H1         -3.0135    3.0321   -3.3830 H         1 <0>         0.0000
     26 H2         -1.2962    3.1984   -3.7241 H         1 <0>         0.0000
     27 H3         -3.3325   -0.3970   -3.3737 H         1 <0>         0.0000
     28 H4         -4.0101    1.0675   -2.6668 H         1 <0>         0.0000
     29 H5         -1.8978    4.4066   -1.6850 H         1 <0>         0.0000
     30 H6         -2.5063    2.9208   -0.9182 H         1 <0>         0.0000
     31 H7         -5.5816   -2.4941   -0.3147 H         1 <0>         0.0000
     32 H8         -4.5413   -1.8933   -1.6105 H         1 <0>         0.0000
     33 H9         -5.7051    0.7789    1.3856 H         1 <0>         0.0000
     34 H10        -6.2997   -0.8983    1.4910 H         1 <0>         0.0000
     35 H11        -6.3242   -0.4361   -2.4618 H         1 <0>         0.0000
     36 H12        -6.9141   -2.1100   -2.3382 H         1 <0>         0.0000
     37 H13        -8.1111    0.5360    0.6471 H         1 <0>         0.0000
     38 H14        -7.0553    1.1858   -0.6268 H         1 <0>         0.0000
     39 H15         0.8643    1.4032   -0.8816 H         1 <0>         0.0000
     40 H16         0.8634    1.9740   -2.5503 H         1 <0>         0.0000
     41 H17        -2.7235   -1.2263   -1.2793 H         1 <0>         0.0000
     42 H18        -1.5478    0.9164   -4.0917 H         1 <0>         0.0000
     43 H19        -0.2921   -0.1628   -2.4171 H         1 <0>         0.0000
     44 H20         0.7680    7.0369    2.5298 H         1 <0>         0.0000
     45 H21         0.0601    5.8447    3.6308 H         1 <0>         0.0000
     46 H22         1.8173    5.8630    3.3569 H         1 <0>         0.0000
     47 H23        -9.2008   -1.4225   -2.1966 H         1 <0>         0.0000
     48 H24        -8.7738    0.3043   -2.3190 H         1 <0>         0.0000
     49 H25        -9.7085   -0.2969   -0.9260 H         1 <0>         0.0000
@<TRIPOS>BOND
     1    1   15 1
     2    1   17 2
     3    1   24 1
     4    2   18 2
     5    2   19 1
     6    2   24 1
     7    3   12 1
     8    3   20 am
     9    3   22 2
    10    4    6 1
    11    4   13 1
    12    4   25 1
    13    4   26 1
    14    5   12 1
    15    5   13 1
    16    5   27 1
    17    5   28 1
    18    6   19 1
    19    6   29 1
    20    6   30 1
    21    7    9 1
    22    7   20 1
    23    7   31 1
    24    7   32 1
    25    8   10 1
    26    8   20 1
    27    8   33 1
    28    8   34 1
    29    9   21 1
    30    9   35 1
    31    9   36 1
    32   10   21 1
    33   10   37 1
    34   10   38 1
    35   11   14 1
    36   11   19 1
    37   11   39 1
    38   11   40 1
    39   12   23 1
    40   12   41 1
    41   13   14 1
    42   13   42 1
    43   14   23 1
    44   14   43 1
    45   15   44 1
    46   15   45 1
    47   15   46 1
    48   16   21 1
    49   16   47 1
    50   16   48 1
    51   16   49 1
    52   17   18 1
