@<TRIPOS>MOLECULE
*****
   51    54     0     0     0
SMALL
NO_CHARGES

@<TRIPOS>ATOM
      1 C1         -2.4038   -3.6982    2.0702 C.1       1 <0>         0.0000
      2 C2         -1.1666   -3.0941    4.0698 C.ar      1 <0>         0.0000
      3 C3         -1.5143   -2.8020    2.7401 C.ar      1 <0>         0.0000
      4 C4         -0.4026   -2.2178    4.8307 C.ar      1 <0>         0.0000
      5 C5         -0.0224   -1.0093    4.2026 C.ar      1 <0>         0.0000
      6 C6         -1.0247   -1.5857    2.1742 C.ar      1 <0>         0.0000
      7 C7         -0.3460    1.0453   -1.9231 C.2       1 <0>         0.0000
      8 C8         -2.8188    2.1513   -0.6718 C.3       1 <0>         0.0000
      9 C9         -1.9024    3.8407   -4.1491 C.3       1 <0>         0.0000
     10 C10        -1.0517    2.8233   -4.8833 C.3       1 <0>         0.0000
     11 C11        -2.6893    0.6867   -1.1269 C.3       1 <0>         0.0000
     12 C12        -1.1610   -1.3157   -1.4755 C.3       1 <0>         0.0000
     13 C13        -1.5059    2.9431   -0.8434 C.3       1 <0>         0.0000
     14 C14        -1.6002   -2.0961   -0.2304 C.3       1 <0>         0.0000
     15 C15        -0.7246    0.0867    0.4041 C.3       1 <0>         0.0000
     16 C16        -0.4040    3.7968   -3.9308 C.3       1 <0>         0.0000
     17 C17        -1.2434    0.1603   -1.0490 C.3       1 <0>         0.0000
     18 C18        -0.0225   -2.5272    6.2582 C.3       1 <0>         0.0000
     19 C19         0.7635    0.0336    4.9571 C.3       1 <0>         0.0000
     20 C20         0.2186    3.3189   -2.6264 C.3       1 <0>         0.0000
     21 N1         -3.1542   -4.4448    1.5774 N.1       1 <0>         0.0000
     22 N2         -0.3183   -0.7197    2.9331 N.ar      1 <0>         0.0000
     23 N3         -1.2348   -1.2033    0.8824 N.pl3     1 <0>         0.0000
     24 N4         -0.6261    2.3863   -1.8770 N.am      1 <0>         0.0000
     25 O1          0.5396    0.5762   -2.6415 O.2       1 <0>         0.0000
     26 H1         -1.5276   -4.0230    4.5037 H         1 <0>         0.0000
     27 H2         -3.6200    2.6326   -1.2404 H         1 <0>         0.0000
     28 H3         -3.1125    2.2032    0.3810 H         1 <0>         0.0000
     29 H4         -2.3144    4.6751   -4.7095 H         1 <0>         0.0000
     30 H5         -2.5490    3.4643   -3.3629 H         1 <0>         0.0000
     31 H6         -1.1180    1.7881   -4.5646 H         1 <0>         0.0000
     32 H7         -0.8853    2.9594   -5.9478 H         1 <0>         0.0000
     33 H8         -3.3533    0.0487   -0.5353 H         1 <0>         0.0000
     34 H9         -3.0151    0.5963   -2.1686 H         1 <0>         0.0000
     35 H10        -0.1284   -1.5492   -1.7408 H         1 <0>         0.0000
     36 H11        -1.7882   -1.5355   -2.3432 H         1 <0>         0.0000
     37 H12        -1.7264    3.9747   -1.1236 H         1 <0>         0.0000
     38 H13        -0.9618    2.9889    0.1095 H         1 <0>         0.0000
     39 H14        -2.6748   -2.2998   -0.2319 H         1 <0>         0.0000
     40 H15        -1.0835   -3.0562   -0.1453 H         1 <0>         0.0000
     41 H16         0.3722    0.1095    0.4322 H         1 <0>         0.0000
     42 H17        -1.0841    0.8913    1.0466 H         1 <0>         0.0000
     43 H18         0.1614    4.6048   -4.3913 H         1 <0>         0.0000
     44 H19         1.0653   -2.5512    6.3915 H         1 <0>         0.0000
     45 H20        -0.4140   -1.7770    6.9550 H         1 <0>         0.0000
     46 H21        -0.4150   -3.5007    6.5641 H         1 <0>         0.0000
     47 H22         1.7207   -0.3707    5.3062 H         1 <0>         0.0000
     48 H23         0.9571    0.8908    4.3111 H         1 <0>         0.0000
     49 H24         0.2193    0.3717    5.8465 H         1 <0>         0.0000
     50 H25         0.4305    4.1782   -1.9793 H         1 <0>         0.0000
     51 H26         1.1641    2.8147   -2.8376 H         1 <0>         0.0000
@<TRIPOS>BOND
     1    1    3 1
     2    1   21 3
     3    2    3 ar
     4    2    4 ar
     5    2   26 1
     6    3    6 ar
     7    4    5 ar
     8    4   18 1
     9    5   19 1
    10    5   22 ar
    11    6   22 ar
    12    6   23 1
    13    7   17 1
    14    7   24 am
    15    7   25 2
    16    8   11 1
    17    8   13 1
    18    8   27 1
    19    8   28 1
    20    9   10 1
    21    9   16 1
    22    9   29 1
    23    9   30 1
    24   10   16 1
    25   10   31 1
    26   10   32 1
    27   11   17 1
    28   11   33 1
    29   11   34 1
    30   12   14 1
    31   12   17 1
    32   12   35 1
    33   12   36 1
    34   13   24 1
    35   13   37 1
    36   13   38 1
    37   14   23 1
    38   14   39 1
    39   14   40 1
    40   15   17 1
    41   15   23 1
    42   15   41 1
    43   15   42 1
    44   16   20 1
    45   16   43 1
    46   18   44 1
    47   18   45 1
    48   18   46 1
    49   19   47 1
    50   19   48 1
    51   19   49 1
    52   20   24 1
    53   20   50 1
    54   20   51 1
