@<TRIPOS>MOLECULE
*****
   22    23     0     0     0
SMALL
NO_CHARGES

@<TRIPOS>ATOM
      1 C1         -0.4635   -0.0632   -1.8339 C.2       1 <0>         0.0000
      2 C2         -0.8739    0.4567   -0.5640 C.2       1 <0>         0.0000
      3 C3         -1.5202   -0.1778   -2.6910 C.2       1 <0>         0.0000
      4 C4         -2.2215    0.7126   -0.4853 C.2       1 <0>         0.0000
      5 C5         -0.6755   -4.0619    0.5643 C.2       1 <0>         0.0000
      6 C6         -0.5690   -1.8415    1.4311 C.2       1 <0>         0.0000
      7 C7         -0.4834   -5.4054   -0.0661 C.3       1 <0>         0.0000
      8 N1         -1.8114   -3.6485    1.0544 N.2       1 <0>         0.0000
      9 N2         -1.7581   -2.3666    1.5421 N.2       1 <0>         0.0000
     10 N3         -0.2725   -0.5628    1.9201 N.pl3     1 <0>         0.0000
     11 O1          0.1188    1.8867    1.4733 O.2       1 <0>         0.0000
     12 O2          1.5603    0.1324    0.2865 O.2       1 <0>         0.0000
     13 S1         -3.0327    0.3321   -1.9758 S.3       1 <0>         0.0000
     14 S2          0.6228   -2.8816    0.6904 S.3       1 <0>         0.0000
     15 S3          0.2791    0.6118    0.7908 S.o2      1 <0>         0.0000
     16 Cl1        -1.4819   -0.7446   -4.3208 Cl        1 <0>         0.0000
     17 Cl2        -3.1158    1.2871    0.8653 Cl        1 <0>         0.0000
     18 H1          0.5606   -0.3253   -2.0691 H         1 <0>         0.0000
     19 H2         -0.1757   -5.3110   -1.1124 H         1 <0>         0.0000
     20 H3          0.2820   -5.9852    0.4590 H         1 <0>         0.0000
     21 H4         -1.4301   -5.9471   -0.0232 H         1 <0>         0.0000
     22 H5         -1.0533   -0.1880    2.4621 H         1 <0>         0.0000
@<TRIPOS>BOND
     1    1    2 1
     2    1    3 2
     3    1   18 1
     4    2    4 2
     5    2   15 1
     6    3   13 1
     7    3   16 1
     8    4   13 1
     9    4   17 1
    10    5    7 1
    11    5    8 2
    12    5   14 1
    13    6    9 2
    14    6   10 1
    15    6   14 1
    16    7   19 1
    17    7   20 1
    18    7   21 1
    19    8    9 1
    20   10   15 1
    21   10   22 1
    22   11   15 2
    23   12   15 2
