@<TRIPOS>MOLECULE
*****
   49    52     0     0     0
SMALL
NO_CHARGES

@<TRIPOS>ATOM
      1 C1         -1.3502    2.8285    2.3109 C.2       1 <0>         0.0000
      2 C2         -1.4679    2.5299   -0.0776 C.2       1 <0>         0.0000
      3 C3         -1.5975   -0.7209   -0.7382 C.2       1 <0>         0.0000
      4 C4         -2.1289    2.4813   -3.7468 C.3       1 <0>         0.0000
      5 C5         -2.5061    0.0015   -3.0830 C.3       1 <0>         0.0000
      6 C6         -2.3352    2.9234   -2.2934 C.3       1 <0>         0.0000
      7 C7         -3.9982   -1.4929   -0.7826 C.3       1 <0>         0.0000
      8 C8         -3.0076   -0.5852    1.2626 C.3       1 <0>         0.0000
      9 C9         -4.4536   -2.7168    0.0170 C.3       1 <0>         0.0000
     10 C10        -3.4859   -1.8186    2.0223 C.3       1 <0>         0.0000
     11 C11        -0.0490    1.9198   -2.0194 C.3       1 <0>         0.0000
     12 C12        -1.5000   -0.8678   -2.2793 C.3       1 <0>         0.0000
     13 C13        -1.6284    1.0366   -3.8283 C.3       1 <0>         0.0000
     14 C14        -0.2518    0.8872   -3.1514 C.3       1 <0>         0.0000
     15 C15        -1.0131    2.9121    3.7674 C.3       1 <0>         0.0000
     16 C16        -5.2186   -3.4984    2.1665 C.3       1 <0>         0.0000
     17 N1         -2.5471    2.9909    1.8295 N.2       1 <0>         0.0000
     18 N2         -2.6268    2.8376    0.4671 N.2       1 <0>         0.0000
     19 N3         -1.3204    2.3140   -1.4189 N.pl3     1 <0>         0.0000
     20 N4         -2.8249   -0.8909   -0.1586 N.am      1 <0>         0.0000
     21 N5         -4.7015   -2.3635    1.4117 N.3       1 <0>         0.0000
     22 O1         -0.5963   -0.4347   -0.0828 O.2       1 <0>         0.0000
     23 O2         -0.2034   -0.4717   -2.7129 O.3       1 <0>         0.0000
     24 S1         -0.1452    2.4526    1.0826 S.3       1 <0>         0.0000
     25 H1         -3.0723    2.6021   -4.2891 H         1 <0>         0.0000
     26 H2         -1.4009    3.1330   -4.2442 H         1 <0>         0.0000
     27 H3         -3.0752   -0.6073   -3.7904 H         1 <0>         0.0000
     28 H4         -3.2221    0.4889   -2.4214 H         1 <0>         0.0000
     29 H5         -2.2979    4.0184   -2.2087 H         1 <0>         0.0000
     30 H6         -3.3169    2.6202   -1.9249 H         1 <0>         0.0000
     31 H7         -3.7769   -1.7989   -1.8040 H         1 <0>         0.0000
     32 H8         -4.8135   -0.7582   -0.8139 H         1 <0>         0.0000
     33 H9         -3.7433    0.2218    1.3519 H         1 <0>         0.0000
     34 H10        -2.0553   -0.2338    1.6557 H         1 <0>         0.0000
     35 H11        -5.3816   -3.1018   -0.4208 H         1 <0>         0.0000
     36 H12        -3.6845   -3.5103   -0.0732 H         1 <0>         0.0000
     37 H13        -2.6740   -2.5713    2.0452 H         1 <0>         0.0000
     38 H14        -3.7097   -1.5371    3.0569 H         1 <0>         0.0000
     39 H15         0.5786    1.4538   -1.2604 H         1 <0>         0.0000
     40 H16         0.4800    2.7997   -2.4181 H         1 <0>         0.0000
     41 H17        -1.5956   -1.9307   -2.5280 H         1 <0>         0.0000
     42 H18        -1.5320    0.7405   -4.8765 H         1 <0>         0.0000
     43 H19         0.5730    0.9975   -3.8615 H         1 <0>         0.0000
     44 H20        -0.6147    1.9621    4.1400 H         1 <0>         0.0000
     45 H21        -0.2655    3.6879    3.9642 H         1 <0>         0.0000
     46 H22        -1.9240    3.1537    4.3193 H         1 <0>         0.0000
     47 H23        -6.1510   -3.8507    1.7134 H         1 <0>         0.0000
     48 H24        -5.4369   -3.1876    3.1931 H         1 <0>         0.0000
     49 H25        -4.5116   -4.3489    2.2073 H         1 <0>         0.0000
@<TRIPOS>BOND
     1    1   15 1
     2    1   17 2
     3    1   24 1
     4    2   18 2
     5    2   19 1
     6    2   24 1
     7    3   12 1
     8    3   20 am
     9    3   22 2
    10    4    6 1
    11    4   13 1
    12    4   25 1
    13    4   26 1
    14    5   12 1
    15    5   13 1
    16    5   27 1
    17    5   28 1
    18    6   19 1
    19    6   29 1
    20    6   30 1
    21    7    9 1
    22    7   20 1
    23    7   31 1
    24    7   32 1
    25    8   10 1
    26    8   20 1
    27    8   33 1
    28    8   34 1
    29    9   21 1
    30    9   35 1
    31    9   36 1
    32   10   21 1
    33   10   37 1
    34   10   38 1
    35   11   14 1
    36   11   19 1
    37   11   39 1
    38   11   40 1
    39   12   23 1
    40   12   41 1
    41   13   14 1
    42   13   42 1
    43   14   23 1
    44   14   43 1
    45   15   44 1
    46   15   45 1
    47   15   46 1
    48   16   21 1
    49   16   47 1
    50   16   48 1
    51   16   49 1
    52   17   18 1
