@<TRIPOS>MOLECULE
*****
   31    33     0     0     0
SMALL
NO_CHARGES

@<TRIPOS>ATOM
      1 C1         10.0595    3.7874   -1.8446 C.ar      1 <0>         0.0000
      2 C2          9.6564    5.0016   -1.2379 C.ar      1 <0>         0.0000
      3 C3          9.5561    2.5824   -1.3910 C.ar      1 <0>         0.0000
      4 C4          7.7110   -1.5315    3.5807 C.ar      1 <0>         0.0000
      5 C5          8.7700    4.9970   -0.1789 C.ar      1 <0>         0.0000
      6 C6          8.3126   -1.2169    4.7959 C.ar      1 <0>         0.0000
      7 C7          9.4786   -0.3864    2.3987 C.ar      1 <0>         0.0000
      8 C8          6.9494    2.6309    1.7923 C.ar      1 <0>         0.0000
      9 C9          8.6288    2.5550   -0.3195 C.ar      1 <0>         0.0000
     10 C10         8.2718   -1.1029    2.3671 C.ar      1 <0>         0.0000
     11 C11         8.2426    3.7742    0.3086 C.ar      1 <0>         0.0000
     12 C12         9.5077   -0.4924    4.8213 C.ar      1 <0>         0.0000
     13 C13        10.0958   -0.0890    3.6110 C.ar      1 <0>         0.0000
     14 C14         8.0282    1.3646    0.2267 C.ar      1 <0>         0.0000
     15 C15         7.5955   -1.4992    1.1193 C.2       1 <0>         0.0000
     16 N1          7.3857    3.7996    1.3804 N.ar      1 <0>         0.0000
     17 N2          7.2227    1.4053    1.2710 N.ar      1 <0>         0.0000
     18 N3          7.6254   -1.0388   -0.0830 N.2       1 <0>         0.0000
     19 N4          8.3408    0.1349   -0.3508 N.pl3     1 <0>         0.0000
     20 Cl1        10.2358   -0.1163    6.3597 Cl        1 <0>         0.0000
     21 Cl2        11.5980    0.8018    3.5865 Cl        1 <0>         0.0000
     22 H1         10.7742    3.8037   -2.6627 H         1 <0>         0.0000
     23 H2         10.0587    5.9424   -1.6044 H         1 <0>         0.0000
     24 H3          9.9018    1.6597   -1.8489 H         1 <0>         0.0000
     25 H4          6.7861   -2.1021    3.5761 H         1 <0>         0.0000
     26 H5          8.4584    5.9144    0.3112 H         1 <0>         0.0000
     27 H6          7.8665   -1.5328    5.7334 H         1 <0>         0.0000
     28 H7          9.9520   -0.0659    1.4795 H         1 <0>         0.0000
     29 H8          6.2806    2.6263    2.6516 H         1 <0>         0.0000
     30 H9          6.9678   -2.3874    1.2037 H         1 <0>         0.0000
     31 H10         8.4788    0.1977   -1.3526 H         1 <0>         0.0000
@<TRIPOS>BOND
     1    1    2 ar
     2    1    3 ar
     3    1   22 1
     4    2    5 ar
     5    2   23 1
     6    3    9 ar
     7    3   24 1
     8    4    6 ar
     9    4   10 ar
    10    4   25 1
    11    5   11 ar
    12    5   26 1
    13    6   12 ar
    14    6   27 1
    15    7   10 ar
    16    7   13 ar
    17    7   28 1
    18    8   16 ar
    19    8   17 ar
    20    8   29 1
    21    9   11 ar
    22    9   14 ar
    23   10   15 1
    24   11   16 ar
    25   12   13 ar
    26   12   20 1
    27   13   21 1
    28   14   17 ar
    29   14   19 1
    30   15   18 2
    31   15   30 1
    32   18   19 1
    33   19   31 1
