@<TRIPOS>MOLECULE
*****
   49    52     0     0     0
SMALL
NO_CHARGES

@<TRIPOS>ATOM
      1 C1          2.3485   -4.2320   -1.6057 C.2       1 <0>         0.0000
      2 C2          0.6543   -5.6654   -0.6454 C.2       1 <0>         0.0000
      3 C3         -1.4550   -2.5216    0.6497 C.2       1 <0>         0.0000
      4 C4         -2.5507   -5.4177   -0.8054 C.3       1 <0>         0.0000
      5 C5         -3.3657   -4.1396    1.2600 C.3       1 <0>         0.0000
      6 C6         -1.5819   -6.5307   -1.2079 C.3       1 <0>         0.0000
      7 C7          0.4720   -1.3122   -0.2207 C.3       1 <0>         0.0000
      8 C8          0.7000   -2.4403    1.9660 C.3       1 <0>         0.0000
      9 C9          1.2014   -0.0962    0.3655 C.3       1 <0>         0.0000
     10 C10         1.4242   -1.1840    2.4788 C.3       1 <0>         0.0000
     11 C11        -0.6918   -6.7903    1.0439 C.3       1 <0>         0.0000
     12 C12        -2.0385   -3.4962    1.6994 C.3       1 <0>         0.0000
     13 C13        -2.9306   -5.5022    0.6878 C.3       1 <0>         0.0000
     14 C14        -1.7444   -5.8370    1.6122 C.3       1 <0>         0.0000
     15 C15         3.2380   -3.3514   -2.4263 C.3       1 <0>         0.0000
     16 C16         3.3582   -1.0818    0.9862 C.3       1 <0>         0.0000
     17 N1          2.5871   -4.5713   -0.3750 N.2       1 <0>         0.0000
     18 N2          1.6312   -5.3821    0.1859 N.2       1 <0>         0.0000
     19 N3         -0.3877   -6.5076   -0.3603 N.pl3     1 <0>         0.0000
     20 N4         -0.1814   -2.0830    0.8445 N.am      1 <0>         0.0000
     21 N5          2.1323   -0.4253    1.4467 N.3       1 <0>         0.0000
     22 O1         -2.1389   -2.1708   -0.3222 O.2       1 <0>         0.0000
     23 O2         -1.1160   -4.5829    1.9085 O.3       1 <0>         0.0000
     24 S1          0.8407   -4.9031   -2.2314 S.3       1 <0>         0.0000
     25 H1         -2.0949   -4.4515   -1.0298 H         1 <0>         0.0000
     26 H2         -3.4621   -5.4751   -1.4113 H         1 <0>         0.0000
     27 H3         -4.0100   -4.2824    2.1330 H         1 <0>         0.0000
     28 H4         -3.8858   -3.5147    0.5334 H         1 <0>         0.0000
     29 H5         -2.0438   -7.5180   -1.0851 H         1 <0>         0.0000
     30 H6         -1.2908   -6.4484   -2.2583 H         1 <0>         0.0000
     31 H7         -0.2939   -1.0062   -0.9329 H         1 <0>         0.0000
     32 H8          1.1801   -1.9696   -0.7388 H         1 <0>         0.0000
     33 H9          1.4076   -3.2073    1.6363 H         1 <0>         0.0000
     34 H10         0.1194   -2.8766    2.7755 H         1 <0>         0.0000
     35 H11         1.7464    0.4220   -0.4312 H         1 <0>         0.0000
     36 H12         0.4547    0.6027    0.7634 H         1 <0>         0.0000
     37 H13         0.6856   -0.5140    2.9386 H         1 <0>         0.0000
     38 H14         2.1360   -1.4762    3.2583 H         1 <0>         0.0000
     39 H15         0.2253   -6.7199    1.6279 H         1 <0>         0.0000
     40 H16        -1.0684   -7.8184    1.1061 H         1 <0>         0.0000
     41 H17        -2.1618   -2.9565    2.6471 H         1 <0>         0.0000
     42 H18        -3.7158   -6.2553    0.8168 H         1 <0>         0.0000
     43 H19        -2.1255   -6.2724    2.5496 H         1 <0>         0.0000
     44 H20         3.6027   -3.8705   -3.3190 H         1 <0>         0.0000
     45 H21         2.7144   -2.4471   -2.7554 H         1 <0>         0.0000
     46 H22         4.0942   -3.0594   -1.8150 H         1 <0>         0.0000
     47 H23         3.8491   -0.4377    0.2485 H         1 <0>         0.0000
     48 H24         3.2170   -2.0772    0.5380 H         1 <0>         0.0000
     49 H25         4.0404   -1.1947    1.8355 H         1 <0>         0.0000
@<TRIPOS>BOND
     1    1   15 1
     2    1   17 2
     3    1   24 1
     4    2   18 2
     5    2   19 1
     6    2   24 1
     7    3   12 1
     8    3   20 am
     9    3   22 2
    10    4    6 1
    11    4   13 1
    12    4   25 1
    13    4   26 1
    14    5   12 1
    15    5   13 1
    16    5   27 1
    17    5   28 1
    18    6   19 1
    19    6   29 1
    20    6   30 1
    21    7    9 1
    22    7   20 1
    23    7   31 1
    24    7   32 1
    25    8   10 1
    26    8   20 1
    27    8   33 1
    28    8   34 1
    29    9   21 1
    30    9   35 1
    31    9   36 1
    32   10   21 1
    33   10   37 1
    34   10   38 1
    35   11   14 1
    36   11   19 1
    37   11   39 1
    38   11   40 1
    39   12   23 1
    40   12   41 1
    41   13   14 1
    42   13   42 1
    43   14   23 1
    44   14   43 1
    45   15   44 1
    46   15   45 1
    47   15   46 1
    48   16   21 1
    49   16   47 1
    50   16   48 1
    51   16   49 1
    52   17   18 1
