@<TRIPOS>MOLECULE
*****
   41    43     0     0     0
SMALL
NO_CHARGES

@<TRIPOS>ATOM
      1 C1         -5.4108    5.3343   -2.7241 C.ar      1 <0>         0.0000
      2 C2         -5.3943    5.1514   -4.1107 C.ar      1 <0>         0.0000
      3 C3         -1.8845    3.1294   -0.9771 C.ar      1 <0>         0.0000
      4 C4         -2.8984    2.3952   -0.3682 C.ar      1 <0>         0.0000
      5 C5         -2.9371    3.0862   -4.5553 C.2       1 <0>         0.0000
      6 C6         -3.9468    2.0168   -2.5299 C.ar      1 <0>         0.0000
      7 C7         -3.3305    6.3968   -4.2205 C.ar      1 <0>         0.0000
      8 C8         -2.9317    2.7669   -3.1532 C.ar      1 <0>         0.0000
      9 C9         -2.0201    3.9352   -5.0868 C.2       1 <0>         0.0000
     10 C10        -4.3712    5.9932   -2.0624 C.ar      1 <0>         0.0000
     11 C11        -3.3159    6.5420   -2.8305 C.ar      1 <0>         0.0000
     12 C12        -4.3382    5.6665   -4.8627 C.ar      1 <0>         0.0000
     13 C13        -1.9113    3.3182   -2.3604 C.ar      1 <0>         0.0000
     14 C14        -3.9249    1.8485   -1.1541 C.ar      1 <0>         0.0000
     15 C15        -0.9368    4.4690   -4.2469 C.2       1 <0>         0.0000
     16 C16        -2.1244    4.4472   -6.4837 C.2       1 <0>         0.0000
     17 C17        -4.3647    6.0963   -0.5568 C.3       1 <0>         0.0000
     18 C18        -2.1642    7.2510   -2.1611 C.3       1 <0>         0.0000
     19 C19        -0.9651    4.1850   -7.4129 C.3       1 <0>         0.0000
     20 N1         -3.1388    5.0800   -6.9768 N.2       1 <0>         0.0000
     21 N2         -4.2850    5.3633   -6.2667 N.pl3     1 <0>         0.0000
     22 O1         -0.0705    5.2393   -4.6072 O.2       1 <0>         0.0000
     23 O2         -0.9157    4.0708   -2.9132 O.3       1 <0>         0.0000
     24 Br1        -5.3337    0.8715   -0.2977 Br        1 <0>         0.0000
     25 H1         -6.2259    4.9091   -2.1431 H         1 <0>         0.0000
     26 H2         -6.1706    4.5731   -4.6048 H         1 <0>         0.0000
     27 H3         -1.0803    3.5687   -0.3953 H         1 <0>         0.0000
     28 H4         -2.8993    2.2520    0.7072 H         1 <0>         0.0000
     29 H5         -3.7453    2.7098   -5.1766 H         1 <0>         0.0000
     30 H6         -4.7533    1.6052   -3.1284 H         1 <0>         0.0000
     31 H7         -2.5148    6.8072   -4.8091 H         1 <0>         0.0000
     32 H8         -3.4737    5.6203   -0.1317 H         1 <0>         0.0000
     33 H9         -4.3609    7.1399   -0.2211 H         1 <0>         0.0000
     34 H10        -5.2410    5.6062   -0.1251 H         1 <0>         0.0000
     35 H11        -2.5061    8.1090   -1.5709 H         1 <0>         0.0000
     36 H12        -1.6363    6.5785   -1.4750 H         1 <0>         0.0000
     37 H13        -1.4371    7.6053   -2.8948 H         1 <0>         0.0000
     38 H14        -0.7595    3.1094   -7.4791 H         1 <0>         0.0000
     39 H15        -1.1998    4.5661   -8.4086 H         1 <0>         0.0000
     40 H16        -0.0576    4.6701   -7.0418 H         1 <0>         0.0000
     41 H17        -4.8758    5.9553   -6.8383 H         1 <0>         0.0000
@<TRIPOS>BOND
     1    1    2 ar
     2    1   10 ar
     3    1   25 1
     4    2   12 ar
     5    2   26 1
     6    3    4 ar
     7    3   13 ar
     8    3   27 1
     9    4   14 ar
    10    4   28 1
    11    5    8 1
    12    5    9 2
    13    5   29 1
    14    6    8 ar
    15    6   14 ar
    16    6   30 1
    17    7   11 ar
    18    7   12 ar
    19    7   31 1
    20    8   13 ar
    21    9   15 1
    22    9   16 1
    23   10   11 ar
    24   10   17 1
    25   11   18 1
    26   12   21 1
    27   13   23 1
    28   14   24 1
    29   15   22 2
    30   15   23 1
    31   16   19 1
    32   16   20 2
    33   17   32 1
    34   17   33 1
    35   17   34 1
    36   18   35 1
    37   18   36 1
    38   18   37 1
    39   19   38 1
    40   19   39 1
    41   19   40 1
    42   20   21 1
    43   21   41 1
