@<TRIPOS>MOLECULE
*****
   37    39     0     0     0
SMALL
NO_CHARGES

@<TRIPOS>ATOM
      1 C1         -1.0991    5.1992    2.4304 C.1       1 <0>         0.0000
      2 C2          2.3957    2.5920    6.4252 C.ar      1 <0>         0.0000
      3 C3          1.6028    4.8933    6.4723 C.ar      1 <0>         0.0000
      4 C4          3.0762    2.7914    7.6298 C.ar      1 <0>         0.0000
      5 C5          2.2836    5.1014    7.6748 C.ar      1 <0>         0.0000
      6 C6          1.6449    3.6327    5.8522 C.ar      1 <0>         0.0000
      7 C7          3.0305    4.0547    8.2223 C.ar      1 <0>         0.0000
      8 C8         -0.2966    2.8180    2.1802 C.2       1 <0>         0.0000
      9 C9         -0.5234    1.1730    0.7577 C.2       1 <0>         0.0000
     10 C10        -0.3364    4.0836    2.9127 C.2       1 <0>         0.0000
     11 C11        -0.9585    0.3720   -0.4240 C.3       1 <0>         0.0000
     12 C12        -2.4908    0.2937   -0.5857 C.3       1 <0>         0.0000
     13 C13        -3.1469    1.5749   -1.1210 C.3       1 <0>         0.0000
     14 C14        -3.0134    2.8243   -0.2374 C.3       1 <0>         0.0000
     15 C15        -1.5759    3.3133   -0.0286 C.3       1 <0>         0.0000
     16 N1         -1.7320    6.0912    2.0240 N.1       1 <0>         0.0000
     17 N2          0.3133    1.7390    2.6720 N.2       1 <0>         0.0000
     18 N3          0.1659    0.7081    1.7820 N.2       1 <0>         0.0000
     19 N4          0.2714    4.3167    4.0593 N.2       1 <0>         0.0000
     20 N5         -0.8368    2.4992    0.9480 N.pl3     1 <0>         0.0000
     21 N6          0.9845    3.3772    4.6419 N.pl3     1 <0>         0.0000
     22 I1          3.4865    4.1660   10.4868 I         1 <0>         0.0000
     23 H1          2.4412    1.6215    5.9364 H         1 <0>         0.0000
     24 H2          1.0347    5.6963    6.0162 H         1 <0>         0.0000
     25 H3          3.6367    1.9774    8.0769 H         1 <0>         0.0000
     26 H4          2.2386    6.0711    8.1592 H         1 <0>         0.0000
     27 H5         -0.5113    0.7783   -1.3413 H         1 <0>         0.0000
     28 H6         -0.5418   -0.6277   -0.2814 H         1 <0>         0.0000
     29 H7         -2.7140   -0.5226   -1.2815 H         1 <0>         0.0000
     30 H8         -2.9369    0.0144    0.3764 H         1 <0>         0.0000
     31 H9         -2.7278    1.7999   -2.1116 H         1 <0>         0.0000
     32 H10        -4.2133    1.3785   -1.2804 H         1 <0>         0.0000
     33 H11        -3.5679    3.6442   -0.7070 H         1 <0>         0.0000
     34 H12        -3.4748    2.6577    0.7431 H         1 <0>         0.0000
     35 H13        -1.0189    3.2876   -0.9718 H         1 <0>         0.0000
     36 H14        -1.5748    4.3423    0.3161 H         1 <0>         0.0000
     37 H15         1.0321    2.4446    4.1963 H         1 <0>         0.0000
@<TRIPOS>BOND
     1    1   10 1
     2    1   16 3
     3    2    4 ar
     4    2    6 ar
     5    2   23 1
     6    3    5 ar
     7    3    6 ar
     8    3   24 1
     9    4    7 ar
    10    4   25 1
    11    5    7 ar
    12    5   26 1
    13    6   21 1
    14    7   22 1
    15    8   10 1
    16    8   17 2
    17    8   20 1
    18    9   11 1
    19    9   18 2
    20    9   20 1
    21   10   19 2
    22   11   12 1
    23   11   27 1
    24   11   28 1
    25   12   13 1
    26   12   29 1
    27   12   30 1
    28   13   14 1
    29   13   31 1
    30   13   32 1
    31   14   15 1
    32   14   33 1
    33   14   34 1
    34   15   20 1
    35   15   35 1
    36   15   36 1
    37   17   18 1
    38   19   21 1
    39   21   37 1
