@<TRIPOS>MOLECULE
*****
   37    39     0     0     0
SMALL
NO_CHARGES

@<TRIPOS>ATOM
      1 C1          0.0954    1.9121    3.2726 C.1       1 <0>         0.0000
      2 C2          1.3824   -2.2005    7.0495 C.ar      1 <0>         0.0000
      3 C3          2.5612   -1.4040    5.0841 C.ar      1 <0>         0.0000
      4 C4          2.1352   -3.3769    7.0425 C.ar      1 <0>         0.0000
      5 C5          3.3072   -2.5871    5.0638 C.ar      1 <0>         0.0000
      6 C6          1.5807   -1.2164    6.0699 C.ar      1 <0>         0.0000
      7 C7          3.1062   -3.5545    6.0536 C.ar      1 <0>         0.0000
      8 C8          0.2698   -0.5588    3.3425 C.2       1 <0>         0.0000
      9 C9          0.3604   -2.1267    1.8330 C.2       1 <0>         0.0000
     10 C10         0.3801    0.7289    4.0445 C.2       1 <0>         0.0000
     11 C11         0.6869   -2.8926    0.5941 C.3       1 <0>         0.0000
     12 C12         2.1958   -3.1111    0.3738 C.3       1 <0>         0.0000
     13 C13         2.9673   -1.8563   -0.0582 C.3       1 <0>         0.0000
     14 C14         3.0109   -0.7089    0.9620 C.3       1 <0>         0.0000
     15 C15         1.6660   -0.0323    1.2515 C.3       1 <0>         0.0000
     16 N1         -0.1072    2.8238    2.5739 N.1       1 <0>         0.0000
     17 N2         -0.4071   -1.5964    3.8036 N.2       1 <0>         0.0000
     18 N3         -0.3498   -2.5849    2.8506 N.2       1 <0>         0.0000
     19 N4          0.5547    0.9442    5.3214 N.2       1 <0>         0.0000
     20 N5          0.7808   -0.8454    2.0913 N.pl3     1 <0>         0.0000
     21 N6          0.8433   -0.0078    6.2086 N.pl3     1 <0>         0.0000
     22 I1          3.8417   -5.6392    5.6541 I         1 <0>         0.0000
     23 H1          0.6204   -2.0540    7.8109 H         1 <0>         0.0000
     24 H2          2.7615   -0.6389    4.3426 H         1 <0>         0.0000
     25 H3          1.9673   -4.1301    7.8054 H         1 <0>         0.0000
     26 H4          4.0524   -2.7373    4.2890 H         1 <0>         0.0000
     27 H5          0.1768   -3.8540    0.6896 H         1 <0>         0.0000
     28 H6          0.2584   -2.3858   -0.2813 H         1 <0>         0.0000
     29 H7          2.6346   -3.5265    1.2891 H         1 <0>         0.0000
     30 H8          2.3171   -3.8734   -0.4038 H         1 <0>         0.0000
     31 H9          3.9989   -2.1451   -0.2902 H         1 <0>         0.0000
     32 H10         2.5392   -1.4771   -0.9965 H         1 <0>         0.0000
     33 H11         3.4447   -1.0591    1.9071 H         1 <0>         0.0000
     34 H12         3.6811    0.0695    0.5792 H         1 <0>         0.0000
     35 H13         1.8310    0.9118    1.7686 H         1 <0>         0.0000
     36 H14         1.1436    0.2065    0.3187 H         1 <0>         0.0000
     37 H15         0.8367    0.3727    7.1473 H         1 <0>         0.0000
@<TRIPOS>BOND
     1    1   10 1
     2    1   16 3
     3    2    4 ar
     4    2    6 ar
     5    2   23 1
     6    3    5 ar
     7    3    6 ar
     8    3   24 1
     9    4    7 ar
    10    4   25 1
    11    5    7 ar
    12    5   26 1
    13    6   21 1
    14    7   22 1
    15    8   10 1
    16    8   17 2
    17    8   20 1
    18    9   11 1
    19    9   18 2
    20    9   20 1
    21   10   19 2
    22   11   12 1
    23   11   27 1
    24   11   28 1
    25   12   13 1
    26   12   29 1
    27   12   30 1
    28   13   14 1
    29   13   31 1
    30   13   32 1
    31   14   15 1
    32   14   33 1
    33   14   34 1
    34   15   20 1
    35   15   35 1
    36   15   36 1
    37   17   18 1
    38   19   21 1
    39   21   37 1
