@<TRIPOS>MOLECULE
*****
   35    37     0     0     0
SMALL
NO_CHARGES

@<TRIPOS>ATOM
      1 C1         -1.5499   -2.5615    0.7977 C.ar      1 <0>         0.0000
      2 C2         -0.7206   -1.5387    0.2781 C.ar      1 <0>         0.0000
      3 C3         -1.0443   -3.8350    0.9461 C.ar      1 <0>         0.0000
      4 C4          0.5898   -1.8003   -0.0706 C.ar      1 <0>         0.0000
      5 C5          0.8155   -5.4497    0.7340 C.ar      1 <0>         0.0000
      6 C6          2.1121   -5.7392    0.3824 C.ar      1 <0>         0.0000
      7 C7          0.3000   -4.1327    0.5956 C.ar      1 <0>         0.0000
      8 C8          1.1524   -3.0984    0.0898 C.ar      1 <0>         0.0000
      9 C9          2.5155   -3.4125   -0.2654 C.ar      1 <0>         0.0000
     10 C10         5.3075   -1.4600   -1.7101 C.ar      1 <0>         0.0000
     11 C11         2.9674   -4.7284   -0.1225 C.ar      1 <0>         0.0000
     12 C12         5.8212   -0.5785   -0.7404 C.ar      1 <0>         0.0000
     13 C13         5.8211   -1.3257   -3.0136 C.ar      1 <0>         0.0000
     14 C14         6.7838    0.3803   -1.0486 C.ar      1 <0>         0.0000
     15 C15         6.7674   -0.3602   -3.3408 C.ar      1 <0>         0.0000
     16 C16         7.2547    0.4983   -2.3546 C.ar      1 <0>         0.0000
     17 C17         3.4167   -2.3333   -0.6759 C.2       1 <0>         0.0000
     18 C18         4.5274   -5.5869   -1.6834 C.3       1 <0>         0.0000
     19 N1          4.4302   -2.5116   -1.4491 N.2       1 <0>         0.0000
     20 O1          4.2697   -5.0779   -0.3635 O.3       1 <0>         0.0000
     21 F1          5.4169   -0.6763    0.5419 F         1 <0>         0.0000
     22 F2          5.3785   -2.1427   -3.9827 F         1 <0>         0.0000
     23 F3          7.2577    1.1934   -0.0921 F         1 <0>         0.0000
     24 F4          7.2169   -0.2503   -4.5999 F         1 <0>         0.0000
     25 F5          8.1690    1.4286   -2.6620 F         1 <0>         0.0000
     26 H1         -2.5791   -2.3416    1.0672 H         1 <0>         0.0000
     27 H2         -1.1220   -0.5377    0.1435 H         1 <0>         0.0000
     28 H3         -1.6714   -4.6356    1.3312 H         1 <0>         0.0000
     29 H4          1.1814   -0.9959   -0.4936 H         1 <0>         0.0000
     30 H5          0.1681   -6.2295    1.1283 H         1 <0>         0.0000
     31 H6          2.5229   -6.7374    0.5032 H         1 <0>         0.0000
     32 H7          3.1812   -1.3412   -0.2800 H         1 <0>         0.0000
     33 H8          5.5867   -5.8483   -1.7025 H         1 <0>         0.0000
     34 H9          4.3247   -4.8188   -2.4342 H         1 <0>         0.0000
     35 H10         3.9234   -6.4828   -1.8756 H         1 <0>         0.0000
@<TRIPOS>BOND
     1    1    2 ar
     2    1    3 ar
     3    1   26 1
     4    2    4 ar
     5    2   27 1
     6    3    7 ar
     7    3   28 1
     8    4    8 ar
     9    4   29 1
    10    5    6 ar
    11    5    7 ar
    12    5   30 1
    13    6   11 ar
    14    6   31 1
    15    7    8 ar
    16    8    9 ar
    17    9   11 ar
    18    9   17 1
    19   10   12 ar
    20   10   13 ar
    21   10   19 1
    22   11   20 1
    23   12   14 ar
    24   12   21 1
    25   13   15 ar
    26   13   22 1
    27   14   16 ar
    28   14   23 1
    29   15   16 ar
    30   15   24 1
    31   16   25 1
    32   17   19 2
    33   17   32 1
    34   18   20 1
    35   18   33 1
    36   18   34 1
    37   18   35 1
