@<TRIPOS>MOLECULE
*****
   41    43     0     0     0
SMALL
NO_CHARGES

@<TRIPOS>ATOM
      1 C1         -6.9593    3.0704   -5.0149 C.ar      1 <0>         0.0000
      2 C2         -5.9634    3.3424   -5.9584 C.ar      1 <0>         0.0000
      3 C3         -5.0359    2.9608   -0.9392 C.ar      1 <0>         0.0000
      4 C4         -5.4559    1.6348   -0.9952 C.ar      1 <0>         0.0000
      5 C5         -3.2492    3.3477   -4.1904 C.2       1 <0>         0.0000
      6 C6         -4.3576    1.3600   -3.1478 C.ar      1 <0>         0.0000
      7 C7         -5.6718    5.5274   -4.9772 C.ar      1 <0>         0.0000
      8 C8         -3.9376    2.7030   -3.1050 C.ar      1 <0>         0.0000
      9 C9         -2.9950    4.6816   -4.1688 C.2       1 <0>         0.0000
     10 C10        -7.2849    3.9880   -4.0124 C.ar      1 <0>         0.0000
     11 C11        -6.6321    5.2441   -4.0019 C.ar      1 <0>         0.0000
     12 C12        -5.2997    4.5691   -5.9281 C.ar      1 <0>         0.0000
     13 C13        -4.2893    3.4886   -1.9946 C.ar      1 <0>         0.0000
     14 C14        -5.1143    0.8472   -2.1056 C.ar      1 <0>         0.0000
     15 C15        -3.3358    5.4771   -2.9794 C.2       1 <0>         0.0000
     16 C16        -2.4751    5.4128   -5.3602 C.2       1 <0>         0.0000
     17 C17        -8.2967    3.6350   -2.9496 C.3       1 <0>         0.0000
     18 C18        -6.9390    6.2630   -2.9318 C.3       1 <0>         0.0000
     19 C19        -1.1745    6.1622   -5.2078 C.3       1 <0>         0.0000
     20 N1         -3.0341    5.4402   -6.5261 N.2       1 <0>         0.0000
     21 N2         -4.2018    4.7762   -6.8327 N.pl3     1 <0>         0.0000
     22 O1         -3.1663    6.6722   -2.8494 O.2       1 <0>         0.0000
     23 O2         -3.9249    4.8016   -1.9143 O.3       1 <0>         0.0000
     24 Br1        -5.7306   -0.9657   -2.1866 Br        1 <0>         0.0000
     25 H1         -7.4552    2.1026   -5.0312 H         1 <0>         0.0000
     26 H2         -5.6675    2.5922   -6.6869 H         1 <0>         0.0000
     27 H3         -5.2888    3.5961   -0.0961 H         1 <0>         0.0000
     28 H4         -6.0488    1.2146   -0.1897 H         1 <0>         0.0000
     29 H5         -3.0116    2.7694   -5.0792 H         1 <0>         0.0000
     30 H6         -4.1121    0.7491   -4.0107 H         1 <0>         0.0000
     31 H7         -5.1618    6.4865   -4.9620 H         1 <0>         0.0000
     32 H8         -7.8501    3.6750   -1.9496 H         1 <0>         0.0000
     33 H9         -9.1447    4.3298   -2.9494 H         1 <0>         0.0000
     34 H10        -8.6877    2.6254   -3.0988 H         1 <0>         0.0000
     35 H11        -7.9996    6.5399   -2.9298 H         1 <0>         0.0000
     36 H12        -6.7083    5.8662   -1.9363 H         1 <0>         0.0000
     37 H13        -6.3463    7.1700   -3.0671 H         1 <0>         0.0000
     38 H14        -0.3757    5.4854   -4.8801 H         1 <0>         0.0000
     39 H15        -0.8946    6.6089   -6.1638 H         1 <0>         0.0000
     40 H16        -1.2696    6.9477   -4.4525 H         1 <0>         0.0000
     41 H17        -4.4855    5.0464   -7.7670 H         1 <0>         0.0000
@<TRIPOS>BOND
     1    1    2 ar
     2    1   10 ar
     3    1   25 1
     4    2   12 ar
     5    2   26 1
     6    3    4 ar
     7    3   13 ar
     8    3   27 1
     9    4   14 ar
    10    4   28 1
    11    5    8 1
    12    5    9 2
    13    5   29 1
    14    6    8 ar
    15    6   14 ar
    16    6   30 1
    17    7   11 ar
    18    7   12 ar
    19    7   31 1
    20    8   13 ar
    21    9   15 1
    22    9   16 1
    23   10   11 ar
    24   10   17 1
    25   11   18 1
    26   12   21 1
    27   13   23 1
    28   14   24 1
    29   15   22 2
    30   15   23 1
    31   16   19 1
    32   16   20 2
    33   17   32 1
    34   17   33 1
    35   17   34 1
    36   18   35 1
    37   18   36 1
    38   18   37 1
    39   19   38 1
    40   19   39 1
    41   19   40 1
    42   20   21 1
    43   21   41 1
