@<TRIPOS>MOLECULE
*****
   47    50     0     0     0
SMALL
NO_CHARGES

@<TRIPOS>ATOM
      1 C1          5.5552   -0.5803   -6.0494 C.1       1 <0>         0.0000
      2 C2          6.4686    2.8248   -4.8894 C.ar      1 <0>         0.0000
      3 C3          5.8498    2.8702   -3.6333 C.ar      1 <0>         0.0000
      4 C4          6.3517    1.6731   -5.6612 C.ar      1 <0>         0.0000
      5 C5          5.1267    1.7796   -3.1591 C.ar      1 <0>         0.0000
      6 C6          3.8369   -1.7554   -3.8208 C.2       1 <0>         0.0000
      7 C7          3.0619   -2.3443   -2.7721 C.2       1 <0>         0.0000
      8 C8          5.6234    0.5654   -5.1901 C.ar      1 <0>         0.0000
      9 C9          4.9923    0.5988   -3.9189 C.ar      1 <0>         0.0000
     10 C10         4.2242   -0.5114   -3.3742 C.2       1 <0>         0.0000
     11 C11         3.0227   -1.4364   -1.7482 C.2       1 <0>         0.0000
     12 C12        -0.3980    1.6480    0.3912 C.3       1 <0>         0.0000
     13 C13        -0.1727    1.2032   -1.0787 C.3       1 <0>         0.0000
     14 C14        -1.5078   -0.4952    1.2346 C.3       1 <0>         0.0000
     15 C15         1.0471   -0.2495    1.2181 C.3       1 <0>         0.0000
     16 C16        -0.7808   -1.2767   -0.9726 C.3       1 <0>         0.0000
     17 C17        -0.3092    0.4626    1.3677 C.3       1 <0>         0.0000
     18 C18         0.3568   -0.2374   -1.1436 C.3       1 <0>         0.0000
     19 C19        -3.0223   -1.7070   -0.1848 C.3       1 <0>         0.0000
     20 C20         2.3884   -1.4531   -0.3975 C.3       1 <0>         0.0000
     21 N1          5.5173   -1.4945   -6.7722 N.1       1 <0>         0.0000
     22 N2         -1.8856   -0.7979   -0.1438 N.3       1 <0>         0.0000
     23 N3          1.4651   -0.3464   -0.1844 N.3       1 <0>         0.0000
     24 O1          3.7261   -0.3197   -2.1007 O.3       1 <0>         0.0000
     25 H1          7.0328    3.6754   -5.2600 H         1 <0>         0.0000
     26 H2          5.9313    3.7638   -3.0202 H         1 <0>         0.0000
     27 H3          6.8213    1.6117   -6.6381 H         1 <0>         0.0000
     28 H4          4.6495    1.8276   -2.1871 H         1 <0>         0.0000
     29 H5          4.0664   -2.1971   -4.7782 H         1 <0>         0.0000
     30 H6          2.5880   -3.3171   -2.7787 H         1 <0>         0.0000
     31 H7          0.3624    2.3833    0.6763 H         1 <0>         0.0000
     32 H8         -1.3713    2.1375    0.4978 H         1 <0>         0.0000
     33 H9         -1.1032    1.2715   -1.6475 H         1 <0>         0.0000
     34 H10         0.5638    1.8560   -1.5563 H         1 <0>         0.0000
     35 H11        -1.2893   -1.4182    1.8095 H         1 <0>         0.0000
     36 H12        -2.3806   -0.0306    1.7096 H         1 <0>         0.0000
     37 H13         1.8182    0.3041    1.7717 H         1 <0>         0.0000
     38 H14         0.9757   -1.2458    1.6892 H         1 <0>         0.0000
     39 H15        -1.1972   -1.4934   -1.9628 H         1 <0>         0.0000
     40 H16        -0.3621   -2.2317   -0.5958 H         1 <0>         0.0000
     41 H17        -0.3481    0.8446    2.3948 H         1 <0>         0.0000
     42 H18         0.7920   -0.4045   -2.1327 H         1 <0>         0.0000
     43 H19        -3.3492   -1.8485   -1.2201 H         1 <0>         0.0000
     44 H20        -3.8584   -1.2795    0.3787 H         1 <0>         0.0000
     45 H21        -2.7981   -2.7035    0.2434 H         1 <0>         0.0000
     46 H22         1.9231   -2.4477   -0.2665 H         1 <0>         0.0000
     47 H23         3.1715   -1.3754    0.3682 H         1 <0>         0.0000
@<TRIPOS>BOND
     1    1    8 1
     2    1   21 3
     3    2    3 ar
     4    2    4 ar
     5    2   25 1
     6    3    5 ar
     7    3   26 1
     8    4    8 ar
     9    4   27 1
    10    5    9 ar
    11    5   28 1
    12    6    7 1
    13    6   10 2
    14    6   29 1
    15    7   11 2
    16    7   30 1
    17    8    9 ar
    18    9   10 1
    19   10   24 1
    20   11   20 1
    21   11   24 1
    22   12   13 1
    23   12   17 1
    24   12   31 1
    25   12   32 1
    26   13   18 1
    27   13   33 1
    28   13   34 1
    29   14   17 1
    30   14   22 1
    31   14   35 1
    32   14   36 1
    33   15   17 1
    34   15   23 1
    35   15   37 1
    36   15   38 1
    37   16   18 1
    38   16   22 1
    39   16   39 1
    40   16   40 1
    41   17   41 1
    42   18   23 1
    43   18   42 1
    44   19   22 1
    45   19   43 1
    46   19   44 1
    47   19   45 1
    48   20   23 1
    49   20   46 1
    50   20   47 1
