@<TRIPOS>MOLECULE
*****
   21    22     0     0     0
SMALL
NO_CHARGES

@<TRIPOS>ATOM
      1 C1         -1.7400   -1.1882    0.6271 C.ar      1 <0>         0.0000
      2 C2         -0.3994   -0.9672    0.2203 C.ar      1 <0>         0.0000
      3 C3         -2.2504   -2.4724    0.7655 C.ar      1 <0>         0.0000
      4 C4          0.4740   -2.0130   -0.0613 C.ar      1 <0>         0.0000
      5 C5         -1.3802   -3.5390    0.4846 C.ar      1 <0>         0.0000
      6 C6         -0.0495   -3.3065    0.0809 C.ar      1 <0>         0.0000
      7 C7          1.7749   -4.9552   -0.4999 C.2       1 <0>         0.0000
      8 C8          3.2024   -6.9021   -0.9631 C.3       1 <0>         0.0000
      9 N1         -1.5993   -4.9085    0.5327 N.2       1 <0>         0.0000
     10 N2         -0.5140   -5.5125    0.1925 N.2       1 <0>         0.0000
     11 N3          0.4588   -4.5744   -0.0920 N.am      1 <0>         0.0000
     12 N4          1.9392   -6.2961   -0.5695 N.am      1 <0>         0.0000
     13 O1          2.6112   -4.0958   -0.7436 O.2       1 <0>         0.0000
     14 H1         -2.3757   -0.3318    0.8334 H         1 <0>         0.0000
     15 H2         -0.0426    0.0548    0.1253 H         1 <0>         0.0000
     16 H3         -3.2741   -2.6572    1.0760 H         1 <0>         0.0000
     17 H4          1.4987   -1.8525   -0.3724 H         1 <0>         0.0000
     18 H5          3.0731   -7.5146   -1.8615 H         1 <0>         0.0000
     19 H6          3.5988   -7.5279   -0.1567 H         1 <0>         0.0000
     20 H7          3.9138   -6.1044   -1.1761 H         1 <0>         0.0000
     21 H8          1.1410   -6.8748   -0.3326 H         1 <0>         0.0000
@<TRIPOS>BOND
     1    1    2 ar
     2    1    3 ar
     3    1   14 1
     4    2    4 ar
     5    2   15 1
     6    3    5 ar
     7    3   16 1
     8    4    6 ar
     9    4   17 1
    10    5    6 ar
    11    5    9 1
    12    6   11 1
    13    7   11 am
    14    7   12 am
    15    7   13 2
    16    8   12 1
    17    8   18 1
    18    8   19 1
    19    8   20 1
    20    9   10 2
    21   10   11 1
    22   12   21 1
