@<TRIPOS>MOLECULE
*****
   25    26     0     0     0
SMALL
NO_CHARGES

@<TRIPOS>ATOM
      1 C1          1.8851   -1.0367   -0.1124 C.ar      1 <0>         0.0000
      2 C2          1.7987    0.1589    0.6007 C.ar      1 <0>         0.0000
      3 C3          1.9288   -2.2533    0.5684 C.ar      1 <0>         0.0000
      4 C4          1.2907   -0.3629    8.3620 C.ar      1 <0>         0.0000
      5 C5          0.6058    0.7794    8.7611 C.ar      1 <0>         0.0000
      6 C6          1.7560    0.1380    1.9948 C.ar      1 <0>         0.0000
      7 C7          1.8861   -2.2743    1.9625 C.ar      1 <0>         0.0000
      8 C8          1.4573   -0.6292    7.0075 C.ar      1 <0>         0.0000
      9 C9          0.1108    1.6168    7.7744 C.ar      1 <0>         0.0000
     10 C10         1.7997   -1.0786    2.6757 C.ar      1 <0>         0.0000
     11 C11         0.9241    0.2712    6.0993 C.ar      1 <0>         0.0000
     12 C12         1.7551   -1.1006    4.1291 C.2       1 <0>         0.0000
     13 N1          0.2528    1.3913    6.4490 N.ar      1 <0>         0.0000
     14 N2          1.0998   -0.0095    4.7208 N.am      1 <0>         0.0000
     15 O1          2.2918   -2.0053    4.7836 O.2       1 <0>         0.0000
     16 H1          1.9183   -1.0205   -1.1979 H         1 <0>         0.0000
     17 H2          1.7649    1.1062    0.0706 H         1 <0>         0.0000
     18 H3          1.9959   -3.1842    0.0129 H         1 <0>         0.0000
     19 H4          1.6932   -1.0443    9.1053 H         1 <0>         0.0000
     20 H5          0.4646    1.0072    9.8114 H         1 <0>         0.0000
     21 H6          1.6885    1.0758    2.5402 H         1 <0>         0.0000
     22 H7          1.9209   -3.2280    2.4829 H         1 <0>         0.0000
     23 H8          1.9912   -1.5180    6.6875 H         1 <0>         0.0000
     24 H9         -0.4302    2.5212    8.0327 H         1 <0>         0.0000
     25 H10         0.6989    0.6679    4.0768 H         1 <0>         0.0000
@<TRIPOS>BOND
     1    1    3 ar
     2    1    2 ar
     3    1   16 1
     4    2    6 ar
     5    2   17 1
     6    3    7 ar
     7    3   18 1
     8    4    5 ar
     9    4    8 ar
    10    4   19 1
    11    5    9 ar
    12    5   20 1
    13    6   10 ar
    14    6   21 1
    15    7   10 ar
    16    7   22 1
    17    8   11 ar
    18    8   23 1
    19    9   13 ar
    20    9   24 1
    21   10   12 1
    22   11   13 ar
    23   11   14 1
    24   12   14 am
    25   12   15 2
    26   14   25 1
