@<TRIPOS>MOLECULE
*****
   43    45     0     0     0
SMALL
NO_CHARGES

@<TRIPOS>ATOM
      1 C1         -6.0561   -2.0294   -2.1260 C.ar      1 <0>         0.0000
      2 C2         -5.3509    0.1635   -2.8548 C.ar      1 <0>         0.0000
      3 C3         -5.0768   -2.0143   -1.1329 C.ar      1 <0>         0.0000
      4 C4         -4.3715    0.1786   -1.8616 C.ar      1 <0>         0.0000
      5 C5         -1.7918    2.1620    1.0750 C.ar      1 <0>         0.0000
      6 C6         -0.9280   -0.2776    0.3197 C.ar      1 <0>         0.0000
      7 C7         -6.1931   -0.9405   -2.9870 C.ar      1 <0>         0.0000
      8 C8         -4.2345   -0.9103   -1.0007 C.ar      1 <0>         0.0000
      9 C9         -0.0435    0.7271    0.7001 C.ar      1 <0>         0.0000
     10 C10        -2.2732    0.0647    0.3653 C.ar      1 <0>         0.0000
     11 C11        -0.4909   -1.6494   -0.1032 C.3       1 <0>         0.0000
     12 C12         1.4458    0.5023    0.7225 C.3       1 <0>         0.0000
     13 C13         0.4135   -1.6368   -1.3341 C.3       1 <0>         0.0000
     14 C14         2.0216    0.1587   -0.6488 C.3       1 <0>         0.0000
     15 C15        -7.2396   -0.9559   -4.0494 C.3       1 <0>         0.0000
     16 C16         2.5516   -1.2960   -3.5113 C.3       1 <0>         0.0000
     17 N1         -0.4617    1.9594    1.0803 N.ar      1 <0>         0.0000
     18 N2         -2.7394    1.2741    0.7362 N.ar      1 <0>         0.0000
     19 N3          1.8180   -1.2893   -0.9594 N.pl3     1 <0>         0.0000
     20 N4         -3.2495   -0.8940    0.0004 N.pl3     1 <0>         0.0000
     21 O1          2.8024   -3.4204   -2.0108 O.2       1 <0>         0.0000
     22 O2          4.3091   -1.4374   -1.5828 O.2       1 <0>         0.0000
     23 S1          3.0296   -1.9953   -1.9536 S.o2      1 <0>         0.0000
     24 H1         -6.7073   -2.8939   -2.2225 H         1 <0>         0.0000
     25 H2         -5.4491    1.0155   -3.5220 H         1 <0>         0.0000
     26 H3         -4.9776   -2.8686   -0.4682 H         1 <0>         0.0000
     27 H4         -3.7202    1.0437   -1.7681 H         1 <0>         0.0000
     28 H5         -2.1325    3.1446    1.3769 H         1 <0>         0.0000
     29 H6          0.0133   -2.1341    0.7430 H         1 <0>         0.0000
     30 H7         -1.3484   -2.2893   -0.3359 H         1 <0>         0.0000
     31 H8          1.9268    1.4244    1.0739 H         1 <0>         0.0000
     32 H9          1.6852   -0.2726    1.4610 H         1 <0>         0.0000
     33 H10         0.4132   -2.6500   -1.7548 H         1 <0>         0.0000
     34 H11         0.0451   -0.9561   -2.1103 H         1 <0>         0.0000
     35 H12         1.5991    0.7833   -1.4442 H         1 <0>         0.0000
     36 H13         3.1005    0.3524   -0.6125 H         1 <0>         0.0000
     37 H14        -8.1758   -0.5284   -3.6697 H         1 <0>         0.0000
     38 H15        -6.9244   -0.3778   -4.9277 H         1 <0>         0.0000
     39 H16        -7.4396   -1.9779   -4.3970 H         1 <0>         0.0000
     40 H17         3.2418   -1.6553   -4.2763 H         1 <0>         0.0000
     41 H18         1.5329   -1.6164   -3.7345 H         1 <0>         0.0000
     42 H19         2.6020   -0.2092   -3.4307 H         1 <0>         0.0000
     43 H20        -3.2279   -1.7277    0.5762 H         1 <0>         0.0000
@<TRIPOS>BOND
     1    1    3 ar
     2    1    7 ar
     3    1   24 1
     4    2    4 ar
     5    2    7 ar
     6    2   25 1
     7    3    8 ar
     8    3   26 1
     9    4    8 ar
    10    4   27 1
    11    5   17 ar
    12    5   18 ar
    13    5   28 1
    14    6    9 ar
    15    6   10 ar
    16    6   11 1
    17    7   15 1
    18    8   20 1
    19    9   12 1
    20    9   17 ar
    21   10   18 ar
    22   10   20 1
    23   11   13 1
    24   11   29 1
    25   11   30 1
    26   12   14 1
    27   12   31 1
    28   12   32 1
    29   13   19 1
    30   13   33 1
    31   13   34 1
    32   14   19 1
    33   14   35 1
    34   14   36 1
    35   15   37 1
    36   15   38 1
    37   15   39 1
    38   16   23 1
    39   16   40 1
    40   16   41 1
    41   16   42 1
    42   19   23 1
    43   20   43 1
    44   21   23 2
    45   22   23 2
