@<TRIPOS>MOLECULE
*****
   29    31     0     0     0
SMALL
NO_CHARGES

@<TRIPOS>ATOM
      1 C1          1.7667   -1.3714   -0.1466 C.ar      1 <0>         0.0000
      2 C2          0.5239   -1.5375   -0.7740 C.ar      1 <0>         0.0000
      3 C3          2.6077   -2.4708    0.0701 C.ar      1 <0>         0.0000
      4 C4          0.1044   -2.8052   -1.1966 C.ar      1 <0>         0.0000
      5 C5          2.1888   -3.7353   -0.3467 C.ar      1 <0>         0.0000
      6 C6          0.9471   -3.8967   -0.9769 C.ar      1 <0>         0.0000
      7 C7          0.0331   -5.2005   -3.7281 C.2       1 <0>         0.0000
      8 C8          2.9095   -5.0644   -0.2356 C.3       1 <0>         0.0000
      9 C9          1.7888   -6.0941   -0.5289 C.3       1 <0>         0.0000
     10 C10        -1.8320   -4.7391   -4.8069 C.3       1 <0>         0.0000
     11 C11        -0.6545   -4.7305   -5.8155 C.3       1 <0>         0.0000
     12 C12         0.7421   -5.3461   -1.3885 C.3       1 <0>         0.0000
     13 N1         -1.1987   -4.9254   -3.4943 N.2       1 <0>         0.0000
     14 N2          0.9933   -5.5655   -2.8246 N.pl3     1 <0>         0.0000
     15 O1          0.4777   -5.1903   -5.0291 O.3       1 <0>         0.0000
     16 H1          2.0769   -0.3819    0.1805 H         1 <0>         0.0000
     17 H2         -0.1203   -0.6751   -0.9275 H         1 <0>         0.0000
     18 H3          3.5681   -2.3368    0.5637 H         1 <0>         0.0000
     19 H4         -0.8533   -2.9490   -1.6880 H         1 <0>         0.0000
     20 H5          3.7197   -5.1263   -0.9748 H         1 <0>         0.0000
     21 H6          3.3690   -5.2171    0.7460 H         1 <0>         0.0000
     22 H7          2.1429   -7.0042   -1.0197 H         1 <0>         0.0000
     23 H8          1.3154   -6.3852    0.4136 H         1 <0>         0.0000
     24 H9         -2.3991   -3.8027   -4.8324 H         1 <0>         0.0000
     25 H10        -2.5365   -5.5566   -5.0063 H         1 <0>         0.0000
     26 H11        -0.7784   -5.4147   -6.6575 H         1 <0>         0.0000
     27 H12        -0.4183   -3.7297   -6.1906 H         1 <0>         0.0000
     28 H13        -0.2752   -5.6942   -1.2060 H         1 <0>         0.0000
     29 H14         1.9349   -5.3576   -3.1407 H         1 <0>         0.0000
@<TRIPOS>BOND
     1    1    2 ar
     2    1    3 ar
     3    1   16 1
     4    2    4 ar
     5    2   17 1
     6    3    5 ar
     7    3   18 1
     8    4    6 ar
     9    4   19 1
    10    5    6 ar
    11    5    8 1
    12    6   12 1
    13    7   13 2
    14    7   14 1
    15    7   15 1
    16    8    9 1
    17    8   20 1
    18    8   21 1
    19    9   12 1
    20    9   22 1
    21    9   23 1
    22   10   11 1
    23   10   13 1
    24   10   24 1
    25   10   25 1
    26   11   15 1
    27   11   26 1
    28   11   27 1
    29   12   14 1
    30   12   28 1
    31   14   29 1
