@<TRIPOS>MOLECULE
*****
   30    32     0     0     0
SMALL
NO_CHARGES

@<TRIPOS>ATOM
      1 C1          1.9454   -1.2093    0.2816 C.ar      1 <0>         0.0000
      2 C2          0.6138   -1.0809   -0.1399 C.ar      1 <0>         0.0000
      3 C3          2.6210   -2.4306    0.1700 C.ar      1 <0>         0.0000
      4 C4         -0.0623   -2.1785   -0.6835 C.ar      1 <0>         0.0000
      5 C5          1.9492   -3.5285   -0.3702 C.ar      1 <0>         0.0000
      6 C6          0.6187   -3.3932   -0.7894 C.ar      1 <0>         0.0000
      7 C7         -0.5053   -5.3876   -3.6835 C.cat     1 <0>         0.0000
      8 C8          2.4497   -4.9393   -0.5991 C.3       1 <0>         0.0000
      9 C9          1.1486   -5.7353   -0.8642 C.3       1 <0>         0.0000
     10 C10        -1.2259   -6.5187   -5.5688 C.3       1 <0>         0.0000
     11 C11        -1.8773   -7.0891   -4.2967 C.3       1 <0>         0.0000
     12 C12         0.1195   -4.6961   -1.3678 C.3       1 <0>         0.0000
     13 N1         -0.6009   -5.3023   -5.0190 N.pl3     1 <0>         0.0000
     14 N2          0.1238   -4.5703   -2.8676 N.pl3     1 <0>         0.0000
     15 O1         -1.1562   -6.4297   -3.1935 O.3       1 <0>         0.0000
     16 H1          2.4554   -0.3505    0.7090 H         1 <0>         0.0000
     17 H2          0.1037   -0.1280   -0.0332 H         1 <0>         0.0000
     18 H3          3.6500   -2.5197    0.5088 H         1 <0>         0.0000
     19 H4         -1.0994   -2.0851   -0.9982 H         1 <0>         0.0000
     20 H5          3.1297   -4.9749   -1.4594 H         1 <0>         0.0000
     21 H6          3.0034   -5.3345    0.2566 H         1 <0>         0.0000
     22 H7          1.2740   -6.5723   -1.5552 H         1 <0>         0.0000
     23 H8          0.7672   -6.1413    0.0770 H         1 <0>         0.0000
     24 H9         -0.4698   -7.1858   -5.9925 H         1 <0>         0.0000
     25 H10        -1.9627   -6.2666   -6.3326 H         1 <0>         0.0000
     26 H11        -2.9283   -6.8158   -4.1947 H         1 <0>         0.0000
     27 H12        -1.7460   -8.1613   -4.1672 H         1 <0>         0.0000
     28 H13        -0.9055   -4.9448   -1.0868 H         1 <0>         0.0000
     29 H14        -0.0514   -4.6579   -5.5752 H         1 <0>         0.0000
     30 H15         0.6344   -3.7855   -3.2605 H         1 <0>         0.0000
@<TRIPOS>BOND
     1    1    2 ar
     2    1    3 ar
     3    1   16 1
     4    2    4 ar
     5    2   17 1
     6    3    5 ar
     7    3   18 1
     8    4    6 ar
     9    4   19 1
    10    5    6 ar
    11    5    8 1
    12    6   12 1
    13    7   13 2
    14    7   14 1
    15    7   15 1
    16    8    9 1
    17    8   20 1
    18    8   21 1
    19    9   12 1
    20    9   22 1
    21    9   23 1
    22   10   11 1
    23   10   13 1
    24   10   24 1
    25   10   25 1
    26   11   15 1
    27   11   26 1
    28   11   27 1
    29   12   14 1
    30   12   28 1
    31   13   29 1
    32   14   30 1
