@<TRIPOS>MOLECULE
*****
   30    32     0     0     0
SMALL
NO_CHARGES

@<TRIPOS>ATOM
      1 C1          1.4911   -1.9288    0.6016 C.ar      1 <0>         0.0000
      2 C2          0.5546   -1.5674   -0.3790 C.ar      1 <0>         0.0000
      3 C3          2.0505   -3.2119    0.6208 C.ar      1 <0>         0.0000
      4 C4          0.1723   -2.4871   -1.3617 C.ar      1 <0>         0.0000
      5 C5          1.6745   -4.1311   -0.3622 C.ar      1 <0>         0.0000
      6 C6          0.7526   -3.7583   -1.3484 C.ar      1 <0>         0.0000
      7 C7          1.3074   -3.7464   -4.3381 C.cat     1 <0>         0.0000
      8 C8          2.0848   -5.5791   -0.5231 C.3       1 <0>         0.0000
      9 C9          1.6371   -5.9258   -1.9639 C.3       1 <0>         0.0000
     10 C10         2.9024   -2.1484   -4.7905 C.3       1 <0>         0.0000
     11 C11         2.3064   -2.7123   -6.0926 C.3       1 <0>         0.0000
     12 C12         0.4981   -4.9208   -2.2890 C.3       1 <0>         0.0000
     13 N1          2.3462   -3.0966   -3.8076 N.pl3     1 <0>         0.0000
     14 N2          0.4446   -4.5340   -3.7215 N.pl3     1 <0>         0.0000
     15 O1          1.1763   -3.5438   -5.6406 O.3       1 <0>         0.0000
     16 H1          1.7789   -1.2053    1.3591 H         1 <0>         0.0000
     17 H2          0.1202   -0.5719   -0.3701 H         1 <0>         0.0000
     18 H3          2.7645   -3.4870    1.3928 H         1 <0>         0.0000
     19 H4         -0.5593   -2.2116   -2.1184 H         1 <0>         0.0000
     20 H5          3.1538   -5.7462   -0.3664 H         1 <0>         0.0000
     21 H6          1.5535   -6.1973    0.2096 H         1 <0>         0.0000
     22 H7          2.4668   -5.7591   -2.6582 H         1 <0>         0.0000
     23 H8          1.3159   -6.9627   -2.0801 H         1 <0>         0.0000
     24 H9          3.9925   -2.1790   -4.7854 H         1 <0>         0.0000
     25 H10         2.5626   -1.1315   -4.5747 H         1 <0>         0.0000
     26 H11         1.9002   -1.9588   -6.7643 H         1 <0>         0.0000
     27 H12         2.9907   -3.3731   -6.6262 H         1 <0>         0.0000
     28 H13        -0.4840   -5.3599   -2.0901 H         1 <0>         0.0000
     29 H14         2.4181   -2.9675   -2.8011 H         1 <0>         0.0000
     30 H15        -0.2335   -4.9868   -4.3266 H         1 <0>         0.0000
@<TRIPOS>BOND
     1    1    2 ar
     2    1    3 ar
     3    1   16 1
     4    2    4 ar
     5    2   17 1
     6    3    5 ar
     7    3   18 1
     8    4    6 ar
     9    4   19 1
    10    5    6 ar
    11    5    8 1
    12    6   12 1
    13    7   13 2
    14    7   14 1
    15    7   15 1
    16    8    9 1
    17    8   20 1
    18    8   21 1
    19    9   12 1
    20    9   22 1
    21    9   23 1
    22   10   11 1
    23   10   13 1
    24   10   24 1
    25   10   25 1
    26   11   15 1
    27   11   26 1
    28   11   27 1
    29   12   14 1
    30   12   28 1
    31   13   29 1
    32   14   30 1
