@<TRIPOS>MOLECULE
*****
   36    37     0     0     0
SMALL
NO_CHARGES

@<TRIPOS>ATOM
      1 C1         -2.1777   -2.7040    5.2974 C.ar      1 <0>         0.0000
      2 C2         -2.0409   -3.9497    4.6976 C.ar      1 <0>         0.0000
      3 C3         -2.0870   -1.5287    4.5400 C.ar      1 <0>         0.0000
      4 C4         -1.7774   -2.8784    2.5079 C.ar      1 <0>         0.0000
      5 C5         -1.8349   -4.0245    3.3198 C.ar      1 <0>         0.0000
      6 C6         -1.8978   -1.6271    3.1478 C.ar      1 <0>         0.0000
      7 C7         -2.1437   -0.2188    5.2652 C.2       1 <0>         0.0000
      8 C8         -4.3220   -2.0936   -1.4072 C.3       1 <0>         0.0000
      9 C9         -5.0332   -3.4014   -1.7641 C.3       1 <0>         0.0000
     10 C10        -2.8075   -3.9713   -1.6497 C.3       1 <0>         0.0000
     11 C11        -2.9351   -2.5806   -0.9672 C.3       1 <0>         0.0000
     12 C12         0.1264   -5.8455    2.3741 C.3       1 <0>         0.0000
     13 C13        -1.6480   -2.9341    1.0009 C.3       1 <0>         0.0000
     14 O1         -1.5649    0.7998    4.9519 O.2       1 <0>         0.0000
     15 O2         -1.9706   -6.6350    3.7791 O.2       1 <0>         0.0000
     16 O3         -2.3472   -5.8521    1.3815 O.2       1 <0>         0.0000
     17 O4         -4.0153   -4.1885   -2.3901 O.3       1 <0>         0.0000
     18 O5         -2.9118   -0.3048    6.3868 O.3       1 <0>         0.0000
     19 O6         -2.9349   -2.6773    0.4620 O.3       1 <0>         0.0000
     20 S1         -1.6540   -5.7233    2.6703 S.o2      1 <0>         0.0000
     21 Cl1        -1.8642   -0.1849    2.1642 Cl        1 <0>         0.0000
     22 H1         -2.3480   -2.6296    6.3653 H         1 <0>         0.0000
     23 H2         -2.1056   -4.8623    5.2798 H         1 <0>         0.0000
     24 H3         -4.2307   -1.4645   -2.2974 H         1 <0>         0.0000
     25 H4         -4.8038   -1.5204   -0.6121 H         1 <0>         0.0000
     26 H5         -5.4097   -3.9038   -0.8612 H         1 <0>         0.0000
     27 H6         -5.8511   -3.2871   -2.4793 H         1 <0>         0.0000
     28 H7         -1.9751   -4.0320   -2.3572 H         1 <0>         0.0000
     29 H8         -2.6915   -4.7434   -0.8791 H         1 <0>         0.0000
     30 H9         -2.1373   -1.8906   -1.2732 H         1 <0>         0.0000
     31 H10         0.2990   -6.8603    2.0092 H         1 <0>         0.0000
     32 H11         0.4264   -5.1138    1.6233 H         1 <0>         0.0000
     33 H12         0.6475   -5.6822    3.3182 H         1 <0>         0.0000
     34 H13        -0.9344   -2.1690    0.6646 H         1 <0>         0.0000
     35 H14        -1.2813   -3.9080    0.6706 H         1 <0>         0.0000
     36 H15        -2.8576    0.5708    6.8163 H         1 <0>         0.0000
@<TRIPOS>BOND
     1    1    2 ar
     2    1    3 ar
     3    1   22 1
     4    2    5 ar
     5    2   23 1
     6    3    6 ar
     7    3    7 1
     8    4    5 ar
     9    4    6 ar
    10    4   13 1
    11    5   20 1
    12    6   21 1
    13    7   14 2
    14    7   18 1
    15    8    9 1
    16    8   11 1
    17    8   24 1
    18    8   25 1
    19    9   17 1
    20    9   26 1
    21    9   27 1
    22   10   11 1
    23   10   17 1
    24   10   28 1
    25   10   29 1
    26   11   19 1
    27   11   30 1
    28   12   20 1
    29   12   31 1
    30   12   32 1
    31   12   33 1
    32   13   19 1
    33   13   34 1
    34   13   35 1
    35   15   20 2
    36   16   20 2
    37   18   36 1
