@<TRIPOS>MOLECULE
*****
   36    37     0     0     0
SMALL
NO_CHARGES

@<TRIPOS>ATOM
      1 C1         -1.9826   -2.3037    5.7989 C.ar      1 <0>         0.0000
      2 C2         -1.8122   -3.5556    5.2212 C.ar      1 <0>         0.0000
      3 C3         -2.1253   -1.1586    5.0041 C.ar      1 <0>         0.0000
      4 C4         -1.9607   -2.5552    2.9864 C.ar      1 <0>         0.0000
      5 C5         -1.8056   -3.6685    3.8310 C.ar      1 <0>         0.0000
      6 C6         -2.1143   -1.2951    3.6013 C.ar      1 <0>         0.0000
      7 C7         -2.2269    0.1667    5.6965 C.2       1 <0>         0.0000
      8 C8          1.2885   -2.4350   -0.3691 C.3       1 <0>         0.0000
      9 C9          1.1206   -1.0296   -0.9527 C.3       1 <0>         0.0000
     10 C10        -0.8535   -2.2246   -1.3750 C.3       1 <0>         0.0000
     11 C11        -0.1632   -2.8636   -0.1614 C.3       1 <0>         0.0000
     12 C12        -3.2640   -5.8406    2.7236 C.3       1 <0>         0.0000
     13 C13        -1.9015   -2.6572    1.4756 C.3       1 <0>         0.0000
     14 O1         -1.8362    1.2332    5.2731 O.2       1 <0>         0.0000
     15 O2         -0.7414   -5.3674    2.0048 O.2       1 <0>         0.0000
     16 O3         -1.2231   -6.2025    4.3651 O.2       1 <0>         0.0000
     17 O4         -0.0738   -1.0830   -1.7558 O.3       1 <0>         0.0000
     18 O5         -2.7978    0.0393    6.9284 O.3       1 <0>         0.0000
     19 O6         -0.5852   -2.2950    1.0853 O.3       1 <0>         0.0000
     20 S1         -1.5852   -5.3709    3.2082 S.o2      1 <0>         0.0000
     21 Cl1        -2.3271    0.1044    2.5802 Cl        1 <0>         0.0000
     22 H1         -1.9940   -2.1996    6.8777 H         1 <0>         0.0000
     23 H2         -1.6736   -4.4405    5.8325 H         1 <0>         0.0000
     24 H3          1.7665   -3.1028   -1.0928 H         1 <0>         0.0000
     25 H4          1.8504   -2.4609    0.5665 H         1 <0>         0.0000
     26 H5          0.9936   -0.2862   -0.1558 H         1 <0>         0.0000
     27 H6          1.9487   -0.7236   -1.5985 H         1 <0>         0.0000
     28 H7         -0.8879   -2.9360   -2.2119 H         1 <0>         0.0000
     29 H8         -1.8771   -1.9028   -1.1540 H         1 <0>         0.0000
     30 H9         -0.2954   -3.9506   -0.1205 H         1 <0>         0.0000
     31 H10        -3.1931   -6.8680    2.3601 H         1 <0>         0.0000
     32 H11        -3.9060   -5.7872    3.6036 H         1 <0>         0.0000
     33 H12        -3.6196   -5.1796    1.9326 H         1 <0>         0.0000
     34 H13        -2.1230   -3.6728    1.1419 H         1 <0>         0.0000
     35 H14        -2.6443   -1.9853    1.0309 H         1 <0>         0.0000
     36 H15        -2.7808    0.9326    7.3228 H         1 <0>         0.0000
@<TRIPOS>BOND
     1    1    2 ar
     2    1    3 ar
     3    1   22 1
     4    2    5 ar
     5    2   23 1
     6    3    6 ar
     7    3    7 1
     8    4    5 ar
     9    4    6 ar
    10    4   13 1
    11    5   20 1
    12    6   21 1
    13    7   14 2
    14    7   18 1
    15    8    9 1
    16    8   11 1
    17    8   24 1
    18    8   25 1
    19    9   17 1
    20    9   26 1
    21    9   27 1
    22   10   11 1
    23   10   17 1
    24   10   28 1
    25   10   29 1
    26   11   19 1
    27   11   30 1
    28   12   20 1
    29   12   31 1
    30   12   32 1
    31   12   33 1
    32   13   19 1
    33   13   34 1
    34   13   35 1
    35   15   20 2
    36   16   20 2
    37   18   36 1
