@<TRIPOS>MOLECULE
*****
   36    37     0     0     0
SMALL
NO_CHARGES

@<TRIPOS>ATOM
      1 C1         -2.4025   -2.6361    5.5167 C.ar      1 <0>         0.0000
      2 C2         -2.1563   -3.8876    4.9693 C.ar      1 <0>         0.0000
      3 C3         -2.3678   -1.4758    4.7290 C.ar      1 <0>         0.0000
      4 C4         -1.8704   -2.8797    2.7571 C.ar      1 <0>         0.0000
      5 C5         -1.8877   -3.9999    3.6044 C.ar      1 <0>         0.0000
      6 C6         -2.1050   -1.6260    3.3554 C.ar      1 <0>         0.0000
      7 C7         -2.6421   -0.1950    5.5041 C.2       1 <0>         0.0000
      8 C8         -4.2279   -2.2805   -1.3129 C.3       1 <0>         0.0000
      9 C9         -4.8891   -3.6148   -1.6700 C.3       1 <0>         0.0000
     10 C10        -2.6703   -4.1389   -1.3897 C.3       1 <0>         0.0000
     11 C11        -2.8562   -2.7196   -0.7827 C.3       1 <0>         0.0000
     12 C12         0.2124   -5.7357    2.8010 C.3       1 <0>         0.0000
     13 C13        -1.6627   -2.9693    1.2598 C.3       1 <0>         0.0000
     14 O1         -3.2502   -0.2303    6.5509 O.2       1 <0>         0.0000
     15 O2         -1.8959   -6.5961    4.1475 O.2       1 <0>         0.0000
     16 O3         -2.2130   -5.9104    1.7108 O.2       1 <0>         0.0000
     17 O4         -3.8180   -4.3977   -2.2057 O.3       1 <0>         0.0000
     18 O5         -2.1424    0.9740    5.0522 O.3       1 <0>         0.0000
     19 O6         -2.9231   -2.7474    0.6493 O.3       1 <0>         0.0000
     20 S1         -1.5825   -5.7059    3.0219 S.o2      1 <0>         0.0000
     21 Cl1        -2.0995   -0.2133    2.2918 Cl        1 <0>         0.0000
     22 H1         -2.6354   -2.5258    6.5700 H         1 <0>         0.0000
     23 H2         -2.1863   -4.7810    5.5836 H         1 <0>         0.0000
     24 H3         -4.1022   -1.6740   -2.2144 H         1 <0>         0.0000
     25 H4         -4.7675   -1.6976   -0.5632 H         1 <0>         0.0000
     26 H5         -5.3107   -4.0972   -0.7762 H         1 <0>         0.0000
     27 H6         -5.6629   -3.5411   -2.4373 H         1 <0>         0.0000
     28 H7         -1.7874   -4.2260   -2.0298 H         1 <0>         0.0000
     29 H8         -2.6077   -4.8737   -0.5771 H         1 <0>         0.0000
     30 H9         -2.0560   -2.0296   -1.0829 H         1 <0>         0.0000
     31 H10         0.4560   -6.7503    2.4782 H         1 <0>         0.0000
     32 H11         0.5019   -5.0131    2.0372 H         1 <0>         0.0000
     33 H12         0.6846   -5.5134    3.7587 H         1 <0>         0.0000
     34 H13        -0.9424   -2.2018    0.9396 H         1 <0>         0.0000
     35 H14        -1.2639   -3.9445    0.9760 H         1 <0>         0.0000
     36 H15        -1.7456    0.8727    4.1672 H         1 <0>         0.0000
@<TRIPOS>BOND
     1    1    2 ar
     2    1    3 ar
     3    1   22 1
     4    2    5 ar
     5    2   23 1
     6    3    6 ar
     7    3    7 1
     8    4    5 ar
     9    4    6 ar
    10    4   13 1
    11    5   20 1
    12    6   21 1
    13    7   14 2
    14    7   18 1
    15    8    9 1
    16    8   11 1
    17    8   24 1
    18    8   25 1
    19    9   17 1
    20    9   26 1
    21    9   27 1
    22   10   11 1
    23   10   17 1
    24   10   28 1
    25   10   29 1
    26   11   19 1
    27   11   30 1
    28   12   20 1
    29   12   31 1
    30   12   32 1
    31   12   33 1
    32   13   19 1
    33   13   34 1
    34   13   35 1
    35   15   20 2
    36   16   20 2
    37   18   36 1
