@<TRIPOS>MOLECULE
*****
   25    25     0     0     0
SMALL
NO_CHARGES

@<TRIPOS>ATOM
      1 C1          1.8851   -1.0363   -0.1124 C.ar      1 <0>         0.0000
      2 C2          0.8066   -0.4630    0.5610 C.ar      1 <0>         0.0000
      3 C3          2.9210   -1.6309    0.6081 C.ar      1 <0>         0.0000
      4 C4          1.7997   -1.0786    2.6757 C.ar      1 <0>         0.0000
      5 C5          0.7638   -0.4841    1.9551 C.ar      1 <0>         0.0000
      6 C6          2.8783   -1.6520    2.0022 C.ar      1 <0>         0.0000
      7 C7         -0.3607    0.1141    2.6569 C.2       1 <0>         0.0000
      8 C8         -3.9062    2.1335    1.6918 C.3       1 <0>         0.0000
      9 C9         -1.4924    0.7645    1.8581 C.3       1 <0>         0.0000
     10 N1          3.9257   -2.2532    2.7305 N.pl3     1 <0>         0.0000
     11 O1         -0.4126    0.1013    3.9034 O.2       1 <0>         0.0000
     12 O2         -3.4252    0.3882    3.5773 O.2       1 <0>         0.0000
     13 O3         -2.1813    2.5846    3.6032 O.2       1 <0>         0.0000
     14 S1         -2.7539    1.4669    2.8712 S.o2      1 <0>         0.0000
     15 H1          1.9185   -1.0196   -1.1979 H         1 <0>         0.0000
     16 H2          0.0049   -0.0026   -0.0107 H         1 <0>         0.0000
     17 H3          3.7570   -2.0739    0.0731 H         1 <0>         0.0000
     18 H4          1.7665   -1.0951    3.7631 H         1 <0>         0.0000
     19 H5         -4.7307    2.5940    2.2383 H         1 <0>         0.0000
     20 H6         -3.3869    2.8771    1.0853 H         1 <0>         0.0000
     21 H7         -4.2705    1.3167    1.0669 H         1 <0>         0.0000
     22 H8         -1.0930    1.5819    1.2523 H         1 <0>         0.0000
     23 H9         -1.9813    0.0126    1.2333 H         1 <0>         0.0000
     24 H10         3.9068   -2.2204    3.7297 H         1 <0>         0.0000
     25 H11         4.7154   -2.6186    2.2375 H         1 <0>         0.0000
@<TRIPOS>BOND
     1    1    2 ar
     2    1    3 ar
     3    1   15 1
     4    2    5 ar
     5    2   16 1
     6    3    6 ar
     7    3   17 1
     8    4    5 ar
     9    4    6 ar
    10    4   18 1
    11    5    7 1
    12    6   10 1
    13    7    9 1
    14    7   11 2
    15    8   14 1
    16    8   19 1
    17    8   20 1
    18    8   21 1
    19    9   14 1
    20    9   22 1
    21    9   23 1
    22   10   24 1
    23   10   25 1
    24   12   14 2
    25   13   14 2
