@<TRIPOS>MOLECULE
*****
   16    16     0     0     0
SMALL
NO_CHARGES

@<TRIPOS>ATOM
      1 C1          4.6750    1.3610    0.8490 C.2       1 <0>         0.0000
      2 C2          5.5190    0.6570    0.0550 C.2       1 <0>         0.0000
      3 C3          3.5040   -0.1740   -0.0490 C.2       1 <0>         0.0000
      4 C4          2.4770   -1.1020   -0.5040 C.2       1 <0>         0.0000
      5 C5          0.0580   -1.7290   -0.4590 C.3       1 <0>         0.0000
      6 N1          3.4210    0.8500    0.7880 N.2       1 <0>         0.0000
      7 N2          4.7750   -0.3040   -0.5050 N.pl3     1 <0>         0.0000
      8 N3          1.2150   -0.9540   -0.0010 N.am      1 <0>         0.0000
      9 O1          2.6870   -2.0040   -1.3140 O.2       1 <0>         0.0000
     10 H1          4.9410    2.2000    1.4420 H         1 <0>         0.0000
     11 H2          6.5550    0.7740   -0.1390 H         1 <0>         0.0000
     12 H3         -0.7200   -1.6790    0.3050 H         1 <0>         0.0000
     13 H4          0.3620   -2.7660   -0.6160 H         1 <0>         0.0000
     14 H5         -0.2990   -1.2960   -1.3950 H         1 <0>         0.0000
     15 H6          5.0820   -1.0340   -1.1720 H         1 <0>         0.0000
     16 H7          1.0840   -0.1420    0.6220 H         1 <0>         0.0000
@<TRIPOS>BOND
     1    1    2 2
     2    1    6 1
     3    1   10 1
     4    2    7 1
     5    2   11 1
     6    3    4 1
     7    3    6 2
     8    3    7 1
     9    4    8 am
    10    4    9 2
    11    5    8 1
    12    5   12 1
    13    5   13 1
    14    5   14 1
    15    7   15 1
    16    8   16 1
