@<TRIPOS>MOLECULE
*****
   19    20     0     0     0
SMALL
NO_CHARGES

@<TRIPOS>ATOM
      1 C1          1.8661   -1.0144   -0.1724 C.ar      1 <0>         0.0000
      2 C2          2.8017   -1.7934    0.5154 C.ar      1 <0>         0.0000
      3 C3          0.9007   -0.3004    0.5486 C.ar      1 <0>         0.0000
      4 C4          2.7726   -1.8580    1.9102 C.ar      1 <0>         0.0000
      5 C5          0.8689   -0.3627    1.9407 C.ar      1 <0>         0.0000
      6 C6          1.1523   -0.8532    6.1598 C.2       1 <0>         0.0000
      7 C7          2.2374   -1.7022    6.2170 C.2       1 <0>         0.0000
      8 C8          1.8066   -1.1439    2.6413 C.ar      1 <0>         0.0000
      9 C9          1.7416   -1.1844    4.1044 C.2       1 <0>         0.0000
     10 N1          0.8545   -0.5399    4.8552 N.2       1 <0>         0.0000
     11 N2          2.6031   -1.9055    4.9000 N.pl3     1 <0>         0.0000
     12 H1          1.8889   -0.9643   -1.2578 H         1 <0>         0.0000
     13 H2          3.5554   -2.3519   -0.0336 H         1 <0>         0.0000
     14 H3          0.1697    0.3075    0.0215 H         1 <0>         0.0000
     15 H4          3.5132   -2.4729    2.4171 H         1 <0>         0.0000
     16 H5          0.1256    0.1862    2.5097 H         1 <0>         0.0000
     17 H6          0.5748   -0.4549    6.9841 H         1 <0>         0.0000
     18 H7          2.7638   -2.1635    7.0403 H         1 <0>         0.0000
     19 H8          3.3714   -2.4820    4.5869 H         1 <0>         0.0000
@<TRIPOS>BOND
     1    1    3 ar
     2    1    2 ar
     3    1   12 1
     4    2    4 ar
     5    2   13 1
     6    3    5 ar
     7    3   14 1
     8    4    8 ar
     9    4   15 1
    10    5    8 ar
    11    5   16 1
    12    6    7 2
    13    6   10 1
    14    6   17 1
    15    7   11 1
    16    7   18 1
    17    8    9 1
    18    9   10 2
    19    9   11 1
    20   11   19 1
