@<TRIPOS>MOLECULE
*****
   27    28     0     0     0
SMALL
NO_CHARGES

@<TRIPOS>ATOM
      1 C1         -1.9636   -0.8492   -0.4791 C.ar      1 <0>         0.0000
      2 C2         -0.6035   -0.8445   -0.1694 C.ar      1 <0>         0.0000
      3 C3         -2.6523   -2.0732   -0.6306 C.ar      1 <0>         0.0000
      4 C4          1.3362   -3.8808    0.2933 C.2       1 <0>         0.0000
      5 C5          0.0993   -4.4126    0.0094 C.2       1 <0>         0.0000
      6 C6         -0.7769   -3.2862   -0.2005 C.ar      1 <0>         0.0000
      7 C7         -0.0051   -2.0971   -0.0292 C.ar      1 <0>         0.0000
      8 C8         -0.2842   -5.8590   -0.0863 C.3       1 <0>         0.0000
      9 C9          0.5417   -6.2465   -2.4424 C.3       1 <0>         0.0000
     10 C10        -0.6588   -6.3131   -1.5101 C.3       1 <0>         0.0000
     11 N1         -2.0911   -3.2772   -0.4991 N.ar      1 <0>         0.0000
     12 N2          1.2843   -2.4896    0.2676 N.pl3     1 <0>         0.0000
     13 N3         -1.1254   -7.7085   -1.4540 N.3       1 <0>         0.0000
     14 O1          0.1012   -6.6405   -3.7527 O.3       1 <0>         0.0000
     15 H1         -2.5029    0.0849   -0.6058 H         1 <0>         0.0000
     16 H2         -0.0509    0.0842   -0.0464 H         1 <0>         0.0000
     17 H3         -3.7143   -2.0622   -0.8714 H         1 <0>         0.0000
     18 H4          2.2656   -4.3891    0.5163 H         1 <0>         0.0000
     19 H5          0.5220   -6.4993    0.2885 H         1 <0>         0.0000
     20 H6         -1.1539   -6.0387    0.5572 H         1 <0>         0.0000
     21 H7          1.3200   -6.9318   -2.0745 H         1 <0>         0.0000
     22 H8          0.9412   -5.2246   -2.4605 H         1 <0>         0.0000
     23 H9         -1.4217   -5.6232   -1.9009 H         1 <0>         0.0000
     24 H10         2.0568   -1.8738    0.4755 H         1 <0>         0.0000
     25 H11        -1.2844   -8.0269   -2.4094 H         1 <0>         0.0000
     26 H12        -2.0289   -7.7401   -0.9834 H         1 <0>         0.0000
     27 H13         0.8768   -6.6979   -4.3304 H         1 <0>         0.0000
@<TRIPOS>BOND
     1    1    2 ar
     2    1    3 ar
     3    1   15 1
     4    2    7 ar
     5    2   16 1
     6    3   11 ar
     7    3   17 1
     8    4    5 2
     9    4   12 1
    10    4   18 1
    11    5    6 1
    12    5    8 1
    13    6    7 ar
    14    6   11 ar
    15    7   12 1
    16    8   10 1
    17    8   19 1
    18    8   20 1
    19    9   10 1
    20    9   14 1
    21    9   21 1
    22    9   22 1
    23   10   13 1
    24   10   23 1
    25   12   24 1
    26   13   25 1
    27   13   26 1
    28   14   27 1
