@<TRIPOS>MOLECULE
*****
   29    30     0     0     0
SMALL
NO_CHARGES

@<TRIPOS>ATOM
      1 C1          0.0090    5.5456    2.2532 C.ar      1 <0>         0.0000
      2 C2          0.0514    5.4733    3.6469 C.ar      1 <0>         0.0000
      3 C3          0.4336    4.4586    1.4856 C.ar      1 <0>         0.0000
      4 C4          0.5190    4.3147    4.2732 C.ar      1 <0>         0.0000
      5 C5          0.9077    3.2829    2.0856 C.ar      1 <0>         0.0000
      6 C6          0.9371    3.2394    3.4918 C.ar      1 <0>         0.0000
      7 C7          0.6181   -0.2203    1.8282 C.cat     1 <0>         0.0000
      8 C8          0.4374   -2.4530    2.4057 C.3       1 <0>         0.0000
      9 C9          1.8940   -1.9675    2.5036 C.3       1 <0>         0.0000
     10 C10         1.5920    2.3497   -0.2270 C.3       1 <0>         0.0000
     11 C11         1.3640    2.0912    1.2612 C.3       1 <0>         0.0000
     12 N1         -0.2502   -1.1647    2.2109 N.pl3     1 <0>         0.0000
     13 N2          0.3440    1.0046    1.4307 N.pl3     1 <0>         0.0000
     14 O1          1.8714   -0.6368    1.8725 O.3       1 <0>         0.0000
     15 Cl1         1.5278    1.8012    4.3282 Cl        1 <0>         0.0000
     16 H1         -0.3471    6.4464    1.7627 H         1 <0>         0.0000
     17 H2         -0.2716    6.3152    4.2521 H         1 <0>         0.0000
     18 H3          0.4066    4.5371    0.4040 H         1 <0>         0.0000
     19 H4          0.5648    4.2471    5.3552 H         1 <0>         0.0000
     20 H5          0.2669   -3.1169    1.5535 H         1 <0>         0.0000
     21 H6          0.1015   -2.9381    3.3231 H         1 <0>         0.0000
     22 H7          2.2279   -1.8225    3.5319 H         1 <0>         0.0000
     23 H8          2.6079   -2.5714    1.9477 H         1 <0>         0.0000
     24 H9          0.6727    2.6436   -0.7406 H         1 <0>         0.0000
     25 H10         1.9720    1.4429   -0.7042 H         1 <0>         0.0000
     26 H11         2.3331    3.1417   -0.3597 H         1 <0>         0.0000
     27 H12         2.2825    1.6946    1.6950 H         1 <0>         0.0000
     28 H13        -1.2565   -1.0611    2.1626 H         1 <0>         0.0000
     29 H14        -0.6303    1.2874    1.3973 H         1 <0>         0.0000
@<TRIPOS>BOND
     1    1    2 ar
     2    1    3 ar
     3    1   16 1
     4    2    4 ar
     5    2   17 1
     6    3    5 ar
     7    3   18 1
     8    4    6 ar
     9    4   19 1
    10    5    6 ar
    11    5   11 1
    12    6   15 1
    13    7   12 1
    14    7   13 2
    15    7   14 1
    16    8    9 1
    17    8   12 1
    18    8   20 1
    19    8   21 1
    20    9   14 1
    21    9   22 1
    22    9   23 1
    23   10   11 1
    24   10   24 1
    25   10   25 1
    26   10   26 1
    27   11   13 1
    28   11   27 1
    29   12   28 1
    30   13   29 1
