@<TRIPOS>MOLECULE
*****
   47    48     0     0     0
SMALL
NO_CHARGES

@<TRIPOS>ATOM
      1 C1          6.9188   -0.5940    2.4179 C.ar      1 <0>         0.0000
      2 C2          6.2086   -1.6589    1.8455 C.ar      1 <0>         0.0000
      3 C3          6.3499    0.6802    2.4173 C.ar      1 <0>         0.0000
      4 C4          4.9514   -1.4501    1.2831 C.ar      1 <0>         0.0000
      5 C5          5.0862    0.9061    1.8553 C.ar      1 <0>         0.0000
      6 C6         -0.4458    3.1446    3.5309 C.2       1 <0>         0.0000
      7 C7         -1.9354    1.6683    3.3687 C.2       1 <0>         0.0000
      8 C8          4.3839   -0.1653    1.2861 C.ar      1 <0>         0.0000
      9 C9         -0.8557   -1.7108   -1.2070 C.3       1 <0>         0.0000
     10 C10        -1.4855    0.5902   -1.9803 C.3       1 <0>         0.0000
     11 C11        -3.1724   -0.8569   -0.8580 C.3       1 <0>         0.0000
     12 C12         1.1472    1.0559    0.0378 C.3       1 <0>         0.0000
     13 C13         0.2524    0.1154    0.8550 C.3       1 <0>         0.0000
     14 C14        -1.9072    1.4579    0.8392 C.3       1 <0>         0.0000
     15 C15         2.5125    1.2238    0.6868 C.3       1 <0>         0.0000
     16 C16        -1.6809   -0.4554   -0.8602 C.3       1 <0>         0.0000
     17 C17        -1.2643    0.0801    0.5659 C.3       1 <0>         0.0000
     18 N1         -1.2762    2.3677    4.2861 N.2       1 <0>         0.0000
     19 N2         -0.5534    2.9701    2.2173 N.2       1 <0>         0.0000
     20 N3         -1.5273    2.0163    2.1268 N.pl3     1 <0>         0.0000
     21 O1         -1.8528   -0.7792    1.5723 O.3       1 <0>         0.0000
     22 O2          3.1456   -0.0607    0.7103 O.3       1 <0>         0.0000
     23 H1          7.8990   -0.7588    2.8564 H         1 <0>         0.0000
     24 H2          6.6376   -2.6577    1.8375 H         1 <0>         0.0000
     25 H3          6.8880    1.5158    2.8577 H         1 <0>         0.0000
     26 H4          4.3902   -2.2655    0.8353 H         1 <0>         0.0000
     27 H5          4.6679    1.9060    1.8690 H         1 <0>         0.0000
     28 H6          0.2486    3.8600    3.9532 H         1 <0>         0.0000
     29 H7         -2.6881    0.9129    3.5452 H         1 <0>         0.0000
     30 H8         -0.9294   -2.4718   -0.4223 H         1 <0>         0.0000
     31 H9         -1.2367   -2.1615   -2.1293 H         1 <0>         0.0000
     32 H10         0.2023   -1.4837   -1.3662 H         1 <0>         0.0000
     33 H11        -2.1880    1.4244   -1.8897 H         1 <0>         0.0000
     34 H12        -1.6785    0.1184   -2.9497 H         1 <0>         0.0000
     35 H13        -0.4755    1.0010   -2.0149 H         1 <0>         0.0000
     36 H14        -3.8300   -0.0101   -0.6366 H         1 <0>         0.0000
     37 H15        -3.4496   -1.2286   -1.8503 H         1 <0>         0.0000
     38 H16        -3.3758   -1.6389   -0.1246 H         1 <0>         0.0000
     39 H17         0.7009    2.0516   -0.0320 H         1 <0>         0.0000
     40 H18         1.2937    0.6793   -0.9785 H         1 <0>         0.0000
     41 H19         0.6477   -0.9016    0.7728 H         1 <0>         0.0000
     42 H20         0.3518    0.3896    1.9105 H         1 <0>         0.0000
     43 H21        -1.6146    2.1906    0.0908 H         1 <0>         0.0000
     44 H22        -2.9935    1.3568    0.8187 H         1 <0>         0.0000
     45 H23         3.1279    1.9296    0.1136 H         1 <0>         0.0000
     46 H24         2.4016    1.6083    1.7090 H         1 <0>         0.0000
     47 H25        -1.2096   -1.4674    1.8006 H         1 <0>         0.0000
@<TRIPOS>BOND
     1    1    3 ar
     2    1    2 ar
     3    1   23 1
     4    2    4 ar
     5    2   24 1
     6    3    5 ar
     7    3   25 1
     8    4    8 ar
     9    4   26 1
    10    5    8 ar
    11    5   27 1
    12    6   18 1
    13    6   19 2
    14    6   28 1
    15    7   18 2
    16    7   20 1
    17    7   29 1
    18    8   22 1
    19    9   16 1
    20    9   30 1
    21    9   31 1
    22    9   32 1
    23   10   16 1
    24   10   33 1
    25   10   34 1
    26   10   35 1
    27   11   16 1
    28   11   36 1
    29   11   37 1
    30   11   38 1
    31   12   13 1
    32   12   15 1
    33   12   39 1
    34   12   40 1
    35   13   17 1
    36   13   41 1
    37   13   42 1
    38   14   17 1
    39   14   20 1
    40   14   43 1
    41   14   44 1
    42   15   22 1
    43   15   45 1
    44   15   46 1
    45   16   17 1
    46   17   21 1
    47   19   20 1
    48   21   47 1
