@<TRIPOS>MOLECULE
*****
   35    35     0     0     0
SMALL
NO_CHARGES

@<TRIPOS>ATOM
      1 C1          2.2155   -1.1516    0.1677 C.ar      1 <0>         0.0000
      2 C2          1.1564   -0.4970    0.7911 C.ar      1 <0>         0.0000
      3 C3          3.2409   -1.7083    0.9348 C.ar      1 <0>         0.0000
      4 C4          1.1176   -0.3535    2.1850 C.ar      1 <0>         0.0000
      5 C5          3.2496   -1.5781    2.3290 C.ar      1 <0>         0.0000
      6 C6          2.1978   -0.8568    2.9333 C.ar      1 <0>         0.0000
      7 C7         -1.3758   -0.5294    2.5292 C.3       1 <0>         0.0000
      8 C8         -0.2723    1.7531    2.4621 C.3       1 <0>         0.0000
      9 C9          3.6969   -3.3674    4.0411 C.3       1 <0>         0.0000
     10 C10         5.1931   -1.3207    3.9824 C.3       1 <0>         0.0000
     11 C11         2.5385    0.6255    4.7593 C.3       1 <0>         0.0000
     12 C12        -0.1005    0.2733    2.8501 C.3       1 <0>         0.0000
     13 C13         4.3348   -2.2872    3.1498 C.3       1 <0>         0.0000
     14 O1          5.2018   -2.9324    2.1901 O.3       1 <0>         0.0000
     15 O2          2.2058   -0.6968    4.3191 O.3       1 <0>         0.0000
     16 H1          2.2335   -1.2536   -0.9144 H         1 <0>         0.0000
     17 H2          0.3387   -0.1056    0.1910 H         1 <0>         0.0000
     18 H3          4.0435   -2.2577    0.4597 H         1 <0>         0.0000
     19 H4         -1.6123   -0.5003    1.4604 H         1 <0>         0.0000
     20 H5         -2.2335   -0.1158    3.0718 H         1 <0>         0.0000
     21 H6         -1.2599   -1.5786    2.8184 H         1 <0>         0.0000
     22 H7         -0.4635    1.8599    1.3888 H         1 <0>         0.0000
     23 H8          0.6250    2.3360    2.6946 H         1 <0>         0.0000
     24 H9         -1.1187    2.1982    2.9973 H         1 <0>         0.0000
     25 H10         4.4756   -3.8998    4.6031 H         1 <0>         0.0000
     26 H11         2.9994   -2.9271    4.7557 H         1 <0>         0.0000
     27 H12         3.1623   -4.0903    3.4186 H         1 <0>         0.0000
     28 H13         6.0416   -1.8669    4.4134 H         1 <0>         0.0000
     29 H14         4.6287   -0.8878    4.8073 H         1 <0>         0.0000
     30 H15         5.5892   -0.5206    3.3509 H         1 <0>         0.0000
     31 H16         2.6953    0.5618    5.8389 H         1 <0>         0.0000
     32 H17         1.7310    1.3364    4.5554 H         1 <0>         0.0000
     33 H18         3.4537    0.9836    4.2753 H         1 <0>         0.0000
     34 H19         0.0401    0.2137    3.9315 H         1 <0>         0.0000
     35 H20         5.8469   -3.4511    2.6958 H         1 <0>         0.0000
@<TRIPOS>BOND
     1    1    2 ar
     2    1    3 ar
     3    1   16 1
     4    2    4 ar
     5    2   17 1
     6    3    5 ar
     7    3   18 1
     8    4    6 ar
     9    4   12 1
    10    5    6 ar
    11    5   13 1
    12    6   15 1
    13    7   12 1
    14    7   19 1
    15    7   20 1
    16    7   21 1
    17    8   12 1
    18    8   22 1
    19    8   23 1
    20    8   24 1
    21    9   13 1
    22    9   25 1
    23    9   26 1
    24    9   27 1
    25   10   13 1
    26   10   28 1
    27   10   29 1
    28   10   30 1
    29   11   15 1
    30   11   31 1
    31   11   32 1
    32   11   33 1
    33   12   34 1
    34   13   14 1
    35   14   35 1
