@<TRIPOS>MOLECULE
*****
   27    27     0     0     0
SMALL
NO_CHARGES

@<TRIPOS>ATOM
      1 C1         -1.5599   -0.6503   -1.3665 C.2       1 <0>         0.0000
      2 C2          1.2531   -1.2568    0.6256 C.3       1 <0>         0.0000
      3 C3         -0.2609   -1.5373    0.6445 C.3       1 <0>         0.0000
      4 C4          1.3042    0.2684    0.7015 C.3       1 <0>         0.0000
      5 C5         -0.8926   -0.2880   -0.0340 C.3       1 <0>         0.0000
      6 C6         -2.0756    0.6074   -4.3734 C.3       1 <0>         0.0000
      7 C7         -0.1882    2.0691   -0.0670 C.3       1 <0>         0.0000
      8 C8         -1.2983   -0.5930   -3.8225 C.3       1 <0>         0.0000
      9 N1          0.2148    0.6755   -0.1927 N.3       1 <0>         0.0000
     10 N2         -0.8114   -0.3773   -2.4667 N.am      1 <0>         0.0000
     11 O1         -2.6688   -1.1899   -1.3954 O.2       1 <0>         0.0000
     12 H1          1.7857   -1.7417    1.4482 H         1 <0>         0.0000
     13 H2          1.6973   -1.5952   -0.3161 H         1 <0>         0.0000
     14 H3         -0.5375   -2.4629    0.1359 H         1 <0>         0.0000
     15 H4         -0.6198   -1.6124    1.6749 H         1 <0>         0.0000
     16 H5          1.1308    0.6083    1.7397 H         1 <0>         0.0000
     17 H6          2.2551    0.6949    0.3638 H         1 <0>         0.0000
     18 H7         -1.6949    0.1138    0.6001 H         1 <0>         0.0000
     19 H8         -2.9453    0.8141   -3.7433 H         1 <0>         0.0000
     20 H9         -1.4474    1.5047   -4.4039 H         1 <0>         0.0000
     21 H10        -2.4278    0.4034   -5.3908 H         1 <0>         0.0000
     22 H11        -0.9666    2.2995   -0.8015 H         1 <0>         0.0000
     23 H12         0.6678    2.7223   -0.2658 H         1 <0>         0.0000
     24 H13        -0.5813    2.3098    0.9373 H         1 <0>         0.0000
     25 H14        -0.4387   -0.8220   -4.4614 H         1 <0>         0.0000
     26 H15        -1.9424   -1.4752   -3.7987 H         1 <0>         0.0000
     27 H16         0.0381    0.1503   -2.2852 H         1 <0>         0.0000
@<TRIPOS>BOND
     1    1    5 1
     2    1   10 am
     3    1   11 2
     4    2    3 1
     5    2    4 1
     6    2   12 1
     7    2   13 1
     8    3    5 1
     9    3   14 1
    10    3   15 1
    11    4    9 1
    12    4   16 1
    13    4   17 1
    14    5    9 1
    15    5   18 1
    16    6    8 1
    17    6   19 1
    18    6   20 1
    19    6   21 1
    20    7    9 1
    21    7   22 1
    22    7   23 1
    23    7   24 1
    24    8   10 1
    25    8   25 1
    26    8   26 1
    27   10   27 1
