@<TRIPOS>MOLECULE
*****
   17    17     0     0     0
SMALL
NO_CHARGES

@<TRIPOS>ATOM
      1 C1          4.0444   -2.0049   -2.9378 C.2       1 <0>         0.0000
      2 C2          4.8731   -1.5477   -1.9434 C.2       1 <0>         0.0000
      3 C3          2.9239   -0.6907   -1.7376 C.2       1 <0>         0.0000
      4 C4          0.7024   -0.6376   -0.5478 C.3       1 <0>         0.0000
      5 C5          1.3936    1.2932   -2.0138 C.3       1 <0>         0.0000
      6 C6          1.8796    0.1874   -1.0736 C.3       1 <0>         0.0000
      7 N1          2.7967   -1.4524   -2.8005 N.2       1 <0>         0.0000
      8 O1          4.1563   -0.6949   -1.1596 O.3       1 <0>         0.0000
      9 H1          4.2762   -2.6942   -3.7358 H         1 <0>         0.0000
     10 H2          5.9038   -1.7090   -1.6661 H         1 <0>         0.0000
     11 H3          0.1822   -1.1688   -1.3524 H         1 <0>         0.0000
     12 H4         -0.0285    0.0088   -0.0498 H         1 <0>         0.0000
     13 H5          1.0411   -1.3834    0.1800 H         1 <0>         0.0000
     14 H6          0.9214    0.8685   -2.9067 H         1 <0>         0.0000
     15 H7          2.2334    1.9152   -2.3425 H         1 <0>         0.0000
     16 H8          0.6629    1.9507   -1.5302 H         1 <0>         0.0000
     17 H9          2.3386    0.6813   -0.2068 H         1 <0>         0.0000
@<TRIPOS>BOND
     1    1    2 2
     2    1    7 1
     3    1    9 1
     4    2    8 1
     5    2   10 1
     6    3    6 1
     7    3    7 2
     8    3    8 1
     9    4    6 1
    10    4   11 1
    11    4   12 1
    12    4   13 1
    13    5    6 1
    14    5   14 1
    15    5   15 1
    16    5   16 1
    17    6   17 1
