@<TRIPOS>MOLECULE
*****
   28    29     0     0     0
SMALL
NO_CHARGES

@<TRIPOS>ATOM
      1 C1          2.1835   -0.7405    3.8567 C.ar      1 <0>         0.0000
      2 C2          2.1458   -2.1339    3.7058 C.ar      1 <0>         0.0000
      3 C3          1.4850    0.0726    2.9809 C.ar      1 <0>         0.0000
      4 C4          0.8078   -0.6172    1.9212 C.ar      1 <0>         0.0000
      5 C5         -0.5588    1.4885   -0.8285 C.3       1 <0>         0.0000
      6 C6         -1.5154    0.2895   -0.7452 C.3       1 <0>         0.0000
      7 C7          0.2619    1.3950    0.4729 C.3       1 <0>         0.0000
      8 C8         -0.6560   -0.7954   -0.0816 C.3       1 <0>         0.0000
      9 C9          1.4052    1.5564    3.2610 C.3       1 <0>         0.0000
     10 C10         0.2384   -1.5332   -1.0892 C.3       1 <0>         0.0000
     11 N1          1.4207   -2.7228    2.7589 N.ar      1 <0>         0.0000
     12 N2          0.7706   -1.9723    1.8744 N.ar      1 <0>         0.0000
     13 N3          0.1021   -0.0014    0.9128 N.pl3     1 <0>         0.0000
     14 H1          2.7295   -0.3003    4.6880 H         1 <0>         0.0000
     15 H2          2.6789   -2.7997    4.3795 H         1 <0>         0.0000
     16 H3          0.0949    1.3929   -1.6999 H         1 <0>         0.0000
     17 H4         -1.0771    2.4475   -0.9103 H         1 <0>         0.0000
     18 H5         -2.3714    0.5295   -0.1051 H         1 <0>         0.0000
     19 H6         -1.8952   -0.0213   -1.7220 H         1 <0>         0.0000
     20 H7          1.3156    1.6439    0.3018 H         1 <0>         0.0000
     21 H8         -0.1314    2.0901    1.2188 H         1 <0>         0.0000
     22 H9         -1.2596   -1.5304    0.4548 H         1 <0>         0.0000
     23 H10         1.8562    2.1691    2.4771 H         1 <0>         0.0000
     24 H11         0.3663    1.8793    3.3798 H         1 <0>         0.0000
     25 H12         1.9271    1.7797    4.1954 H         1 <0>         0.0000
     26 H13         0.8628   -0.8356   -1.6582 H         1 <0>         0.0000
     27 H14        -0.3849   -2.0875   -1.7999 H         1 <0>         0.0000
     28 H15         0.8856   -2.2424   -0.5724 H         1 <0>         0.0000
@<TRIPOS>BOND
     1    1    2 ar
     2    1    3 ar
     3    1   14 1
     4    2   11 ar
     5    2   15 1
     6    3    4 ar
     7    3    9 1
     8    4   12 ar
     9    4   13 1
    10    5    6 1
    11    5    7 1
    12    5   16 1
    13    5   17 1
    14    6    8 1
    15    6   18 1
    16    6   19 1
    17    7   13 1
    18    7   20 1
    19    7   21 1
    20    8   10 1
    21    8   13 1
    22    8   22 1
    23    9   23 1
    24    9   24 1
    25    9   25 1
    26   10   26 1
    27   10   27 1
    28   10   28 1
    29   11   12 ar
