@<TRIPOS>MOLECULE
*****
   28    29     0     0     0
SMALL
NO_CHARGES

@<TRIPOS>ATOM
      1 C1          1.6339    2.5196    1.1436 C.2       1 <0>         0.0000
      2 C2          3.8306    5.4341    0.5909 C.3       1 <0>         0.0000
      3 C3          3.8628    4.2841   -0.3889 C.3       1 <0>         0.0000
      4 C4         -1.2007    0.1314    1.5859 C.3       1 <0>         0.0000
      5 C5         -2.3983    1.1636   -0.1771 C.3       1 <0>         0.0000
      6 C6          3.5636    4.0269    1.0669 C.3       1 <0>         0.0000
      7 C7         -2.2798   -0.1883    0.5409 C.3       1 <0>         0.0000
      8 C8          0.2260    2.2575    1.7254 C.3       1 <0>         0.0000
      9 N1          2.2051    3.6925    1.4489 N.am      1 <0>         0.0000
     10 N2         -0.3246    1.1398    0.9031 N.4       1 <0>         0.0000
     11 O1          2.1360    1.6175    0.4652 O.2       1 <0>         0.0000
     12 O2         -1.0426    1.6776   -0.2350 O.3       1 <0>         0.0000
     13 O3         -3.4491   -0.5613    1.2297 O.3       1 <0>         0.0000
     14 H1          4.7647    5.8922    0.8983 H         1 <0>         0.0000
     15 H2          2.9873    6.1165    0.5332 H         1 <0>         0.0000
     16 H3          3.0388    4.1934   -1.0885 H         1 <0>         0.0000
     17 H4          4.8201    3.9373   -0.7626 H         1 <0>         0.0000
     18 H5         -1.6711    0.5914    2.4559 H         1 <0>         0.0000
     19 H6         -0.5879   -0.7182    1.8875 H         1 <0>         0.0000
     20 H7         -2.7276    1.1021   -1.2145 H         1 <0>         0.0000
     21 H8         -3.0421    1.8401    0.3941 H         1 <0>         0.0000
     22 H9          4.3199    3.5275    1.6656 H         1 <0>         0.0000
     23 H10        -1.9328   -0.9648   -0.1494 H         1 <0>         0.0000
     24 H11        -0.4634    3.1000    1.6678 H         1 <0>         0.0000
     25 H12         0.3140    1.9112    2.7582 H         1 <0>         0.0000
     26 H13         1.7061    4.3382    2.0522 H         1 <0>         0.0000
     27 H14         0.5411    0.7235    0.4770 H         1 <0>         0.0000
     28 H15        -3.9741   -1.1773    0.6946 H         1 <0>         0.0000
@<TRIPOS>BOND
     1    1    8 1
     2    1    9 am
     3    1   11 2
     4    2    3 1
     5    2    6 1
     6    2   14 1
     7    2   15 1
     8    3    6 1
     9    3   16 1
    10    3   17 1
    11    4    7 1
    12    4   10 1
    13    4   18 1
    14    4   19 1
    15    5    7 1
    16    5   12 1
    17    5   20 1
    18    5   21 1
    19    6    9 1
    20    6   22 1
    21    7   13 1
    22    7   23 1
    23    8   10 1
    24    8   24 1
    25    8   25 1
    26    9   26 1
    27   10   12 1
    28   10   27 1
    29   13   28 1
