@<TRIPOS>MOLECULE
*****
   28    29     0     0     0
SMALL
NO_CHARGES

@<TRIPOS>ATOM
      1 C1          1.1213    1.6984   -0.6409 C.2       1 <0>         0.0000
      2 C2          3.1358    4.4351   -2.0731 C.3       1 <0>         0.0000
      3 C3          2.6622    3.3121   -2.9662 C.3       1 <0>         0.0000
      4 C4          0.2326   -0.7493    1.3152 C.3       1 <0>         0.0000
      5 C5         -2.1059   -0.7878    1.7150 C.3       1 <0>         0.0000
      6 C6          2.9762    3.0411   -1.5162 C.3       1 <0>         0.0000
      7 C7         -0.8789   -1.7094    1.7653 C.3       1 <0>         0.0000
      8 C8         -0.0323    1.6156    0.3829 C.3       1 <0>         0.0000
      9 N1          1.8800    2.8041   -0.5966 N.am      1 <0>         0.0000
     10 N2         -0.4642    0.1853    0.3637 N.4       1 <0>         0.0000
     11 O1          1.2406    0.7662   -1.4423 O.2       1 <0>         0.0000
     12 O2         -1.8879    0.0707    0.5628 O.3       1 <0>         0.0000
     13 O3         -0.5654   -2.1503    3.0649 O.3       1 <0>         0.0000
     14 H1          4.1472    4.8103   -2.1877 H         1 <0>         0.0000
     15 H2          2.4044    5.1831   -1.7801 H         1 <0>         0.0000
     16 H3          1.6175    3.3060   -3.2587 H         1 <0>         0.0000
     17 H4          3.3445    2.9013   -3.7024 H         1 <0>         0.0000
     18 H5          0.5907   -0.1845    2.1766 H         1 <0>         0.0000
     19 H6          1.0652   -1.2177    0.7915 H         1 <0>         0.0000
     20 H7         -3.0504   -1.2964    1.5206 H         1 <0>         0.0000
     21 H8         -2.1690   -0.1887    2.6285 H         1 <0>         0.0000
     22 H9          3.8703    2.4695   -1.2839 H         1 <0>         0.0000
     23 H10        -0.9852   -2.5376    1.0562 H         1 <0>         0.0000
     24 H11        -0.8875    2.2026    0.0409 H         1 <0>         0.0000
     25 H12         0.2332    1.9079    1.3990 H         1 <0>         0.0000
     26 H13         1.7313    3.4733    0.1515 H         1 <0>         0.0000
     27 H14        -0.2662   -0.1168   -0.6131 H         1 <0>         0.0000
     28 H15        -0.9229   -3.0396    3.2151 H         1 <0>         0.0000
@<TRIPOS>BOND
     1    1    8 1
     2    1    9 am
     3    1   11 2
     4    2    3 1
     5    2    6 1
     6    2   14 1
     7    2   15 1
     8    3    6 1
     9    3   16 1
    10    3   17 1
    11    4    7 1
    12    4   10 1
    13    4   18 1
    14    4   19 1
    15    5    7 1
    16    5   12 1
    17    5   20 1
    18    5   21 1
    19    6    9 1
    20    6   22 1
    21    7   13 1
    22    7   23 1
    23    8   10 1
    24    8   24 1
    25    8   25 1
    26    9   26 1
    27   10   12 1
    28   10   27 1
    29   13   28 1
