@<TRIPOS>MOLECULE
*****
   28    29     0     0     0
SMALL
NO_CHARGES

@<TRIPOS>ATOM
      1 C1          2.0390   -0.3165    0.4021 C.2       1 <0>         0.0000
      2 C2          4.2180   -2.6438   -0.2025 C.3       1 <0>         0.0000
      3 C3          5.4200   -1.7326   -0.1039 C.3       1 <0>         0.0000
      4 C4         -1.0569    0.8807    2.1136 C.3       1 <0>         0.0000
      5 C5         -1.1044    2.7937    0.7286 C.3       1 <0>         0.0000
      6 C6          4.0984   -1.1915   -0.5909 C.3       1 <0>         0.0000
      7 C7         -1.1667    2.4064    2.2036 C.3       1 <0>         0.0000
      8 C8          1.4085    0.6908    1.3877 C.3       1 <0>         0.0000
      9 N1          3.3742   -0.2921    0.2860 N.am      1 <0>         0.0000
     10 N2         -0.0449    0.7136    1.0167 N.4       1 <0>         0.0000
     11 O1          1.2748   -1.1001   -0.1724 O.2       1 <0>         0.0000
     12 O2         -0.2910    1.7642    0.0709 O.3       1 <0>         0.0000
     13 O3         -0.0351    2.9508    2.8705 O.3       1 <0>         0.0000
     14 H1          4.1743   -3.3731   -1.0041 H         1 <0>         0.0000
     15 H2          3.7419   -2.9520    0.7223 H         1 <0>         0.0000
     16 H3          5.7487   -1.4445    0.8907 H         1 <0>         0.0000
     17 H4          6.2163   -1.8286   -0.8344 H         1 <0>         0.0000
     18 H5         -0.7016    0.4020    3.0245 H         1 <0>         0.0000
     19 H6         -1.9849    0.4181    1.7716 H         1 <0>         0.0000
     20 H7         -2.0870    2.7862    0.2526 H         1 <0>         0.0000
     21 H8         -0.6023    3.7493    0.5806 H         1 <0>         0.0000
     22 H9          3.9910   -0.9514   -1.6448 H         1 <0>         0.0000
     23 H10        -2.1126    2.7126    2.6581 H         1 <0>         0.0000
     24 H11         1.7947    1.7069    1.3346 H         1 <0>         0.0000
     25 H12         1.5025    0.3178    2.4090 H         1 <0>         0.0000
     26 H13         3.8889    0.4630    0.7269 H         1 <0>         0.0000
     27 H14        -0.1499   -0.1747    0.4605 H         1 <0>         0.0000
     28 H15        -0.2575    3.1628    3.7909 H         1 <0>         0.0000
@<TRIPOS>BOND
     1    1    8 1
     2    1    9 am
     3    1   11 2
     4    2    3 1
     5    2    6 1
     6    2   14 1
     7    2   15 1
     8    3    6 1
     9    3   16 1
    10    3   17 1
    11    4    7 1
    12    4   10 1
    13    4   18 1
    14    4   19 1
    15    5    7 1
    16    5   12 1
    17    5   20 1
    18    5   21 1
    19    6    9 1
    20    6   22 1
    21    7   13 1
    22    7   23 1
    23    8   10 1
    24    8   24 1
    25    8   25 1
    26    9   26 1
    27   10   12 1
    28   10   27 1
    29   13   28 1
