@<TRIPOS>MOLECULE
*****
   28    29     0     0     0
SMALL
NO_CHARGES

@<TRIPOS>ATOM
      1 C1          1.8089    1.5480    0.4001 C.2       1 <0>         0.0000
      2 C2          4.8740    0.6008   -0.2271 C.3       1 <0>         0.0000
      3 C3          5.4478    1.1630    1.0534 C.3       1 <0>         0.0000
      4 C4         -1.1959    1.4525   -0.6294 C.3       1 <0>         0.0000
      5 C5         -0.3782   -0.7295   -1.1172 C.3       1 <0>         0.0000
      6 C6          4.2425    1.8102    0.4178 C.3       1 <0>         0.0000
      7 C7         -1.5076    0.2332   -1.5121 C.3       1 <0>         0.0000
      8 C8          0.5492    1.5517    1.2870 C.3       1 <0>         0.0000
      9 N1          2.9663    1.6575    1.0855 N.am      1 <0>         0.0000
     10 N2         -0.5889    0.8349    0.6159 N.4       1 <0>         0.0000
     11 O1          1.7096    1.4798   -0.8216 O.2       1 <0>         0.0000
     12 O2         -0.2037   -0.5270    0.3178 O.3       1 <0>         0.0000
     13 O3         -1.4551    0.6545   -2.8524 O.3       1 <0>         0.0000
     14 H1          5.4078    0.7596   -1.1579 H         1 <0>         0.0000
     15 H2          4.3283   -0.3348   -0.1644 H         1 <0>         0.0000
     16 H3          5.2940    0.5899    1.9636 H         1 <0>         0.0000
     17 H4          6.3831    1.7114    1.0165 H         1 <0>         0.0000
     18 H5         -0.4458    2.0712   -1.1144 H         1 <0>         0.0000
     19 H6         -2.0711    2.0292   -0.3287 H         1 <0>         0.0000
     20 H7         -0.6302   -1.7855   -1.2194 H         1 <0>         0.0000
     21 H8          0.5439   -0.4735   -1.6404 H         1 <0>         0.0000
     22 H9          4.3676    2.7712   -0.0730 H         1 <0>         0.0000
     23 H10        -2.4841   -0.1923   -1.2508 H         1 <0>         0.0000
     24 H11         0.2066    2.5743    1.4741 H         1 <0>         0.0000
     25 H12         0.7071    1.0453    2.2412 H         1 <0>         0.0000
     26 H13         2.9437    1.7554    2.0947 H         1 <0>         0.0000
     27 H14        -1.3276    0.7207    1.3178 H         1 <0>         0.0000
     28 H15        -2.0068    0.0794   -3.4058 H         1 <0>         0.0000
@<TRIPOS>BOND
     1    1    8 1
     2    1    9 am
     3    1   11 2
     4    2    3 1
     5    2    6 1
     6    2   14 1
     7    2   15 1
     8    3    6 1
     9    3   16 1
    10    3   17 1
    11    4    7 1
    12    4   10 1
    13    4   18 1
    14    4   19 1
    15    5    7 1
    16    5   12 1
    17    5   20 1
    18    5   21 1
    19    6    9 1
    20    6   22 1
    21    7   13 1
    22    7   23 1
    23    8   10 1
    24    8   24 1
    25    8   25 1
    26    9   26 1
    27   10   12 1
    28   10   27 1
    29   13   28 1
