@<TRIPOS>MOLECULE
*****
   28    29     0     0     0
SMALL
NO_CHARGES

@<TRIPOS>ATOM
      1 C1          1.8417    1.1644    1.1304 C.2       1 <0>         0.0000
      2 C2          5.4319    1.7367    1.8535 C.3       1 <0>         0.0000
      3 C3          4.7180    2.6328    0.8676 C.3       1 <0>         0.0000
      4 C4         -1.5223   -0.5825    1.7064 C.3       1 <0>         0.0000
      5 C5         -0.9886    0.0325   -0.5660 C.3       1 <0>         0.0000
      6 C6          4.2923    1.1934    1.0267 C.3       1 <0>         0.0000
      7 C7         -2.0862    0.1991    0.5147 C.3       1 <0>         0.0000
      8 C8          0.6079    0.7949    1.9756 C.3       1 <0>         0.0000
      9 N1          3.0447    0.9045    1.6998 N.am      1 <0>         0.0000
     10 N2         -0.0300   -0.4958    1.4700 N.4       1 <0>         0.0000
     11 O1          1.6686    1.6643    0.0270 O.2       1 <0>         0.0000
     12 O2          0.1025   -0.7082    0.0691 O.3       1 <0>         0.0000
     13 O3         -2.2497    1.5436    0.9409 O.3       1 <0>         0.0000
     14 H1          6.4303    1.3832    1.6181 H         1 <0>         0.0000
     15 H2          5.2518    1.9130    2.9106 H         1 <0>         0.0000
     16 H3          4.0530    3.3924    1.2644 H         1 <0>         0.0000
     17 H4          5.2175    2.8997   -0.0574 H         1 <0>         0.0000
     18 H5         -1.7820   -0.1346    2.6650 H         1 <0>         0.0000
     19 H6         -1.7865   -1.6393    1.6741 H         1 <0>         0.0000
     20 H7         -1.2870   -0.5865   -1.4121 H         1 <0>         0.0000
     21 H8         -0.6014    1.0001   -0.8913 H         1 <0>         0.0000
     22 H9          4.5204    0.5063    0.2167 H         1 <0>         0.0000
     23 H10        -3.0372   -0.2395    0.1980 H         1 <0>         0.0000
     24 H11        -0.1323    1.5840    1.8543 H         1 <0>         0.0000
     25 H12         0.8022    0.6232    3.0378 H         1 <0>         0.0000
     26 H13         3.0860    0.4955    2.6257 H         1 <0>         0.0000
     27 H14         0.4659   -1.2995    1.8695 H         1 <0>         0.0000
     28 H15        -2.7453    2.0497    0.2759 H         1 <0>         0.0000
@<TRIPOS>BOND
     1    1    8 1
     2    1    9 am
     3    1   11 2
     4    2    3 1
     5    2    6 1
     6    2   14 1
     7    2   15 1
     8    3    6 1
     9    3   16 1
    10    3   17 1
    11    4    7 1
    12    4   10 1
    13    4   18 1
    14    4   19 1
    15    5    7 1
    16    5   12 1
    17    5   20 1
    18    5   21 1
    19    6    9 1
    20    6   22 1
    21    7   13 1
    22    7   23 1
    23    8   10 1
    24    8   24 1
    25    8   25 1
    26    9   26 1
    27   10   12 1
    28   10   27 1
    29   13   28 1
