@<TRIPOS>MOLECULE
*****
   14    14     0     0     0
SMALL
NO_CHARGES

@<TRIPOS>ATOM
      1 C1          1.7180   -1.1185    5.3257 C.1       1 <0>         0.0000
      2 C2          1.7555   -1.1004    4.1128 C.1       1 <0>         0.0000
      3 C3          1.8853   -1.0367   -0.1275 C.ar      1 <0>         0.0000
      4 C4          2.9235   -1.6325    0.5978 C.ar      1 <0>         0.0000
      5 C5          0.8040   -0.4619    0.5504 C.ar      1 <0>         0.0000
      6 C6          2.8845   -1.6555    1.9923 C.ar      1 <0>         0.0000
      7 C7          0.7580   -0.4810    1.9447 C.ar      1 <0>         0.0000
      8 C8          1.7994   -1.0789    2.6808 C.ar      1 <0>         0.0000
      9 H1          1.6851   -1.1344    6.3944 H         1 <0>         0.0000
     10 H2          1.9186   -1.0204   -1.2137 H         1 <0>         0.0000
     11 H3          3.7648   -2.0799    0.0751 H         1 <0>         0.0000
     12 H4         -0.0042    0.0018   -0.0091 H         1 <0>         0.0000
     13 H5          3.6877   -2.1167    2.5595 H         1 <0>         0.0000
     14 H6         -0.0788   -0.0363    2.4753 H         1 <0>         0.0000
@<TRIPOS>BOND
     1    1    2 3
     2    1    9 1
     3    2    8 1
     4    3    5 ar
     5    3    4 ar
     6    3   10 1
     7    4    6 ar
     8    4   11 1
     9    5    7 ar
    10    5   12 1
    11    6    8 ar
    12    6   13 1
    13    7    8 ar
    14    7   14 1
