@<TRIPOS>MOLECULE
*****
   25    25     0     0     0
SMALL
NO_CHARGES

@<TRIPOS>ATOM
      1 C1          4.9213    1.6053   -4.5672 C.2       1 <0>         0.0000
      2 C2          4.1531    0.6414   -3.9792 C.2       1 <0>         0.0000
      3 C3          5.9380   -0.6001   -4.3966 C.2       1 <0>         0.0000
      4 C4          1.7259    0.0974   -4.3259 C.2       1 <0>         0.0000
      5 C5         -0.4178   -0.8968   -4.3183 C.3       1 <0>         0.0000
      6 C6          5.4871   -3.6750   -3.0102 C.3       1 <0>         0.0000
      7 C7          2.7568    0.8163   -3.4641 C.3       1 <0>         0.0000
      8 N1          4.7369   -0.6098   -3.8953 N.2       1 <0>         0.0000
      9 N2          6.7561   -1.7312   -4.4263 N.pl3     1 <0>         0.0000
     10 O1          1.8231   -0.1045   -5.5183 O.2       1 <0>         0.0000
     11 O2          8.1473   -3.4844   -3.2911 O.2       1 <0>         0.0000
     12 O3          6.9348   -1.8057   -1.8028 O.2       1 <0>         0.0000
     13 O4          0.6501   -0.2580   -3.5850 O.3       1 <0>         0.0000
     14 S1          6.4746    0.9556   -5.0106 S.3       1 <0>         0.0000
     15 S2          6.9725   -2.6668   -2.9820 S.o2      1 <0>         0.0000
     16 H1          4.6620    2.6309   -4.7933 H         1 <0>         0.0000
     17 H2         -1.1905   -1.1089   -3.5797 H         1 <0>         0.0000
     18 H3         -0.0604   -1.8198   -4.7804 H         1 <0>         0.0000
     19 H4         -0.7980   -0.2297   -5.0954 H         1 <0>         0.0000
     20 H5          5.5176   -4.2916   -2.1100 H         1 <0>         0.0000
     21 H6          4.6333   -2.9974   -3.0050 H         1 <0>         0.0000
     22 H7          5.5126   -4.2873   -3.9112 H         1 <0>         0.0000
     23 H8          2.6786    0.4530   -2.4362 H         1 <0>         0.0000
     24 H9          2.4854    1.8769   -3.4550 H         1 <0>         0.0000
     25 H10         7.6513   -1.6424   -4.9024 H         1 <0>         0.0000
@<TRIPOS>BOND
     1    1    2 2
     2    1   14 1
     3    1   16 1
     4    2    7 1
     5    2    8 1
     6    3    8 2
     7    3    9 1
     8    3   14 1
     9    4    7 1
    10    4   10 2
    11    4   13 1
    12    5   13 1
    13    5   17 1
    14    5   18 1
    15    5   19 1
    16    6   15 1
    17    6   20 1
    18    6   21 1
    19    6   22 1
    20    7   23 1
    21    7   24 1
    22    9   15 1
    23    9   25 1
    24   11   15 2
    25   12   15 2
