@<TRIPOS>MOLECULE
*****
   25    25     0     0     0
SMALL
NO_CHARGES

@<TRIPOS>ATOM
      1 C1          4.6264    1.0101   -4.9657 C.2       1 <0>         0.0000
      2 C2          3.9723    0.1984   -4.0782 C.2       1 <0>         0.0000
      3 C3          5.7348   -1.0899   -4.4437 C.2       1 <0>         0.0000
      4 C4          2.9734    1.3687   -2.1284 C.2       1 <0>         0.0000
      5 C5          3.3920    1.2961    0.1940 C.3       1 <0>         0.0000
      6 C6          9.1556   -1.9528   -5.1918 C.3       1 <0>         0.0000
      7 C7          2.6841    0.5389   -3.3726 C.3       1 <0>         0.0000
      8 N1          4.6170   -0.9890   -3.7821 N.2       1 <0>         0.0000
      9 N2          6.5559   -2.2291   -4.4042 N.pl3     1 <0>         0.0000
     10 O1          3.1530    2.5713   -2.1385 O.2       1 <0>         0.0000
     11 O2          8.2688   -0.8733   -2.9416 O.2       1 <0>         0.0000
     12 O3          8.3743   -3.4259   -3.1156 O.2       1 <0>         0.0000
     13 O4          3.0353    0.6017   -1.0219 O.3       1 <0>         0.0000
     14 S1          6.0944    0.2558   -5.5043 S.3       1 <0>         0.0000
     15 S2          8.1454   -2.1090   -3.7112 S.o2      1 <0>         0.0000
     16 H1          4.3506    2.0028   -5.2957 H         1 <0>         0.0000
     17 H2          3.4092    0.5308    0.9693 H         1 <0>         0.0000
     18 H3          2.6506    2.0648    0.4235 H         1 <0>         0.0000
     19 H4          4.3748    1.7605    0.0875 H         1 <0>         0.0000
     20 H5         10.1927   -1.9107   -4.8539 H         1 <0>         0.0000
     21 H6          8.9809   -2.8258   -5.8198 H         1 <0>         0.0000
     22 H7          8.8857   -1.0288   -5.7040 H         1 <0>         0.0000
     23 H8          2.0463    1.1411   -4.0221 H         1 <0>         0.0000
     24 H9          2.1691   -0.3837   -3.1008 H         1 <0>         0.0000
     25 H10         6.0802   -3.0033   -3.9369 H         1 <0>         0.0000
@<TRIPOS>BOND
     1    1    2 2
     2    1   14 1
     3    1   16 1
     4    2    7 1
     5    2    8 1
     6    3    8 2
     7    3    9 1
     8    3   14 1
     9    4    7 1
    10    4   10 2
    11    4   13 1
    12    5   13 1
    13    5   17 1
    14    5   18 1
    15    5   19 1
    16    6   15 1
    17    6   20 1
    18    6   21 1
    19    6   22 1
    20    7   23 1
    21    7   24 1
    22    9   15 1
    23    9   25 1
    24   11   15 2
    25   12   15 2
