@<TRIPOS>MOLECULE
*****
   27    28     0     0     0
SMALL
NO_CHARGES

@<TRIPOS>ATOM
      1 C1         -1.7179   -2.8403   -1.5385 C.2       1 <0>         0.0000
      2 C2         -2.3163   -3.5093   -4.6906 C.3       1 <0>         0.0000
      3 C3         -3.3742   -2.4372   -4.8530 C.3       1 <0>         0.0000
      4 C4         -0.2481    0.0389   -1.5769 C.3       1 <0>         0.0000
      5 C5         -0.1088    0.5662    0.7596 C.3       1 <0>         0.0000
      6 C6         -3.1576   -3.0923   -3.5101 C.3       1 <0>         0.0000
      7 C7          0.7621    0.5217   -0.5117 C.3       1 <0>         0.0000
      8 C8         -1.2875   -1.8677   -0.4349 C.3       1 <0>         0.0000
      9 N1         -1.4199   -0.4625   -0.8481 N.3       1 <0>         0.0000
     10 N2         -2.5535   -2.3056   -2.4726 N.am      1 <0>         0.0000
     11 O1         -1.3370   -4.0084   -1.5314 O.2       1 <0>         0.0000
     12 O2         -1.4713    0.3841    0.3176 O.3       1 <0>         0.0000
     13 O3          1.2553    1.7943   -0.9353 O.3       1 <0>         0.0000
     14 H1         -2.4977   -4.4925   -5.1127 H         1 <0>         0.0000
     15 H2         -1.2772   -3.1980   -4.6818 H         1 <0>         0.0000
     16 H3         -3.0361   -1.4112   -4.9681 H         1 <0>         0.0000
     17 H4         -4.2859   -2.6778   -5.3913 H         1 <0>         0.0000
     18 H5         -0.5381    0.9068   -2.1742 H         1 <0>         0.0000
     19 H6          0.1460   -0.7372   -2.2357 H         1 <0>         0.0000
     20 H7          0.1687   -0.2240    1.4695 H         1 <0>         0.0000
     21 H8         -0.0641    1.5385    1.2553 H         1 <0>         0.0000
     22 H9         -3.9068   -3.8030   -3.1677 H         1 <0>         0.0000
     23 H10         1.5951   -0.1811   -0.3889 H         1 <0>         0.0000
     24 H11        -1.9589   -2.0179    0.4149 H         1 <0>         0.0000
     25 H12        -0.2764   -2.1630   -0.1239 H         1 <0>         0.0000
     26 H13        -2.8540   -1.3490   -2.3121 H         1 <0>         0.0000
     27 H14         1.9908    2.0484   -0.3569 H         1 <0>         0.0000
@<TRIPOS>BOND
     1    1    8 1
     2    1   10 am
     3    1   11 2
     4    2    3 1
     5    2    6 1
     6    2   14 1
     7    2   15 1
     8    3    6 1
     9    3   16 1
    10    3   17 1
    11    4    7 1
    12    4    9 1
    13    4   18 1
    14    4   19 1
    15    5    7 1
    16    5   12 1
    17    5   20 1
    18    5   21 1
    19    6   10 1
    20    6   22 1
    21    7   13 1
    22    7   23 1
    23    8    9 1
    24    8   24 1
    25    8   25 1
    26    9   12 1
    27   10   26 1
    28   13   27 1
