@<TRIPOS>MOLECULE
*****
   28    29     0     0     0
SMALL
NO_CHARGES

@<TRIPOS>ATOM
      1 C1          1.7171    0.8204   -1.3843 C.2       1 <0>         0.0000
      2 C2          4.1422   -0.5503   -3.0940 C.3       1 <0>         0.0000
      3 C3          5.1372    0.5502   -2.8045 C.3       1 <0>         0.0000
      4 C4          0.0568   -0.7522    0.9182 C.3       1 <0>         0.0000
      5 C5         -1.5004    0.6212    2.0283 C.3       1 <0>         0.0000
      6 C6          3.6629    0.8626   -2.8694 C.3       1 <0>         0.0000
      7 C7         -0.3292   -0.3162    2.3254 C.3       1 <0>         0.0000
      8 C8          1.0906    1.3537   -0.0825 C.3       1 <0>         0.0000
      9 N1          2.9880    1.1811   -1.6267 N.am      1 <0>         0.0000
     10 N2         -0.1368    0.5184    0.1230 N.4       1 <0>         0.0000
     11 O1          1.0131    0.1155   -2.1159 O.2       1 <0>         0.0000
     12 O2         -1.1599    1.2830    0.7702 O.3       1 <0>         0.0000
     13 O3          0.7989    0.3550    2.8685 O.3       1 <0>         0.0000
     14 H1          4.0678   -0.9419   -4.1027 H         1 <0>         0.0000
     15 H2          3.9471   -1.2717   -2.3074 H         1 <0>         0.0000
     16 H3          5.6120    0.5508   -1.8273 H         1 <0>         0.0000
     17 H4          5.7596    0.9241   -3.6106 H         1 <0>         0.0000
     18 H5          1.0899   -1.0830    0.8292 H         1 <0>         0.0000
     19 H6         -0.6233   -1.5024    0.5149 H         1 <0>         0.0000
     20 H7         -2.4394    0.0766    1.8934 H         1 <0>         0.0000
     21 H8         -1.6203    1.4152    2.7659 H         1 <0>         0.0000
     22 H9          3.2852    1.4148   -3.7252 H         1 <0>         0.0000
     23 H10        -0.6394   -1.1731    2.9322 H         1 <0>         0.0000
     24 H11         0.7412    2.3800   -0.2147 H         1 <0>         0.0000
     25 H12         1.7194    1.2878    0.8044 H         1 <0>         0.0000
     26 H13         3.4446    1.8217   -0.9856 H         1 <0>         0.0000
     27 H14        -0.4547    0.2850   -0.8399 H         1 <0>         0.0000
     28 H15         0.6653    0.5211    3.8162 H         1 <0>         0.0000
@<TRIPOS>BOND
     1    1    8 1
     2    1    9 am
     3    1   11 2
     4    2    3 1
     5    2    6 1
     6    2   14 1
     7    2   15 1
     8    3    6 1
     9    3   16 1
    10    3   17 1
    11    4    7 1
    12    4   10 1
    13    4   18 1
    14    4   19 1
    15    5    7 1
    16    5   12 1
    17    5   20 1
    18    5   21 1
    19    6    9 1
    20    6   22 1
    21    7   13 1
    22    7   23 1
    23    8   10 1
    24    8   24 1
    25    8   25 1
    26    9   26 1
    27   10   12 1
    28   10   27 1
    29   13   28 1
