@<TRIPOS>MOLECULE
*****
    7     6     0     0     0
SMALL
NO_CHARGES

@<TRIPOS>ATOM
      1 C1         -0.7983   -0.7371   -0.0741 C.3       1 <0>         0.0000
      2 O1         -2.9449   -0.5401   -1.6089 O.2       1 <0>         0.0000
      3 S1         -1.4999   -0.8606   -1.7599 S.o       1 <0>         0.0000
      4 Cl1        -0.4132    0.9125   -2.5067 Cl        1 <0>         0.0000
      5 H1          0.2888   -0.8197   -0.1259 H         1 <0>         0.0000
      6 H2         -1.2277   -1.5648    0.4974 H         1 <0>         0.0000
      7 H3         -1.1009    0.2211    0.3508 H         1 <0>         0.0000
@<TRIPOS>BOND
     1    1    3 1
     2    1    5 1
     3    1    6 1
     4    1    7 1
     5    2    3 2
     6    3    4 1
