@<TRIPOS>MOLECULE
*****
   15    14     0     0     0
SMALL
NO_CHARGES

@<TRIPOS>ATOM
      1 C1          5.4716   -2.4685    2.0743 C.1       1 <0>         0.0000
      2 C2         -0.2219   -3.3292    3.5934 C.3       1 <0>         0.0000
      3 C3          4.1062   -2.0241    4.1232 C.3       1 <0>         0.0000
      4 C4          2.8995   -1.2489    3.5869 C.3       1 <0>         0.0000
      5 N1          5.1898   -2.0896    3.1807 N.2       1 <0>         0.0000
      6 S1          5.9966   -2.9228    0.6470 S.2       1 <0>         0.0000
      7 S2          1.3991   -3.8178    2.8900 S.3       1 <0>         0.0000
      8 S3          2.1022   -2.0089    2.1177 S.3       1 <0>         0.0000
      9 H1         -0.6770   -4.2443    3.9845 H         1 <0>         0.0000
     10 H2         -0.8633   -2.9069    2.8180 H         1 <0>         0.0000
     11 H3         -0.0996   -2.6138    4.4097 H         1 <0>         0.0000
     12 H4          3.8009   -3.0411    4.3956 H         1 <0>         0.0000
     13 H5          4.4668   -1.5305    5.0311 H         1 <0>         0.0000
     14 H6          2.1619   -1.1346    4.3869 H         1 <0>         0.0000
     15 H7          3.2025   -0.2506    3.2546 H         1 <0>         0.0000
@<TRIPOS>BOND
     1    1    5 2
     2    1    6 2
     3    2    7 1
     4    2    9 1
     5    2   10 1
     6    2   11 1
     7    3    4 1
     8    3    5 1
     9    3   12 1
    10    3   13 1
    11    4    8 1
    12    4   14 1
    13    4   15 1
    14    7    8 1
