@<TRIPOS>MOLECULE
*****
   15    14     0     0     0
SMALL
NO_CHARGES

@<TRIPOS>ATOM
      1 C1          2.3095   -3.0336    5.7520 C.1       1 <0>         0.0000
      2 C2         -0.4278   -2.0963    3.8797 C.3       1 <0>         0.0000
      3 C3          3.8612   -2.1446    3.9959 C.3       1 <0>         0.0000
      4 C4          3.1962   -1.6229    2.7187 C.3       1 <0>         0.0000
      5 N1          2.9352   -2.2470    5.0945 N.2       1 <0>         0.0000
      6 S1          1.4368   -3.9679    6.6931 S.2       1 <0>         0.0000
      7 S2          0.1458   -1.7309    2.1793 S.3       1 <0>         0.0000
      8 S3          1.9386   -2.7875    2.0335 S.3       1 <0>         0.0000
      9 H1         -1.4499   -1.7096    3.9426 H         1 <0>         0.0000
     10 H2          0.1952   -1.5947    4.6211 H         1 <0>         0.0000
     11 H3         -0.4350   -3.1714    4.0631 H         1 <0>         0.0000
     12 H4          4.6562   -1.4467    4.2817 H         1 <0>         0.0000
     13 H5          4.3217   -3.1219    3.8132 H         1 <0>         0.0000
     14 H6          2.7093   -0.6616    2.8948 H         1 <0>         0.0000
     15 H7          3.9712   -1.4838    1.9583 H         1 <0>         0.0000
@<TRIPOS>BOND
     1    1    5 2
     2    1    6 2
     3    2    7 1
     4    2    9 1
     5    2   10 1
     6    2   11 1
     7    3    4 1
     8    3    5 1
     9    3   12 1
    10    3   13 1
    11    4    8 1
    12    4   14 1
    13    4   15 1
    14    7    8 1
