@<TRIPOS>MOLECULE
*****
   25    25     0     0     0
SMALL
NO_CHARGES

@<TRIPOS>ATOM
      1 C1          5.4884    1.6711   -4.3260 C.2       1 <0>         0.0000
      2 C2          4.4535    0.8669   -3.9337 C.2       1 <0>         0.0000
      3 C3          5.9731   -0.7140   -4.2634 C.2       1 <0>         0.0000
      4 C4          2.6787    2.7154   -3.6708 C.2       1 <0>         0.0000
      5 C5          0.8611    4.2221   -3.5320 C.3       1 <0>         0.0000
      6 C6          8.8508   -2.3722   -5.6793 C.3       1 <0>         0.0000
      7 C7          3.0518    1.2527   -3.5482 C.3       1 <0>         0.0000
      8 N1          4.7403   -0.4897   -3.9092 N.2       1 <0>         0.0000
      9 N2          6.5553   -1.9932   -4.2524 N.pl3     1 <0>         0.0000
     10 O1          3.4264    3.6477   -3.8978 O.2       1 <0>         0.0000
     11 O2          6.8639   -4.1400   -5.5512 O.2       1 <0>         0.0000
     12 O3          6.5238   -1.9784   -6.8809 O.2       1 <0>         0.0000
     13 O4          1.3493    2.8644   -3.4690 O.3       1 <0>         0.0000
     14 S1          6.9051    0.7147   -4.6440 S.3       1 <0>         0.0000
     15 S2          7.0842   -2.7061   -5.7447 S.o2      1 <0>         0.0000
     16 H1          5.4896    2.7432   -4.4510 H         1 <0>         0.0000
     17 H2         -0.2106    4.1528   -3.3480 H         1 <0>         0.0000
     18 H3          1.0568    4.6504   -4.5176 H         1 <0>         0.0000
     19 H4          1.3453    4.8363   -2.7694 H         1 <0>         0.0000
     20 H5          9.2831   -2.8241   -6.5740 H         1 <0>         0.0000
     21 H6          9.0035   -1.2926   -5.6873 H         1 <0>         0.0000
     22 H7          9.2524   -2.8276   -4.7746 H         1 <0>         0.0000
     23 H8          2.3389    0.6667   -4.1370 H         1 <0>         0.0000
     24 H9          2.8679    0.9561   -2.5080 H         1 <0>         0.0000
     25 H10         5.9399   -2.6683   -3.7949 H         1 <0>         0.0000
@<TRIPOS>BOND
     1    1    2 2
     2    1   14 1
     3    1   16 1
     4    2    7 1
     5    2    8 1
     6    3    8 2
     7    3    9 1
     8    3   14 1
     9    4    7 1
    10    4   10 2
    11    4   13 1
    12    5   13 1
    13    5   17 1
    14    5   18 1
    15    5   19 1
    16    6   15 1
    17    6   20 1
    18    6   21 1
    19    6   22 1
    20    7   23 1
    21    7   24 1
    22    9   15 1
    23    9   25 1
    24   11   15 2
    25   12   15 2
