@<TRIPOS>MOLECULE
*****
   14    14     0     0     0
SMALL
NO_CHARGES

@<TRIPOS>ATOM
      1 C1          0.1129   -3.2539    0.7587 C.2       1 <0>         0.0000
      2 C2          0.4617   -2.0091    0.2884 C.2       1 <0>         0.0000
      3 C3          0.7617   -0.7660    1.0728 C.3       1 <0>         0.0000
      4 N1         -0.1371   -4.1868   -0.2168 N.2       1 <0>         0.0000
      5 N2          0.0002   -3.7570   -1.4162 N.2       1 <0>         0.0000
      6 N3          2.0732    1.2130    1.1360 N.3       1 <0>         0.0000
      7 N4          1.8522   -0.0189    0.4405 N.3       1 <0>         0.0000
      8 S1          0.4682   -2.0820   -1.4249 S.3       1 <0>         0.0000
      9 H1          0.0226   -3.5416    1.8001 H         1 <0>         0.0000
     10 H2         -0.1110   -0.1060    1.0819 H         1 <0>         0.0000
     11 H3          0.9658   -1.0454    2.1198 H         1 <0>         0.0000
     12 H4          2.7442    1.1034    1.8994 H         1 <0>         0.0000
     13 H5          2.4574    1.8780    0.4688 H         1 <0>         0.0000
     14 H6          2.6925   -0.6001    0.4203 H         1 <0>         0.0000
@<TRIPOS>BOND
     1    1    2 2
     2    1    4 1
     3    1    9 1
     4    2    3 1
     5    2    8 1
     6    3    7 1
     7    3   10 1
     8    3   11 1
     9    4    5 2
    10    5    8 1
    11    6    7 1
    12    6   12 1
    13    6   13 1
    14    7   14 1
