@<TRIPOS>MOLECULE
*****
   24    24     0     0     0
SMALL
NO_CHARGES

@<TRIPOS>ATOM
      1 C1          4.3938    1.9045   -4.8447 C.2       1 <0>         0.0000
      2 C2          3.7201    0.9354   -4.1579 C.2       1 <0>         0.0000
      3 C3          5.5368   -0.3059   -4.6095 C.2       1 <0>         0.0000
      4 C4          1.5372   -0.1574   -4.0608 C.2       1 <0>         0.0000
      5 C5          1.5120   -2.5100   -3.7533 C.3       1 <0>         0.0000
      6 C6          5.6372   -2.6384   -2.4198 C.3       1 <0>         0.0000
      7 C7          2.3209    1.0569   -3.5901 C.3       1 <0>         0.0000
      8 N1          4.3534   -0.2764   -4.0128 N.2       1 <0>         0.0000
      9 N2          6.4417   -1.2899   -4.7028 N.2       1 <0>         0.0000
     10 O1          0.9125   -0.2172   -5.1049 O.2       1 <0>         0.0000
     11 O2          7.1895   -3.6469   -4.3059 O.2       1 <0>         0.0000
     12 O3          4.7464   -3.2863   -4.8211 O.2       1 <0>         0.0000
     13 O4          1.6784   -1.1863   -3.1963 O.3       1 <0>         0.0000
     14 S1          5.9465    1.2772   -5.3773 S.3       1 <0>         0.0000
     15 S2          5.9962   -2.7814   -4.1977 S.o2      1 <0>         0.0000
     16 H1          4.0656    2.9064   -5.0904 H         1 <0>         0.0000
     17 H2          1.4020   -3.1780   -2.8970 H         1 <0>         0.0000
     18 H3          2.4177   -2.7615   -4.3134 H         1 <0>         0.0000
     19 H4          0.6267   -2.5534   -4.3916 H         1 <0>         0.0000
     20 H5          5.3765   -3.6402   -2.0703 H         1 <0>         0.0000
     21 H6          6.5401   -2.2800   -1.9214 H         1 <0>         0.0000
     22 H7          4.8067   -1.9429   -2.2969 H         1 <0>         0.0000
     23 H8          2.3545    1.0643   -2.4953 H         1 <0>         0.0000
     24 H9          1.8366    1.9649   -3.9541 H         1 <0>         0.0000
@<TRIPOS>BOND
     1    1    2 2
     2    1   14 1
     3    1   16 1
     4    2    7 1
     5    2    8 1
     6    3    8 2
     7    3    9 1
     8    3   14 1
     9    4    7 1
    10    4   10 2
    11    4   13 1
    12    5   13 1
    13    5   17 1
    14    5   18 1
    15    5   19 1
    16    6   15 1
    17    6   20 1
    18    6   21 1
    19    6   22 1
    20    7   23 1
    21    7   24 1
    22    9   15 1
    23   11   15 2
    24   12   15 2
