@<TRIPOS>MOLECULE
*****
   25    25     0     0     0
SMALL
NO_CHARGES

@<TRIPOS>ATOM
      1 C1          4.3992    0.9055   -5.3700 C.2       1 <0>         0.0000
      2 C2          3.9704    0.0766   -4.3735 C.2       1 <0>         0.0000
      3 C3          5.7183   -1.1168   -5.0331 C.2       1 <0>         0.0000
      4 C4          1.9829   -1.1001   -3.5195 C.2       1 <0>         0.0000
      5 C5          1.0648   -2.7599   -4.9339 C.3       1 <0>         0.0000
      6 C6          5.6493   -4.0135   -3.2612 C.3       1 <0>         0.0000
      7 C7          2.7385    0.2248   -3.5220 C.3       1 <0>         0.0000
      8 N1          4.7421   -1.0534   -4.1768 N.2       1 <0>         0.0000
      9 N2          6.5920   -2.2041   -5.0759 N.pl3     1 <0>         0.0000
     10 O1          1.7879   -1.7870   -2.5366 O.2       1 <0>         0.0000
     11 O2          4.6186   -3.8383   -5.6999 O.2       1 <0>         0.0000
     12 O3          7.0264   -4.6453   -5.4773 O.2       1 <0>         0.0000
     13 O4          1.5940   -1.4258   -4.7682 O.3       1 <0>         0.0000
     14 S1          5.8055    0.2313   -6.1553 S.3       1 <0>         0.0000
     15 S2          5.9149   -3.8067   -5.0245 S.o2      1 <0>         0.0000
     16 H1          3.9811    1.8480   -5.6974 H         1 <0>         0.0000
     17 H2          0.7376   -2.8140   -5.9717 H         1 <0>         0.0000
     18 H3          0.2295   -2.9296   -4.2515 H         1 <0>         0.0000
     19 H4          1.8565   -3.4895   -4.7492 H         1 <0>         0.0000
     20 H5          5.2277   -5.0124   -3.1341 H         1 <0>         0.0000
     21 H6          6.6143   -3.9264   -2.7625 H         1 <0>         0.0000
     22 H7          4.9512   -3.2406   -2.9397 H         1 <0>         0.0000
     23 H8          2.9971    0.4541   -2.4858 H         1 <0>         0.0000
     24 H9          2.0991    1.0190   -3.9158 H         1 <0>         0.0000
     25 H10         7.3337   -2.1792   -5.7728 H         1 <0>         0.0000
@<TRIPOS>BOND
     1    1    2 2
     2    1   14 1
     3    1   16 1
     4    2    7 1
     5    2    8 1
     6    3    8 2
     7    3    9 1
     8    3   14 1
     9    4    7 1
    10    4   10 2
    11    4   13 1
    12    5   13 1
    13    5   17 1
    14    5   18 1
    15    5   19 1
    16    6   15 1
    17    6   20 1
    18    6   21 1
    19    6   22 1
    20    7   23 1
    21    7   24 1
    22    9   15 1
    23    9   25 1
    24   11   15 2
    25   12   15 2
