@<TRIPOS>MOLECULE
*****
   21    21     0     0     0
SMALL
NO_CHARGES

@<TRIPOS>ATOM
      1 C1          1.8851   -1.0363   -0.1124 C.ar      1 <0>         0.0000
      2 C2          2.9210   -1.6309    0.6081 C.ar      1 <0>         0.0000
      3 C3          0.8066   -0.4630    0.5610 C.ar      1 <0>         0.0000
      4 C4          2.8783   -1.6520    2.0022 C.ar      1 <0>         0.0000
      5 C5          0.7638   -0.4841    1.9551 C.ar      1 <0>         0.0000
      6 C6          1.7997   -1.0786    2.6757 C.ar      1 <0>         0.0000
      7 C7          1.7548   -1.1014    4.1663 C.3       1 <0>         0.0000
      8 N1          0.6776   -2.1429    6.3578 N.pl3     1 <0>         0.0000
      9 O1         -0.7558   -1.8183    4.2331 O.2       1 <0>         0.0000
     10 O2          1.0312   -3.6060    4.2529 O.2       1 <0>         0.0000
     11 O3         -0.2254   -3.1103    6.9006 O.3       1 <0>         0.0000
     12 S1          0.5510   -2.2943    4.6547 S.o2      1 <0>         0.0000
     13 H1          1.9176   -1.0210   -1.1980 H         1 <0>         0.0000
     14 H2          3.7604   -2.0783    0.0841 H         1 <0>         0.0000
     15 H3         -0.0006   -0.0010    0.0001 H         1 <0>         0.0000
     16 H4          3.6899   -2.1173    2.5553 H         1 <0>         0.0000
     17 H5         -0.0804   -0.0348    2.4713 H         1 <0>         0.0000
     18 H6          1.4610   -0.1336    4.5884 H         1 <0>         0.0000
     19 H7          2.7153   -1.3920    4.6070 H         1 <0>         0.0000
     20 H8          0.4734   -1.2166    6.7555 H         1 <0>         0.0000
     21 H9         -0.1318   -3.0010    7.8626 H         1 <0>         0.0000
@<TRIPOS>BOND
     1    1    3 ar
     2    1    2 ar
     3    1   13 1
     4    2    4 ar
     5    2   14 1
     6    3    5 ar
     7    3   15 1
     8    4    6 ar
     9    4   16 1
    10    5    6 ar
    11    5   17 1
    12    6    7 1
    13    7   12 1
    14    7   18 1
    15    7   19 1
    16    8   11 1
    17    8   12 1
    18    8   20 1
    19    9   12 2
    20   10   12 2
    21   11   21 1
