@<TRIPOS>MOLECULE
*****
   37    39     0     0     0
SMALL
NO_CHARGES

@<TRIPOS>ATOM
      1 C1         -3.1293   -2.8934   -1.6961 C.ar      1 <0>         0.0000
      2 C2         -3.1188   -2.7261    0.6697 C.ar      1 <0>         0.0000
      3 C3         -3.6513   -3.3365   -0.4827 C.ar      1 <0>         0.0000
      4 C4         -2.1249   -1.9120   -1.7281 C.ar      1 <0>         0.0000
      5 C5         -1.5971   -1.4413   -0.5110 C.ar      1 <0>         0.0000
      6 C6         -4.1419    0.7101   -1.8965 C.3       1 <0>         0.0000
      7 C7         -4.5931    1.2469   -3.2377 C.3       1 <0>         0.0000
      8 C8          0.7757   -1.0123    0.3407 C.3       1 <0>         0.0000
      9 C9          0.8575   -0.8099   -1.1552 C.3       1 <0>         0.0000
     10 C10        -3.1971    0.7075   -3.0636 C.3       1 <0>         0.0000
     11 C11        -0.4308   -0.4944   -0.4074 C.3       1 <0>         0.0000
     12 C12        -4.6966   -4.4177   -0.3863 C.3       1 <0>         0.0000
     13 C13        -0.8087    0.9618   -0.1766 C.3       1 <0>         0.0000
     14 C14        -1.6939   -1.3666   -3.0592 C.3       1 <0>         0.0000
     15 N1         -2.1251   -1.8391    0.6600 N.ar      1 <0>         0.0000
     16 N2         -2.8475   -0.5863   -3.7136 N.4       1 <0>         0.0000
     17 H1         -3.5020   -3.3294   -2.6252 H         1 <0>         0.0000
     18 H2         -3.5129   -2.9889    1.6512 H         1 <0>         0.0000
     19 H3         -3.9200    1.4057   -1.0948 H         1 <0>         0.0000
     20 H4         -4.5496   -0.2389   -1.5631 H         1 <0>         0.0000
     21 H5         -5.3107    0.6575   -3.8030 H         1 <0>         0.0000
     22 H6         -4.6894    2.3183   -3.3772 H         1 <0>         0.0000
     23 H7          0.7420   -2.0315    0.7114 H         1 <0>         0.0000
     24 H8          1.2984   -0.3147    0.9875 H         1 <0>         0.0000
     25 H9          1.4440    0.0229   -1.5346 H         1 <0>         0.0000
     26 H10         0.9067   -1.7086   -1.7652 H         1 <0>         0.0000
     27 H11        -2.3490    1.3827   -3.0805 H         1 <0>         0.0000
     28 H12        -4.2283   -5.3903   -0.1990 H         1 <0>         0.0000
     29 H13        -5.3901   -4.2262    0.4371 H         1 <0>         0.0000
     30 H14        -5.2767   -4.5029   -1.3092 H         1 <0>         0.0000
     31 H15         0.0843    1.5699   -0.0060 H         1 <0>         0.0000
     32 H16        -1.4521    1.0511    0.7042 H         1 <0>         0.0000
     33 H17        -1.3397    1.3904   -1.0337 H         1 <0>         0.0000
     34 H18        -0.8619   -0.6705   -2.9805 H         1 <0>         0.0000
     35 H19        -1.4400   -2.1544   -3.7747 H         1 <0>         0.0000
     36 H20        -3.6771   -1.1910   -3.7191 H         1 <0>         0.0000
     37 H21        -2.6167   -0.4080   -4.6991 H         1 <0>         0.0000
@<TRIPOS>BOND
     1    1    3 ar
     2    1    4 ar
     3    1   17 1
     4    2    3 ar
     5    2   15 ar
     6    2   18 1
     7    3   12 1
     8    4    5 ar
     9    4   14 1
    10    5   11 1
    11    5   15 ar
    12    6    7 1
    13    6   10 1
    14    6   19 1
    15    6   20 1
    16    7   10 1
    17    7   21 1
    18    7   22 1
    19    8    9 1
    20    8   11 1
    21    8   23 1
    22    8   24 1
    23    9   11 1
    24    9   25 1
    25    9   26 1
    26   10   16 1
    27   10   27 1
    28   11   13 1
    29   12   28 1
    30   12   29 1
    31   12   30 1
    32   13   31 1
    33   13   32 1
    34   13   33 1
    35   14   16 1
    36   14   34 1
    37   14   35 1
    38   16   36 1
    39   16   37 1
