@<TRIPOS>MOLECULE
*****
   40    41     0     0     0
SMALL
NO_CHARGES

@<TRIPOS>ATOM
      1 C1          2.5173   -3.5899    0.7030 C.ar      1 <0>         0.0000
      2 C2          1.6909   -3.1418   -0.3296 C.ar      1 <0>         0.0000
      3 C3          2.9115   -2.6936    1.7023 C.ar      1 <0>         0.0000
      4 C4          1.2675   -1.8085   -0.3793 C.ar      1 <0>         0.0000
      5 C5         -0.0983    0.8837    4.2349 C.2       1 <0>         0.0000
      6 C6          0.6014   -0.1889    3.7346 C.2       1 <0>         0.0000
      7 C7          1.8162    1.6601    3.6463 C.2       1 <0>         0.0000
      8 C8          2.4957   -1.3584    1.6813 C.ar      1 <0>         0.0000
      9 C9          1.6737   -0.9131    0.6176 C.ar      1 <0>         0.0000
     10 C10         4.1684   -0.2309    3.1428 C.2       1 <0>         0.0000
     11 C11         2.8981   -0.4151    2.7539 C.2       1 <0>         0.0000
     12 C12        -1.1584    2.5229    1.0921 C.2       1 <0>         0.0000
     13 C13        -0.0530    2.2774    0.3594 C.2       1 <0>         0.0000
     14 C14        -2.1923    1.4828    1.4631 C.3       1 <0>         0.0000
     15 C15        -1.4717    3.8796    1.6834 C.3       1 <0>         0.0000
     16 C16         1.0282    3.2927    0.0638 C.3       1 <0>         0.0000
     17 C17         0.2766    0.9088   -0.1745 C.3       1 <0>         0.0000
     18 N1          0.6650    2.0356    4.1661 N.2       1 <0>         0.0000
     19 N2          1.8428    0.3120    3.3737 N.pl3     1 <0>         0.0000
     20 O1          1.3619    0.4060    0.6388 O.3       1 <0>         0.0000
     21 H1          2.8412   -4.6258    0.7393 H         1 <0>         0.0000
     22 H2          1.3723   -3.8290   -1.1093 H         1 <0>         0.0000
     23 H3          3.5293   -3.0322    2.5297 H         1 <0>         0.0000
     24 H4          0.6467   -1.4693   -1.2013 H         1 <0>         0.0000
     25 H5         -1.1006    0.8922    4.6431 H         1 <0>         0.0000
     26 H6          0.3569   -1.2343    3.6161 H         1 <0>         0.0000
     27 H7          2.6499    2.3042    3.4007 H         1 <0>         0.0000
     28 H8          4.4175    0.4103    3.9830 H         1 <0>         0.0000
     29 H9          4.9794   -0.7137    2.6082 H         1 <0>         0.0000
     30 H10        -2.4494    1.5908    2.5222 H         1 <0>         0.0000
     31 H11        -1.8681    0.4526    1.3159 H         1 <0>         0.0000
     32 H12        -3.1194    1.6403    0.8957 H         1 <0>         0.0000
     33 H13        -2.5541    4.0514    1.6944 H         1 <0>         0.0000
     34 H14        -1.0101    4.7096    1.1465 H         1 <0>         0.0000
     35 H15        -1.1247    3.9092    2.7245 H         1 <0>         0.0000
     36 H16         2.0034    2.8861    0.3548 H         1 <0>         0.0000
     37 H17         1.0823    3.5119   -1.0113 H         1 <0>         0.0000
     38 H18         0.8943    4.2342    0.5956 H         1 <0>         0.0000
     39 H19        -0.5635    0.2142   -0.1279 H         1 <0>         0.0000
     40 H20         0.6190    0.9653   -1.2174 H         1 <0>         0.0000
@<TRIPOS>BOND
     1    1    2 ar
     2    1    3 ar
     3    1   21 1
     4    2    4 ar
     5    2   22 1
     6    3    8 ar
     7    3   23 1
     8    4    9 ar
     9    4   24 1
    10    5    6 2
    11    5   18 1
    12    5   25 1
    13    6   19 1
    14    6   26 1
    15    7   18 2
    16    7   19 1
    17    7   27 1
    18    8    9 ar
    19    8   11 1
    20    9   20 1
    21   10   11 2
    22   10   28 1
    23   10   29 1
    24   11   19 1
    25   12   13 2
    26   12   14 1
    27   12   15 1
    28   13   16 1
    29   13   17 1
    30   14   30 1
    31   14   31 1
    32   14   32 1
    33   15   33 1
    34   15   34 1
    35   15   35 1
    36   16   36 1
    37   16   37 1
    38   16   38 1
    39   17   20 1
    40   17   39 1
    41   17   40 1
