@<TRIPOS>MOLECULE
*****
   31    31     0     0     0
SMALL
NO_CHARGES

@<TRIPOS>ATOM
      1 C1         -0.6705    1.0182    6.1568 C.ar      1 <0>         0.0000
      2 C2          0.2275   -0.2002    8.0161 C.ar      1 <0>         0.0000
      3 C3         -1.6676    1.5622    6.9762 C.ar      1 <0>         0.0000
      4 C4         -0.7535    0.3300    8.8497 C.ar      1 <0>         0.0000
      5 C5          0.2914    0.1315    6.6521 C.ar      1 <0>         0.0000
      6 C6         -1.7112    1.2156    8.3333 C.ar      1 <0>         0.0000
      7 C7          0.3381   -2.8276    5.7310 C.3       1 <0>         0.0000
      8 C8          1.3304   -0.4793    5.7416 C.3       1 <0>         0.0000
      9 C9         -4.4849    3.0268    9.9399 C.3       1 <0>         0.0000
     10 C10        -3.5982    2.6255    8.7714 C.3       1 <0>         0.0000
     11 C11         0.7927   -1.6412    4.8806 C.3       1 <0>         0.0000
     12 N1          1.8749   -2.0839    3.9823 N.3       1 <0>         0.0000
     13 O1         -3.8019    3.7185   10.9803 O.3       1 <0>         0.0000
     14 O2         -2.6375    1.6835    9.2297 O.3       1 <0>         0.0000
     15 H1         -0.6459    1.3006    5.1059 H         1 <0>         0.0000
     16 H2          0.9618   -0.8858    8.4332 H         1 <0>         0.0000
     17 H3         -2.3908    2.2466    6.5467 H         1 <0>         0.0000
     18 H4         -0.7958    0.0761    9.9050 H         1 <0>         0.0000
     19 H5          1.1774   -3.2154    6.3185 H         1 <0>         0.0000
     20 H6         -0.0350   -3.6405    5.0966 H         1 <0>         0.0000
     21 H7         -0.4659   -2.5378    6.4125 H         1 <0>         0.0000
     22 H8          1.7263    0.2918    5.0675 H         1 <0>         0.0000
     23 H9          2.1806   -0.8534    6.3219 H         1 <0>         0.0000
     24 H10        -4.9021    2.1303   10.4051 H         1 <0>         0.0000
     25 H11        -5.3196    3.6255    9.5428 H         1 <0>         0.0000
     26 H12        -3.0934    3.5099    8.3517 H         1 <0>         0.0000
     27 H13        -4.2235    2.1861    7.9801 H         1 <0>         0.0000
     28 H14        -0.0844   -1.2639    4.3259 H         1 <0>         0.0000
     29 H15         2.1296   -1.3265    3.3491 H         1 <0>         0.0000
     30 H16         1.5430   -2.8497    3.3972 H         1 <0>         0.0000
     31 H17        -3.3644    4.4957   10.5984 H         1 <0>         0.0000
@<TRIPOS>BOND
     1    1    3 ar
     2    1    5 ar
     3    1   15 1
     4    2    4 ar
     5    2    5 ar
     6    2   16 1
     7    3    6 ar
     8    3   17 1
     9    4    6 ar
    10    4   18 1
    11    5    8 1
    12    6   14 1
    13    7   11 1
    14    7   19 1
    15    7   20 1
    16    7   21 1
    17    8   11 1
    18    8   22 1
    19    8   23 1
    20    9   10 1
    21    9   13 1
    22    9   24 1
    23    9   25 1
    24   10   14 1
    25   10   26 1
    26   10   27 1
    27   11   12 1
    28   11   28 1
    29   12   29 1
    30   12   30 1
    31   13   31 1
