@<TRIPOS>MOLECULE
*****
   44    46     0     0     0
SMALL
NO_CHARGES

@<TRIPOS>ATOM
      1 C1          3.2295   -5.0293    0.6543 C.ar      1 <0>         0.0000
      2 C2         -1.6164   -0.6160   -0.6764 C.ar      1 <0>         0.0000
      3 C3          2.7616   -3.7193    0.5369 C.ar      1 <0>         0.0000
      4 C4         -2.6180    0.3549   -0.7309 C.ar      1 <0>         0.0000
      5 C5          2.6769   -5.8960    1.6020 C.ar      1 <0>         0.0000
      6 C6         -1.0524    1.9314    0.2433 C.ar      1 <0>         0.0000
      7 C7          1.1813   -4.1044    2.3142 C.ar      1 <0>         0.0000
      8 C8         -0.3542   -0.3465   -0.1349 C.ar      1 <0>         0.0000
      9 C9          1.7396   -3.2366    1.3707 C.ar      1 <0>         0.0000
     10 C10        -0.0561    0.9601    0.3180 C.ar      1 <0>         0.0000
     11 C11        -2.3333    1.6412   -0.2560 C.ar      1 <0>         0.0000
     12 C12         1.6495   -5.4167    2.4140 C.ar      1 <0>         0.0000
     13 C13         0.5930   -1.5028   -0.0682 C.2       1 <0>         0.0000
     14 C14         1.3332    1.3787    0.7599 C.3       1 <0>         0.0000
     15 C15         1.9331    0.6126    1.9480 C.3       1 <0>         0.0000
     16 C16         2.3971   -0.8107    1.6294 C.3       1 <0>         0.0000
     17 C17         1.2588   -1.8044    1.2887 C.3       1 <0>         0.0000
     18 C18        -4.5254    2.4488   -0.7705 C.3       1 <0>         0.0000
     19 C19        -0.4331   -7.3030    2.6587 C.3       1 <0>         0.0000
     20 O1          0.7430   -2.2417   -1.0324 O.2       1 <0>         0.0000
     21 O2          1.8653   -7.5723    3.9548 O.2       1 <0>         0.0000
     22 O3          0.2563   -5.7026    4.6581 O.2       1 <0>         0.0000
     23 O4         -3.2182    2.6800   -0.2491 O.3       1 <0>         0.0000
     24 S1          0.8920   -6.5222    3.6128 S.o2      1 <0>         0.0000
     25 H1          4.0292   -5.3783    0.0069 H         1 <0>         0.0000
     26 H2         -1.8174   -1.6152   -1.0516 H         1 <0>         0.0000
     27 H3          3.1922   -3.0655   -0.2144 H         1 <0>         0.0000
     28 H4         -3.5894    0.1005   -1.1388 H         1 <0>         0.0000
     29 H5          3.0422   -6.9109    1.7265 H         1 <0>         0.0000
     30 H6         -0.8520    2.9516    0.5594 H         1 <0>         0.0000
     31 H7          0.3999   -3.7656    2.9894 H         1 <0>         0.0000
     32 H8          2.0159    1.2885   -0.0962 H         1 <0>         0.0000
     33 H9          1.3026    2.4430    1.0106 H         1 <0>         0.0000
     34 H10         2.8021    1.1751    2.3088 H         1 <0>         0.0000
     35 H11         1.2121    0.5910    2.7747 H         1 <0>         0.0000
     36 H12         3.1237   -0.7895    0.8079 H         1 <0>         0.0000
     37 H13         2.9255   -1.2133    2.4997 H         1 <0>         0.0000
     38 H14         0.4778   -1.6609    2.0451 H         1 <0>         0.0000
     39 H15        -5.0564    3.3962   -0.6720 H         1 <0>         0.0000
     40 H16        -5.0513    1.6755   -0.1978 H         1 <0>         0.0000
     41 H17        -4.4869    2.1608   -1.8278 H         1 <0>         0.0000
     42 H18        -0.9361   -7.9913    3.3415 H         1 <0>         0.0000
     43 H19        -1.1216   -6.5305    2.3136 H         1 <0>         0.0000
     44 H20         0.0071   -7.8446    1.8206 H         1 <0>         0.0000
@<TRIPOS>BOND
     1    1    3 ar
     2    1    5 ar
     3    1   25 1
     4    2    4 ar
     5    2    8 ar
     6    2   26 1
     7    3    9 ar
     8    3   27 1
     9    4   11 ar
    10    4   28 1
    11    5   12 ar
    12    5   29 1
    13    6   10 ar
    14    6   11 ar
    15    6   30 1
    16    7    9 ar
    17    7   12 ar
    18    7   31 1
    19    8   10 ar
    20    8   13 1
    21    9   17 1
    22   10   14 1
    23   11   23 1
    24   12   24 1
    25   13   17 1
    26   13   20 2
    27   14   15 1
    28   14   32 1
    29   14   33 1
    30   15   16 1
    31   15   34 1
    32   15   35 1
    33   16   17 1
    34   16   36 1
    35   16   37 1
    36   17   38 1
    37   18   23 1
    38   18   39 1
    39   18   40 1
    40   18   41 1
    41   19   24 1
    42   19   42 1
    43   19   43 1
    44   19   44 1
    45   21   24 2
    46   22   24 2
