@<TRIPOS>MOLECULE
*****
   44    46     0     0     0
SMALL
NO_CHARGES

@<TRIPOS>ATOM
      1 C1          4.3645   -0.5154   -3.5823 C.ar      1 <0>         0.0000
      2 C2          0.0262   -0.6022    2.0664 C.ar      1 <0>         0.0000
      3 C3          3.3107    0.1458   -2.9394 C.ar      1 <0>         0.0000
      4 C4         -1.0802   -0.6270    2.9109 C.ar      1 <0>         0.0000
      5 C5          4.5183   -1.8943   -3.4389 C.ar      1 <0>         0.0000
      6 C6         -2.2441    0.7995    1.3294 C.ar      1 <0>         0.0000
      7 C7          2.5378   -1.9362   -2.0120 C.ar      1 <0>         0.0000
      8 C8          0.0196    0.0894    0.8447 C.ar      1 <0>         0.0000
      9 C9          2.3848   -0.5506   -2.1555 C.ar      1 <0>         0.0000
     10 C10        -1.1431    0.8143    0.4771 C.ar      1 <0>         0.0000
     11 C11        -2.2320    0.0809    2.5359 C.ar      1 <0>         0.0000
     12 C12         3.5972   -2.5811   -2.6430 C.ar      1 <0>         0.0000
     13 C13         1.2682   -0.0071    0.0294 C.2       1 <0>         0.0000
     14 C14        -1.2077    1.6348   -0.7896 C.3       1 <0>         0.0000
     15 C15        -1.2201    0.7862   -2.0750 C.3       1 <0>         0.0000
     16 C16        -0.1383   -0.3031   -2.1070 C.3       1 <0>         0.0000
     17 C17         1.2137    0.1580   -1.5074 C.3       1 <0>         0.0000
     18 C18        -3.4171   -0.5608    4.5131 C.3       1 <0>         0.0000
     19 C19         4.8348   -4.4187   -0.9053 C.3       1 <0>         0.0000
     20 O1          2.3364   -0.2825    0.5676 O.2       1 <0>         0.0000
     21 O2          2.4904   -4.9203   -2.0410 O.2       1 <0>         0.0000
     22 O3          4.5934   -4.8885   -3.5085 O.2       1 <0>         0.0000
     23 O4         -3.3777    0.1405    3.2704 O.3       1 <0>         0.0000
     24 S1          3.8024   -4.3498   -2.3897 S.o2      1 <0>         0.0000
     25 H1          5.0634    0.0462   -4.1961 H         1 <0>         0.0000
     26 H2          0.9292   -1.1375    2.3427 H         1 <0>         0.0000
     27 H3          3.2084    1.2227   -3.0534 H         1 <0>         0.0000
     28 H4         -1.0358   -1.1883    3.8371 H         1 <0>         0.0000
     29 H5          5.3155   -2.4353   -3.9395 H         1 <0>         0.0000
     30 H6         -3.1416    1.3587    1.0795 H         1 <0>         0.0000
     31 H7          1.8377   -2.5172   -1.4189 H         1 <0>         0.0000
     32 H8         -2.1004    2.2665   -0.7690 H         1 <0>         0.0000
     33 H9         -0.3548    2.3222   -0.8160 H         1 <0>         0.0000
     34 H10        -2.2031    0.3180   -2.1957 H         1 <0>         0.0000
     35 H11        -1.0848    1.4619   -2.9282 H         1 <0>         0.0000
     36 H12        -0.4816   -1.1924   -1.5685 H         1 <0>         0.0000
     37 H13         0.0221   -0.6171   -3.1422 H         1 <0>         0.0000
     38 H14         1.3322    1.2312   -1.7042 H         1 <0>         0.0000
     39 H15        -4.4100   -0.3778    4.9251 H         1 <0>         0.0000
     40 H16        -2.6583   -0.1814    5.2073 H         1 <0>         0.0000
     41 H17        -3.2764   -1.6380    4.3658 H         1 <0>         0.0000
     42 H18         4.9832   -5.4781   -0.6852 H         1 <0>         0.0000
     43 H19         5.7874   -3.9312   -1.1161 H         1 <0>         0.0000
     44 H20         4.3095   -3.9226   -0.0880 H         1 <0>         0.0000
@<TRIPOS>BOND
     1    1    3 ar
     2    1    5 ar
     3    1   25 1
     4    2    4 ar
     5    2    8 ar
     6    2   26 1
     7    3    9 ar
     8    3   27 1
     9    4   11 ar
    10    4   28 1
    11    5   12 ar
    12    5   29 1
    13    6   10 ar
    14    6   11 ar
    15    6   30 1
    16    7    9 ar
    17    7   12 ar
    18    7   31 1
    19    8   10 ar
    20    8   13 1
    21    9   17 1
    22   10   14 1
    23   11   23 1
    24   12   24 1
    25   13   17 1
    26   13   20 2
    27   14   15 1
    28   14   32 1
    29   14   33 1
    30   15   16 1
    31   15   34 1
    32   15   35 1
    33   16   17 1
    34   16   36 1
    35   16   37 1
    36   17   38 1
    37   18   23 1
    38   18   39 1
    39   18   40 1
    40   18   41 1
    41   19   24 1
    42   19   42 1
    43   19   43 1
    44   19   44 1
    45   21   24 2
    46   22   24 2
