@<TRIPOS>MOLECULE
*****
   44    46     0     0     0
SMALL
NO_CHARGES

@<TRIPOS>ATOM
      1 C1          1.5866   -4.8060    2.2397 C.ar      1 <0>         0.0000
      2 C2         -1.6623   -0.2657   -1.1130 C.ar      1 <0>         0.0000
      3 C3          1.0417   -3.5235    2.1045 C.ar      1 <0>         0.0000
      4 C4         -2.7160    0.6111   -1.3242 C.ar      1 <0>         0.0000
      5 C5          2.8001   -5.1185    1.6271 C.ar      1 <0>         0.0000
      6 C6         -1.4411    2.3510   -0.2162 C.ar      1 <0>         0.0000
      7 C7          2.9001   -2.8487    0.7295 C.ar      1 <0>         0.0000
      8 C8         -0.5029    0.1306   -0.4208 C.ar      1 <0>         0.0000
      9 C9          1.6832   -2.5331    1.3512 C.ar      1 <0>         0.0000
     10 C10        -0.3816    1.4613    0.0187 C.ar      1 <0>         0.0000
     11 C11        -2.6105    1.9335   -0.8662 C.ar      1 <0>         0.0000
     12 C12         3.4430   -4.1211    0.8883 C.ar      1 <0>         0.0000
     13 C13         0.5327   -0.9310   -0.2165 C.2       1 <0>         0.0000
     14 C14         0.8934    2.0148    0.6270 C.3       1 <0>         0.0000
     15 C15         1.3990    1.3215    1.9005 C.3       1 <0>         0.0000
     16 C16         2.0422   -0.0485    1.6734 C.3       1 <0>         0.0000
     17 C17         1.0673   -1.1579    1.2131 C.3       1 <0>         0.0000
     18 C18        -3.6214    4.0971   -0.6854 C.3       1 <0>         0.0000
     19 C19         6.1964   -4.1804    1.4892 C.3       1 <0>         0.0000
     20 O1          0.8573   -1.6666   -1.1373 O.2       1 <0>         0.0000
     21 O2          5.0893   -5.9251   -0.1693 O.2       1 <0>         0.0000
     22 O3          5.2996   -3.4752   -0.9036 O.2       1 <0>         0.0000
     23 O4         -3.6858    2.7380   -1.1107 O.3       1 <0>         0.0000
     24 S1          5.0361   -4.4857    0.1328 S.o2      1 <0>         0.0000
     25 H1          1.0601   -5.5617    2.8162 H         1 <0>         0.0000
     26 H2         -1.7248   -1.2860   -1.4796 H         1 <0>         0.0000
     27 H3          0.0936   -3.2946    2.5865 H         1 <0>         0.0000
     28 H4         -3.6187    0.3023   -1.8426 H         1 <0>         0.0000
     29 H5          3.2321   -6.1122    1.6960 H         1 <0>         0.0000
     30 H6         -1.3292    3.3816    0.1024 H         1 <0>         0.0000
     31 H7          3.4156   -2.1279    0.1036 H         1 <0>         0.0000
     32 H8          1.6890    1.9814   -0.1297 H         1 <0>         0.0000
     33 H9          0.7333    3.0744    0.8485 H         1 <0>         0.0000
     34 H10         2.1508    1.9714    2.3636 H         1 <0>         0.0000
     35 H11         0.5774    1.2318    2.6224 H         1 <0>         0.0000
     36 H12         2.8604    0.0457    0.9494 H         1 <0>         0.0000
     37 H13         2.4959   -0.3857    2.6117 H         1 <0>         0.0000
     38 H14         0.1915   -1.1061    1.8718 H         1 <0>         0.0000
     39 H15        -4.5729    4.5444   -0.9751 H         1 <0>         0.0000
     40 H16        -2.8026    4.6318   -1.1818 H         1 <0>         0.0000
     41 H17        -3.5013    4.1697    0.4024 H         1 <0>         0.0000
     42 H18         7.1913   -4.3916    1.0912 H         1 <0>         0.0000
     43 H19         6.1172   -3.1359    1.7935 H         1 <0>         0.0000
     44 H20         5.9627   -4.8537    2.3150 H         1 <0>         0.0000
@<TRIPOS>BOND
     1    1    3 ar
     2    1    5 ar
     3    1   25 1
     4    2    4 ar
     5    2    8 ar
     6    2   26 1
     7    3    9 ar
     8    3   27 1
     9    4   11 ar
    10    4   28 1
    11    5   12 ar
    12    5   29 1
    13    6   10 ar
    14    6   11 ar
    15    6   30 1
    16    7    9 ar
    17    7   12 ar
    18    7   31 1
    19    8   10 ar
    20    8   13 1
    21    9   17 1
    22   10   14 1
    23   11   23 1
    24   12   24 1
    25   13   17 1
    26   13   20 2
    27   14   15 1
    28   14   32 1
    29   14   33 1
    30   15   16 1
    31   15   34 1
    32   15   35 1
    33   16   17 1
    34   16   36 1
    35   16   37 1
    36   17   38 1
    37   18   23 1
    38   18   39 1
    39   18   40 1
    40   18   41 1
    41   19   24 1
    42   19   42 1
    43   19   43 1
    44   19   44 1
    45   21   24 2
    46   22   24 2
