@<TRIPOS>MOLECULE
*****
   44    46     0     0     0
SMALL
NO_CHARGES

@<TRIPOS>ATOM
      1 C1          1.4292   -5.1975    2.2471 C.ar      1 <0>         0.0000
      2 C2         -1.9220   -0.5386   -0.9870 C.ar      1 <0>         0.0000
      3 C3          0.9868   -3.8799    2.0815 C.ar      1 <0>         0.0000
      4 C4         -2.9142    0.4403   -1.0651 C.ar      1 <0>         0.0000
      5 C5          2.3917   -5.7264    1.3862 C.ar      1 <0>         0.0000
      6 C6         -1.2887    2.0580   -0.2735 C.ar      1 <0>         0.0000
      7 C7          2.4741   -3.5872    0.2102 C.ar      1 <0>         0.0000
      8 C8         -0.6337   -0.2503   -0.5222 C.ar      1 <0>         0.0000
      9 C9          1.5021   -3.0591    1.0706 C.ar      1 <0>         0.0000
     10 C10        -0.3008    1.0801   -0.1753 C.ar      1 <0>         0.0000
     11 C11        -2.5938    1.7524   -0.6949 C.ar      1 <0>         0.0000
     12 C12         2.8941   -4.9047    0.3742 C.ar      1 <0>         0.0000
     13 C13         0.3033   -1.4121   -0.4192 C.2       1 <0>         0.0000
     14 C14         1.1113    1.5084    0.1752 C.3       1 <0>         0.0000
     15 C15         1.7532    0.8177    1.3872 C.3       1 <0>         0.0000
     16 C16         2.1894   -0.6295    1.1474 C.3       1 <0>         0.0000
     17 C17         1.0288   -1.6307    0.9240 C.3       1 <0>         0.0000
     18 C18        -4.7958    2.5545   -1.1734 C.3       1 <0>         0.0000
     19 C19         3.0552   -6.0918   -2.1720 C.3       1 <0>         0.0000
     20 O1          0.3998   -2.2165   -1.3371 O.2       1 <0>         0.0000
     21 O2          4.9455   -4.4700   -1.2611 O.2       1 <0>         0.0000
     22 O3          4.6856   -6.7843   -0.1890 O.2       1 <0>         0.0000
     23 O4         -3.4656    2.8020   -0.7224 O.3       1 <0>         0.0000
     24 S1          4.0956   -5.5741   -0.7854 S.o2      1 <0>         0.0000
     25 H1          1.0241   -5.8096    3.0483 H         1 <0>         0.0000
     26 H2         -2.1511   -1.5584   -1.2823 H         1 <0>         0.0000
     27 H3          0.2301   -3.4831    2.7550 H         1 <0>         0.0000
     28 H4         -3.9055    0.1722   -1.4115 H         1 <0>         0.0000
     29 H5          2.7634   -6.7405    1.4966 H         1 <0>         0.0000
     30 H6         -1.0625    3.0947   -0.0394 H         1 <0>         0.0000
     31 H7          2.9043   -2.9833   -0.5811 H         1 <0>         0.0000
     32 H8          1.7549    1.3485   -0.7006 H         1 <0>         0.0000
     33 H9          1.1040    2.5880    0.3515 H         1 <0>         0.0000
     34 H10         2.6425    1.3920    1.6717 H         1 <0>         0.0000
     35 H11         1.0672    0.8624    2.2426 H         1 <0>         0.0000
     36 H12         2.8811   -0.6739    0.2978 H         1 <0>         0.0000
     37 H13         2.7515   -0.9790    2.0197 H         1 <0>         0.0000
     38 H14         0.2834   -1.4323    1.7038 H         1 <0>         0.0000
     39 H15        -5.3113    3.5140   -1.1194 H         1 <0>         0.0000
     40 H16        -5.3067    1.8299   -0.5280 H         1 <0>         0.0000
     41 H17        -4.8042    2.1941   -2.2090 H         1 <0>         0.0000
     42 H18         3.7326   -6.4907   -2.9301 H         1 <0>         0.0000
     43 H19         2.3663   -6.8631   -1.8251 H         1 <0>         0.0000
     44 H20         2.5173   -5.2220   -2.5517 H         1 <0>         0.0000
@<TRIPOS>BOND
     1    1    3 ar
     2    1    5 ar
     3    1   25 1
     4    2    4 ar
     5    2    8 ar
     6    2   26 1
     7    3    9 ar
     8    3   27 1
     9    4   11 ar
    10    4   28 1
    11    5   12 ar
    12    5   29 1
    13    6   10 ar
    14    6   11 ar
    15    6   30 1
    16    7    9 ar
    17    7   12 ar
    18    7   31 1
    19    8   10 ar
    20    8   13 1
    21    9   17 1
    22   10   14 1
    23   11   23 1
    24   12   24 1
    25   13   17 1
    26   13   20 2
    27   14   15 1
    28   14   32 1
    29   14   33 1
    30   15   16 1
    31   15   34 1
    32   15   35 1
    33   16   17 1
    34   16   36 1
    35   16   37 1
    36   17   38 1
    37   18   23 1
    38   18   39 1
    39   18   40 1
    40   18   41 1
    41   19   24 1
    42   19   42 1
    43   19   43 1
    44   19   44 1
    45   21   24 2
    46   22   24 2
