@<TRIPOS>MOLECULE
*****
   12    12     0     0     0
SMALL
NO_CHARGES

@<TRIPOS>ATOM
      1 C1         -1.3694   -1.3308    0.7138 C.ar      1 <0>         0.0000
      2 C2         -0.1792   -0.9612    0.0726 C.ar      1 <0>         0.0000
      3 C3         -0.8230   -3.5441    0.4826 C.ar      1 <0>         0.0000
      4 C4          0.3682   -3.1469   -0.1606 C.ar      1 <0>         0.0000
      5 C5         -1.2030   -4.9814    0.7233 C.2       1 <0>         0.0000
      6 N1         -1.6828   -2.6082    0.9141 N.ar      1 <0>         0.0000
      7 N2          0.6883   -1.8795   -0.3638 N.ar      1 <0>         0.0000
      8 O1         -2.2320   -5.3066    1.2791 O.2       1 <0>         0.0000
      9 Br1         1.6488   -4.4332   -0.8075 Br        1 <0>         0.0000
     10 H1         -2.0742   -0.5813    1.0677 H         1 <0>         0.0000
     11 H2          0.0802    0.0824   -0.0923 H         1 <0>         0.0000
     12 H3         -0.4790   -5.7309    0.3588 H         1 <0>         0.0000
@<TRIPOS>BOND
     1    1    2 ar
     2    1    6 ar
     3    1   10 1
     4    2    7 ar
     5    2   11 1
     6    3    4 ar
     7    3    5 1
     8    3    6 ar
     9    4    7 ar
    10    4    9 1
    11    5    8 2
    12    5   12 1
