@<TRIPOS>MOLECULE
*****
   25    26     0     0     0
SMALL
NO_CHARGES

@<TRIPOS>ATOM
      1 C1         -0.0837   -4.6431   -4.9384 C.2       1 <0>         0.0000
      2 C2          0.0786   -3.4478   -4.1801 C.2       1 <0>         0.0000
      3 C3         -0.3132   -5.7383   -4.1351 C.2       1 <0>         0.0000
      4 C4         -0.2303   -1.3824   -1.7538 C.2       1 <0>         0.0000
      5 C5          0.0707   -2.7221   -1.7863 C.2       1 <0>         0.0000
      6 C6         -0.0333   -3.6750   -2.8259 C.2       1 <0>         0.0000
      7 C7          0.0890   -0.9817   -0.4426 C.2       1 <0>         0.0000
      8 C8          0.3129    0.2990   -3.4843 C.2       1 <0>         0.0000
      9 C9         -0.0375    0.3628    0.1470 C.3       1 <0>         0.0000
     10 C10        -0.7668   -0.5482   -2.8450 C.3       1 <0>         0.0000
     11 N1          0.5568   -1.9856    0.3039 N.2       1 <0>         0.0000
     12 N2          0.5336   -3.0305   -0.5409 N.pl3     1 <0>         0.0000
     13 O1          1.4663    0.3571   -3.0771 O.2       1 <0>         0.0000
     14 O2         -0.1429    1.0286   -4.5333 O.3       1 <0>         0.0000
     15 S1         -0.3324   -5.3238   -2.4737 S.3       1 <0>         0.0000
     16 H1         -0.0355   -4.6969   -6.0182 H         1 <0>         0.0000
     17 H2          0.2663   -2.4739   -4.6153 H         1 <0>         0.0000
     18 H3         -0.4702   -6.7619   -4.4442 H         1 <0>         0.0000
     19 H4         -1.0295    0.5055    0.6081 H         1 <0>         0.0000
     20 H5          0.7220    0.5485    0.9269 H         1 <0>         0.0000
     21 H6          0.0987    1.1611   -0.6040 H         1 <0>         0.0000
     22 H7         -1.5884    0.1098   -2.5140 H         1 <0>         0.0000
     23 H8         -1.2157   -1.1582   -3.6482 H         1 <0>         0.0000
     24 H9          0.8504   -3.9290   -0.1975 H         1 <0>         0.0000
     25 H10        -1.0872    0.8915   -4.7610 H         1 <0>         0.0000
@<TRIPOS>BOND
     1    1    2 1
     2    1    3 2
     3    1   16 1
     4    2    6 2
     5    2   17 1
     6    3   15 1
     7    3   18 1
     8    4    5 2
     9    4    7 1
    10    4   10 1
    11    5    6 1
    12    5   12 1
    13    6   15 1
    14    7    9 1
    15    7   11 2
    16    8   10 1
    17    8   13 2
    18    8   14 1
    19    9   19 1
    20    9   20 1
    21    9   21 1
    22   10   22 1
    23   10   23 1
    24   11   12 1
    25   12   24 1
    26   14   25 1
