@<TRIPOS>MOLECULE
*****
   38    40     0     0     0
SMALL
NO_CHARGES

@<TRIPOS>ATOM
      1 C1         -3.3167    1.9723   -5.3707 C.2       1 <0>         0.0000
      2 C2          0.5403   -0.1097   -0.5772 C.2       1 <0>         0.0000
      3 C3         -0.8408   -0.0075   -0.4501 C.2       1 <0>         0.0000
      4 C4         -2.8389   -0.1433   -4.9019 C.2       1 <0>         0.0000
      5 C5         -1.6059    0.3998   -4.6190 C.2       1 <0>         0.0000
      6 C6         -0.2302   -0.1662   -2.5958 C.2       1 <0>         0.0000
      7 C7          1.6180   -0.0664    0.4457 C.2       1 <0>         0.0000
      8 C8         -1.8127    0.0927    0.6874 C.3       1 <0>         0.0000
      9 C9         -0.0226   -0.5579    2.3481 C.3       1 <0>         0.0000
     10 C10        -1.2071    0.4005    2.0710 C.3       1 <0>         0.0000
     11 C11        -3.2277   -1.5914   -4.7976 C.3       1 <0>         0.0000
     12 C12        -2.2900    0.1247    3.1294 C.3       1 <0>         0.0000
     13 C13        -0.7623    1.8685    2.1589 C.3       1 <0>         0.0000
     14 C14        -0.3709   -0.2768   -4.0893 C.3       1 <0>         0.0000
     15 N1         -3.7978    0.7633   -5.3294 N.2       1 <0>         0.0000
     16 N2          0.8915   -0.2010   -1.9194 N.2       1 <0>         0.0000
     17 N3         -1.3102   -0.0506   -1.7494 N.pl3     1 <0>         0.0000
     18 N4          1.2537   -0.1638    1.7713 N.am      1 <0>         0.0000
     19 O1          2.7993    0.0859    0.1384 O.2       1 <0>         0.0000
     20 S1         -1.6497    2.1239   -4.8895 S.3       1 <0>         0.0000
     21 H1         -3.8882    2.8409   -5.6816 H         1 <0>         0.0000
     22 H2         -2.5609    0.8618    0.4537 H         1 <0>         0.0000
     23 H3         -2.3648   -0.8557    0.7523 H         1 <0>         0.0000
     24 H4          0.1375   -0.6028    3.4291 H         1 <0>         0.0000
     25 H5         -0.3026   -1.5720    2.0281 H         1 <0>         0.0000
     26 H6         -4.1098   -1.7027   -4.1587 H         1 <0>         0.0000
     27 H7         -3.4931   -1.9853   -5.7842 H         1 <0>         0.0000
     28 H8         -2.4240   -2.2051   -4.3861 H         1 <0>         0.0000
     29 H9         -1.9508    0.4321    4.1244 H         1 <0>         0.0000
     30 H10        -2.5439   -0.9412    3.1736 H         1 <0>         0.0000
     31 H11        -3.2089    0.6774    2.9049 H         1 <0>         0.0000
     32 H12        -0.2667    2.0678    3.1152 H         1 <0>         0.0000
     33 H13        -1.6312    2.5322    2.0859 H         1 <0>         0.0000
     34 H14        -0.0633    2.1327    1.3625 H         1 <0>         0.0000
     35 H15        -0.3947   -1.3338   -4.3762 H         1 <0>         0.0000
     36 H16         0.5371    0.1373   -4.5347 H         1 <0>         0.0000
     37 H17        -2.2759    0.0547   -2.0386 H         1 <0>         0.0000
     38 H18         2.0577   -0.1300    2.3858 H         1 <0>         0.0000
@<TRIPOS>BOND
     1    1   15 2
     2    1   20 1
     3    1   21 1
     4    2    3 2
     5    2    7 1
     6    2   16 1
     7    3    8 1
     8    3   17 1
     9    4    5 2
    10    4   11 1
    11    4   15 1
    12    5   14 1
    13    5   20 1
    14    6   14 1
    15    6   16 2
    16    6   17 1
    17    7   18 am
    18    7   19 2
    19    8   10 1
    20    8   22 1
    21    8   23 1
    22    9   10 1
    23    9   18 1
    24    9   24 1
    25    9   25 1
    26   10   12 1
    27   10   13 1
    28   11   26 1
    29   11   27 1
    30   11   28 1
    31   12   29 1
    32   12   30 1
    33   12   31 1
    34   13   32 1
    35   13   33 1
    36   13   34 1
    37   14   35 1
    38   14   36 1
    39   17   37 1
    40   18   38 1
