@<TRIPOS>MOLECULE
*****
   30    31     0     0     0
SMALL
NO_CHARGES

@<TRIPOS>ATOM
      1 C1          5.9293    0.0690    1.0248 C.ar      1 <0>         0.0000
      2 C2          2.2877   -1.1567    2.2309 C.ar      1 <0>         0.0000
      3 C3          1.0191   -1.6866    0.2210 C.ar      1 <0>         0.0000
      4 C4          6.2419    1.3903    1.3204 C.ar      1 <0>         0.0000
      5 C5          1.1260   -0.6947    2.8426 C.ar      1 <0>         0.0000
      6 C6         -0.1401   -1.1960    0.8195 C.ar      1 <0>         0.0000
      7 C7          3.7704    0.7531    0.1558 C.ar      1 <0>         0.0000
      8 C8          2.2379   -1.6354    0.9112 C.ar      1 <0>         0.0000
      9 C9          4.6787   -0.2664    0.4822 C.ar      1 <0>         0.0000
     10 C10         5.3350    2.4166    1.0197 C.ar      1 <0>         0.0000
     11 C11        -0.0745   -0.7089    2.1267 C.ar      1 <0>         0.0000
     12 C12         4.1097    2.0743    0.4157 C.ar      1 <0>         0.0000
     13 N1          3.3811   -2.2342    0.2898 N.2       1 <0>         0.0000
     14 N2          4.4851   -1.6507    0.1763 N.2       1 <0>         0.0000
     15 N3         -2.2020   -1.4813    3.6614 N.pl3     1 <0>         0.0000
     16 O1         -1.1639    0.8189    3.9806 O.2       1 <0>         0.0000
     17 O2         -2.5021    0.2819    1.8479 O.2       1 <0>         0.0000
     18 O3          5.6936    3.6945    1.3055 O.3       1 <0>         0.0000
     19 S1         -1.5648   -0.0977    2.9091 S.o2      1 <0>         0.0000
     20 Cl1         2.9925    3.3660   -0.0090 Cl        1 <0>         0.0000
     21 H1          6.6420   -0.7263    1.2218 H         1 <0>         0.0000
     22 H2          3.2316   -1.1407    2.7664 H         1 <0>         0.0000
     23 H3          0.9963   -2.0926   -0.7863 H         1 <0>         0.0000
     24 H4          7.1947    1.6610    1.7647 H         1 <0>         0.0000
     25 H5          1.1494   -0.3026    3.8545 H         1 <0>         0.0000
     26 H6         -1.0829   -1.1844    0.2820 H         1 <0>         0.0000
     27 H7          2.8186    0.5316   -0.3109 H         1 <0>         0.0000
     28 H8         -2.2624   -1.3212    4.6662 H         1 <0>         0.0000
     29 H9         -3.1184   -1.6897    3.2669 H         1 <0>         0.0000
     30 H10         4.9773    4.2972    1.0349 H         1 <0>         0.0000
@<TRIPOS>BOND
     1    1    4 ar
     2    1    9 ar
     3    1   21 1
     4    2    5 ar
     5    2    8 ar
     6    2   22 1
     7    3    6 ar
     8    3    8 ar
     9    3   23 1
    10    4   10 ar
    11    4   24 1
    12    5   11 ar
    13    5   25 1
    14    6   11 ar
    15    6   26 1
    16    7    9 ar
    17    7   12 ar
    18    7   27 1
    19    8   13 1
    20    9   14 1
    21   10   12 ar
    22   10   18 1
    23   11   19 1
    24   12   20 1
    25   13   14 2
    26   15   19 1
    27   15   28 1
    28   15   29 1
    29   16   19 2
    30   17   19 2
    31   18   30 1
