@<TRIPOS>MOLECULE
*****
   32    33     0     0     0
SMALL
NO_CHARGES

@<TRIPOS>ATOM
      1 C1          0.3887   -5.2161    0.3114 C.2       1 <0>         0.0000
      2 C2         -0.3186   -1.0320   -0.3576 C.2       1 <0>         0.0000
      3 C3         -0.6840   -5.5815   -0.5733 C.2       1 <0>         0.0000
      4 C4          0.3842   -1.2271   -1.5844 C.2       1 <0>         0.0000
      5 C5          0.0050   -2.1093    0.4795 C.2       1 <0>         0.0000
      6 C6          0.2254   -6.0368    1.3923 C.2       1 <0>         0.0000
      7 C7         -1.0244   -4.9901   -1.9062 C.3       1 <0>         0.0000
      8 C8          0.4083   -0.3891   -2.8221 C.3       1 <0>         0.0000
      9 C9         -0.4121   -2.4584    1.8705 C.3       1 <0>         0.0000
     10 C10         0.9540   -6.2024    2.6817 C.3       1 <0>         0.0000
     11 C11         1.4306   -4.1645    0.0817 C.3       1 <0>         0.0000
     12 N1          1.0851   -2.3534   -1.5101 N.2       1 <0>         0.0000
     13 N2         -1.4186   -6.5434   -0.0611 N.2       1 <0>         0.0000
     14 N3          0.8480   -2.8645   -0.2597 N.pl3     1 <0>         0.0000
     15 N4         -1.1900    0.0509   -0.0357 N.pl3     1 <0>         0.0000
     16 O1         -1.7678    0.0369    1.0654 O.3       1 <0>         0.0000
     17 O2         -1.3268    0.9506   -0.8795 O.2       1 <0>         0.0000
     18 O3         -0.8423   -6.8407    1.1906 O.3       1 <0>         0.0000
     19 H1         -0.1515   -4.9800   -2.5651 H         1 <0>         0.0000
     20 H2         -1.8252   -5.5644   -2.3759 H         1 <0>         0.0000
     21 H3         -1.3529   -3.9520   -1.7951 H         1 <0>         0.0000
     22 H4          0.7856    0.6141   -2.6063 H         1 <0>         0.0000
     23 H5          1.0472   -0.8677   -3.5673 H         1 <0>         0.0000
     24 H6         -0.5990   -0.2638   -3.2286 H         1 <0>         0.0000
     25 H7         -1.3416   -3.0377    1.8589 H         1 <0>         0.0000
     26 H8          0.3522   -3.0572    2.3705 H         1 <0>         0.0000
     27 H9         -0.5976   -1.5503    2.4428 H         1 <0>         0.0000
     28 H10         0.2663   -6.1010    3.5270 H         1 <0>         0.0000
     29 H11         1.4163   -7.1928    2.7441 H         1 <0>         0.0000
     30 H12         1.7410   -5.4515    2.7802 H         1 <0>         0.0000
     31 H13         2.0718   -4.0561    0.9615 H         1 <0>         0.0000
     32 H14         2.0737   -4.4090   -0.7662 H         1 <0>         0.0000
@<TRIPOS>BOND
     1    1    3 1
     2    1    6 2
     3    1   11 1
     4    2    4 1
     5    2    5 2
     6    2   15 1
     7    3    7 1
     8    3   13 2
     9    4    8 1
    10    4   12 2
    11    5    9 1
    12    5   14 1
    13    6   10 1
    14    6   18 1
    15    7   19 1
    16    7   20 1
    17    7   21 1
    18    8   22 1
    19    8   23 1
    20    8   24 1
    21    9   25 1
    22    9   26 1
    23    9   27 1
    24   10   28 1
    25   10   29 1
    26   10   30 1
    27   11   14 1
    28   11   31 1
    29   11   32 1
    30   12   14 1
    31   13   18 1
    32   15   16 1
    33   15   17 2
