@<TRIPOS>MOLECULE
*****
   47    50     0     0     0
SMALL
NO_CHARGES

@<TRIPOS>ATOM
      1 C1          2.0565   -3.9223   -0.7577 C.1       1 <0>         0.0000
      2 C2          4.3868   -6.7990   -1.0210 C.ar      1 <0>         0.0000
      3 C3          5.6245   -6.2003   -0.7504 C.ar      1 <0>         0.0000
      4 C4          3.2388   -6.0134   -1.0341 C.ar      1 <0>         0.0000
      5 C5          5.7047   -4.8326   -0.5087 C.ar      1 <0>         0.0000
      6 C6          5.6910   -1.8678    0.3953 C.2       1 <0>         0.0000
      7 C7          5.2622   -0.5022    0.3807 C.2       1 <0>         0.0000
      8 C8          3.3079   -4.6301   -0.7776 C.ar      1 <0>         0.0000
      9 C9          4.5583   -4.0135   -0.5140 C.ar      1 <0>         0.0000
     10 C10         4.7091   -2.5930   -0.2402 C.2       1 <0>         0.0000
     11 C11         4.0547   -0.4756   -0.2666 C.2       1 <0>         0.0000
     12 C12        -0.2336    1.8032    1.5577 C.3       1 <0>         0.0000
     13 C13         0.1700    2.2456    0.1262 C.3       1 <0>         0.0000
     14 C14        -0.6745   -0.6960    1.2330 C.3       1 <0>         0.0000
     15 C15         1.7042    0.2400    1.3584 C.3       1 <0>         0.0000
     16 C16        -0.4901    0.0850   -1.0905 C.3       1 <0>         0.0000
     17 C17         0.2605    0.3739    1.8465 C.3       1 <0>         0.0000
     18 C18         0.6477    1.0554   -0.7286 C.3       1 <0>         0.0000
     19 C19        -2.4008   -1.1833   -0.3794 C.3       1 <0>         0.0000
     20 C20         3.0881    0.6151   -0.6058 C.3       1 <0>         0.0000
     21 N1          0.9928   -3.4465   -0.7419 N.1       1 <0>         0.0000
     22 N2         -1.3752   -0.2305    0.0315 N.3       1 <0>         0.0000
     23 N3          1.7618    0.3242   -0.0990 N.3       1 <0>         0.0000
     24 O1          3.7139   -1.7433   -0.6490 O.3       1 <0>         0.0000
     25 H1          4.3203   -7.8646   -1.2197 H         1 <0>         0.0000
     26 H2          6.5301   -6.8008   -0.7426 H         1 <0>         0.0000
     27 H3          2.2686   -6.4580   -1.2331 H         1 <0>         0.0000
     28 H4          6.6738   -4.3760   -0.3327 H         1 <0>         0.0000
     29 H5          6.5887   -2.2635    0.8511 H         1 <0>         0.0000
     30 H6          5.7722    0.3507    0.8087 H         1 <0>         0.0000
     31 H7          0.2061    2.4870    2.2933 H         1 <0>         0.0000
     32 H8         -1.3188    1.8452    1.6762 H         1 <0>         0.0000
     33 H9         -0.6673    2.7408   -0.3761 H         1 <0>         0.0000
     34 H10         0.9863    2.9765    0.1755 H         1 <0>         0.0000
     35 H11        -0.1078   -1.6242    1.0473 H         1 <0>         0.0000
     36 H12        -1.4530   -0.9333    1.9676 H         1 <0>         0.0000
     37 H13         2.3115    1.0355    1.8345 H         1 <0>         0.0000
     38 H14         2.1321   -0.7183    1.6799 H         1 <0>         0.0000
     39 H15        -1.1123    0.5481   -1.8683 H         1 <0>         0.0000
     40 H16        -0.0270   -0.8192   -1.5198 H         1 <0>         0.0000
     41 H17         0.2748    0.2108    2.9302 H         1 <0>         0.0000
     42 H18         1.0231    1.4430   -1.6817 H         1 <0>         0.0000
     43 H19        -2.9587   -0.7771   -1.2306 H         1 <0>         0.0000
     44 H20        -3.1084   -1.3422    0.4418 H         1 <0>         0.0000
     45 H21        -1.9861   -2.1632   -0.6753 H         1 <0>         0.0000
     46 H22         3.5194    1.5591   -0.2164 H         1 <0>         0.0000
     47 H23         3.0305    0.7101   -1.6964 H         1 <0>         0.0000
@<TRIPOS>BOND
     1    1    8 1
     2    1   21 3
     3    2    3 ar
     4    2    4 ar
     5    2   25 1
     6    3    5 ar
     7    3   26 1
     8    4    8 ar
     9    4   27 1
    10    5    9 ar
    11    5   28 1
    12    6    7 1
    13    6   10 2
    14    6   29 1
    15    7   11 2
    16    7   30 1
    17    8    9 ar
    18    9   10 1
    19   10   24 1
    20   11   20 1
    21   11   24 1
    22   12   13 1
    23   12   17 1
    24   12   31 1
    25   12   32 1
    26   13   18 1
    27   13   33 1
    28   13   34 1
    29   14   17 1
    30   14   22 1
    31   14   35 1
    32   14   36 1
    33   15   17 1
    34   15   23 1
    35   15   37 1
    36   15   38 1
    37   16   18 1
    38   16   22 1
    39   16   39 1
    40   16   40 1
    41   17   41 1
    42   18   23 1
    43   18   42 1
    44   19   22 1
    45   19   43 1
    46   19   44 1
    47   19   45 1
    48   20   23 1
    49   20   46 1
    50   20   47 1
