@<TRIPOS>MOLECULE
*****
   36    38     0     0     0
SMALL
NO_CHARGES

@<TRIPOS>ATOM
      1 C1          2.6543   -2.1333   -1.8346 C.1       1 <0>         0.0000
      2 C2         -0.4544   -1.2716    4.1773 C.1       1 <0>         0.0000
      3 C3         -8.1605    1.2348    5.3197 C.ar      1 <0>         0.0000
      4 C4         -8.5537    2.0802    4.2783 C.ar      1 <0>         0.0000
      5 C5          1.9058   -1.9792    0.5074 C.ar      1 <0>         0.0000
      6 C6          0.4365   -1.2220   -1.2806 C.ar      1 <0>         0.0000
      7 C7         -6.8585    0.7416    5.3434 C.ar      1 <0>         0.0000
      8 C8          0.9462   -1.6351    1.4507 C.ar      1 <0>         0.0000
      9 C9         -0.5182   -0.8794   -0.3319 C.ar      1 <0>         0.0000
     10 C10        -7.6396    2.4247    3.2804 C.ar      1 <0>         0.0000
     11 C11         1.6591   -1.7761   -0.8632 C.ar      1 <0>         0.0000
     12 C12        -5.9376    1.0817    4.3352 C.ar      1 <0>         0.0000
     13 C13        -0.2888   -1.0771    1.0489 C.ar      1 <0>         0.0000
     14 C14        -6.3227    1.9419    3.2806 C.ar      1 <0>         0.0000
     15 C15        -4.5803    0.5186    4.4404 C.2       1 <0>         0.0000
     16 C16        -2.6917   -0.2662    3.9455 C.2       1 <0>         0.0000
     17 C17        -1.3611   -0.6820    1.9491 C.2       1 <0>         0.0000
     18 C18        -1.4671   -0.7507    3.3070 C.2       1 <0>         0.0000
     19 C19        -5.3842    2.3748    2.1771 C.3       1 <0>         0.0000
     20 N1          3.4608   -2.4222   -2.6246 N.1       1 <0>         0.0000
     21 N2          0.3695   -1.6941    4.8844 N.1       1 <0>         0.0000
     22 N3         -3.7421    0.2567    3.3707 N.2       1 <0>         0.0000
     23 N4         -4.0640    0.1812    5.6111 N.2       1 <0>         0.0000
     24 O1         -2.8044   -0.3503    5.2827 O.3       1 <0>         0.0000
     25 H1         -8.8615    0.9590    6.1025 H         1 <0>         0.0000
     26 H2         -9.5668    2.4724    4.2428 H         1 <0>         0.0000
     27 H3          2.8518   -2.4069    0.8239 H         1 <0>         0.0000
     28 H4          0.2471   -1.0656   -2.3378 H         1 <0>         0.0000
     29 H5         -6.5394    0.0788    6.1416 H         1 <0>         0.0000
     30 H6          1.1639   -1.8026    2.4972 H         1 <0>         0.0000
     31 H7         -1.4623   -0.4511   -0.6578 H         1 <0>         0.0000
     32 H8         -7.9512    3.0914    2.4799 H         1 <0>         0.0000
     33 H9         -2.2367   -0.2579    1.4628 H         1 <0>         0.0000
     34 H10        -4.4294    2.7327    2.5719 H         1 <0>         0.0000
     35 H11        -5.1530    1.5449    1.5039 H         1 <0>         0.0000
     36 H12        -5.8372    3.1796    1.5922 H         1 <0>         0.0000
@<TRIPOS>BOND
     1    1   11 1
     2    1   20 3
     3    2   18 1
     4    2   21 3
     5    3    4 ar
     6    3    7 ar
     7    3   25 1
     8    4   10 ar
     9    4   26 1
    10    5    8 ar
    11    5   11 ar
    12    5   27 1
    13    6    9 ar
    14    6   11 ar
    15    6   28 1
    16    7   12 ar
    17    7   29 1
    18    8   13 ar
    19    8   30 1
    20    9   13 ar
    21    9   31 1
    22   10   14 ar
    23   10   32 1
    24   12   14 ar
    25   12   15 1
    26   13   17 1
    27   14   19 1
    28   15   22 1
    29   15   23 2
    30   16   18 1
    31   16   22 2
    32   16   24 1
    33   17   18 2
    34   17   33 1
    35   19   34 1
    36   19   35 1
    37   19   36 1
    38   23   24 1
