@<TRIPOS>MOLECULE
*****
   31    32     0     0     0
SMALL
NO_CHARGES

@<TRIPOS>ATOM
      1 C1          1.1316   -1.4619    0.6046 C.3       1 <0>         0.0000
      2 C2          0.9284    1.0409    0.6672 C.3       1 <0>         0.0000
      3 C3          0.8474   -0.1621   -1.5839 C.3       1 <0>         0.0000
      4 C4          0.8775   -1.4777    2.1214 C.3       1 <0>         0.0000
      5 C5          0.7053    0.9412    2.1859 C.3       1 <0>         0.0000
      6 C6         -1.0397   -0.3268   -0.1696 C.3       1 <0>         0.0000
      7 C7          0.4970   -0.2407   -0.0800 C.3       1 <0>         0.0000
      8 C8         -0.4118    0.4192   -2.2864 C.3       1 <0>         0.0000
      9 C9         -0.9468   -0.5283   -3.3669 C.3       1 <0>         0.0000
     10 C10        -0.1925    1.8221   -2.8519 C.3       1 <0>         0.0000
     11 N1          1.2994   -0.2499    2.8073 N.3       1 <0>         0.0000
     12 O1         -1.4089    0.5396   -1.2373 O.3       1 <0>         0.0000
     13 H1          2.2163   -1.4455    0.4277 H         1 <0>         0.0000
     14 H2          0.7526   -2.3859    0.1476 H         1 <0>         0.0000
     15 H3          0.3877    1.9061    0.2666 H         1 <0>         0.0000
     16 H4          1.9968    1.2145    0.4775 H         1 <0>         0.0000
     17 H5          1.7343    0.4534   -1.7616 H         1 <0>         0.0000
     18 H6          1.0654   -1.1648   -1.9678 H         1 <0>         0.0000
     19 H7         -0.1937   -1.6157    2.3179 H         1 <0>         0.0000
     20 H8          1.3911   -2.3272    2.5846 H         1 <0>         0.0000
     21 H9          1.1097    1.8287    2.6844 H         1 <0>         0.0000
     22 H10        -0.3690    0.9264    2.4078 H         1 <0>         0.0000
     23 H11        -1.3523   -1.3637   -0.3769 H         1 <0>         0.0000
     24 H12        -1.5681    0.0145    0.7235 H         1 <0>         0.0000
     25 H13        -1.8601   -0.1222   -3.8127 H         1 <0>         0.0000
     26 H14        -1.1814   -1.5085   -2.9389 H         1 <0>         0.0000
     27 H15        -0.2056   -0.6734   -4.1610 H         1 <0>         0.0000
     28 H16        -1.1400    2.2379   -3.2088 H         1 <0>         0.0000
     29 H17         0.5114    1.7960   -3.6906 H         1 <0>         0.0000
     30 H18         0.2071    2.4903   -2.0836 H         1 <0>         0.0000
     31 H19         2.3151   -0.1772    2.7467 H         1 <0>         0.0000
@<TRIPOS>BOND
     1    1    4 1
     2    1    7 1
     3    1   13 1
     4    1   14 1
     5    2    5 1
     6    2    7 1
     7    2   15 1
     8    2   16 1
     9    3    7 1
    10    3    8 1
    11    3   17 1
    12    3   18 1
    13    4   11 1
    14    4   19 1
    15    4   20 1
    16    5   11 1
    17    5   21 1
    18    5   22 1
    19    6    7 1
    20    6   12 1
    21    6   23 1
    22    6   24 1
    23    8    9 1
    24    8   10 1
    25    8   12 1
    26    9   25 1
    27    9   26 1
    28    9   27 1
    29   10   28 1
    30   10   29 1
    31   10   30 1
    32   11   31 1
