@<TRIPOS>MOLECULE
*****
   24    26     0     0     0
SMALL
NO_CHARGES

@<TRIPOS>ATOM
      1 C1         -0.4850   -1.6612    2.7063 C.ar      1 <0>         0.0000
      2 C2          0.7221   -1.3514    3.3282 C.ar      1 <0>         0.0000
      3 C3          4.8309   -1.0190    7.0718 C.2       1 <0>         0.0000
      4 C4         -0.6934   -1.1889    1.4089 C.ar      1 <0>         0.0000
      5 C5          5.7352   -1.0344    8.0989 C.2       1 <0>         0.0000
      6 C6          6.5636    0.2408    6.1340 C.2       1 <0>         0.0000
      7 C7          1.6852   -0.5868    2.6533 C.ar      1 <0>         0.0000
      8 C8          5.3050   -0.2832    5.9337 C.2       1 <0>         0.0000
      9 C9          1.3608   -0.1644    1.3417 C.ar      1 <0>         0.0000
     10 C10         4.5256   -0.1194    4.7086 C.2       1 <0>         0.0000
     11 C11         2.9383   -0.2817    3.3361 C.2       1 <0>         0.0000
     12 N1          0.2079   -0.4572    0.7406 N.ar      1 <0>         0.0000
     13 N2          3.2657   -0.6593    4.5491 N.2       1 <0>         0.0000
     14 N3          4.9594    0.5543    3.6598 N.2       1 <0>         0.0000
     15 O1          3.9007    0.4483    2.7392 O.3       1 <0>         0.0000
     16 O2          2.2426    0.5745    0.6358 O.3       1 <0>         0.0000
     17 S1          7.1768   -0.1539    7.6965 S.3       1 <0>         0.0000
     18 H1         -1.2445   -2.2511    3.2087 H         1 <0>         0.0000
     19 H2          0.9446   -1.6887    4.3354 H         1 <0>         0.0000
     20 H3          3.8624   -1.5043    7.1028 H         1 <0>         0.0000
     21 H4         -1.6193   -1.4029    0.8783 H         1 <0>         0.0000
     22 H5          5.6422   -1.5092    9.0671 H         1 <0>         0.0000
     23 H6          7.1475    0.8325    5.4412 H         1 <0>         0.0000
     24 H7          1.8149    0.7474   -0.2244 H         1 <0>         0.0000
@<TRIPOS>BOND
     1    1    2 ar
     2    1    4 ar
     3    1   18 1
     4    2    7 ar
     5    2   19 1
     6    3    5 2
     7    3    8 1
     8    3   20 1
     9    4   12 ar
    10    4   21 1
    11    5   17 1
    12    5   22 1
    13    6    8 2
    14    6   17 1
    15    6   23 1
    16    7    9 ar
    17    7   11 1
    18    8   10 1
    19    9   12 ar
    20    9   16 1
    21   10   13 1
    22   10   14 2
    23   11   13 2
    24   11   15 1
    25   14   15 1
    26   16   24 1
