@<TRIPOS>MOLECULE
*****
   37    40     0     0     0
SMALL
NO_CHARGES

@<TRIPOS>ATOM
      1 C1          1.8023   -4.6385    3.3355 C.ar      1 <0>         0.0000
      2 C2          2.5520   -3.4998    3.6606 C.ar      1 <0>         0.0000
      3 C3          1.9873   -5.2962    2.1130 C.ar      1 <0>         0.0000
      4 C4          2.4894   -9.6462   -4.1349 C.ar      1 <0>         0.0000
      5 C5          2.9338  -10.1514   -5.3721 C.ar      1 <0>         0.0000
      6 C6          3.5059   -2.9927    2.7671 C.ar      1 <0>         0.0000
      7 C7          3.8233   -7.6145   -4.4022 C.ar      1 <0>         0.0000
      8 C8          2.9375   -4.7925    1.2212 C.ar      1 <0>         0.0000
      9 C9          2.9140   -8.4015   -3.6418 C.ar      1 <0>         0.0000
     10 C10         3.8068   -9.3612   -6.0930 C.ar      1 <0>         0.0000
     11 C11         4.2387   -8.1205   -5.6105 C.ar      1 <0>         0.0000
     12 C12         3.6710   -3.6597    1.5640 C.ar      1 <0>         0.0000
     13 C13         3.3523   -5.2700   -0.1326 C.2       1 <0>         0.0000
     14 C14         2.4599   -7.8898   -2.3296 C.2       1 <0>         0.0000
     15 C15         5.1043   -8.4174   -7.6607 C.3       1 <0>         0.0000
     16 C16         1.2937   -8.5226   -1.6005 C.3       1 <0>         0.0000
     17 N1          4.2770   -4.6071   -0.7632 N.2       1 <0>         0.0000
     18 N2          3.1127   -6.8750   -1.8600 N.2       1 <0>         0.0000
     19 N3          2.7391   -6.3707   -0.6483 N.pl3     1 <0>         0.0000
     20 O1          4.4075   -2.0412   -0.4499 O.2       1 <0>         0.0000
     21 O2          6.1772   -3.5056    0.6091 O.2       1 <0>         0.0000
     22 O3          4.3927   -9.6201   -7.3064 O.3       1 <0>         0.0000
     23 O4          5.1182   -7.5604   -6.5108 O.3       1 <0>         0.0000
     24 S1          4.7912   -3.2991    0.1903 S.o2      1 <0>         0.0000
     25 H1          1.0677   -5.0164    4.0408 H         1 <0>         0.0000
     26 H2          2.3919   -3.0054    4.6146 H         1 <0>         0.0000
     27 H3          1.3921   -6.1776    1.8862 H         1 <0>         0.0000
     28 H4          1.8152  -10.2664   -3.5553 H         1 <0>         0.0000
     29 H5          2.6075  -11.1182   -5.7411 H         1 <0>         0.0000
     30 H6          4.0933   -2.1115    3.0071 H         1 <0>         0.0000
     31 H7          4.1690   -6.6580   -4.0277 H         1 <0>         0.0000
     32 H8          6.1300   -8.6750   -7.9352 H         1 <0>         0.0000
     33 H9          4.5776   -7.9188   -8.4841 H         1 <0>         0.0000
     34 H10         1.6276   -9.0704   -0.7099 H         1 <0>         0.0000
     35 H11         0.5797   -7.7546   -1.2796 H         1 <0>         0.0000
     36 H12         0.7401   -9.2175   -2.2282 H         1 <0>         0.0000
     37 H13         2.0399   -6.8364   -0.0793 H         1 <0>         0.0000
@<TRIPOS>BOND
     1    1    2 ar
     2    1    3 ar
     3    1   25 1
     4    2    6 ar
     5    2   26 1
     6    3    8 ar
     7    3   27 1
     8    4    5 ar
     9    4    9 ar
    10    4   28 1
    11    5   10 ar
    12    5   29 1
    13    6   12 ar
    14    6   30 1
    15    7    9 ar
    16    7   11 ar
    17    7   31 1
    18    8   12 ar
    19    8   13 1
    20    9   14 1
    21   10   11 ar
    22   10   22 1
    23   11   23 1
    24   12   24 1
    25   13   17 2
    26   13   19 1
    27   14   16 1
    28   14   18 2
    29   15   22 1
    30   15   23 1
    31   15   32 1
    32   15   33 1
    33   16   34 1
    34   16   35 1
    35   16   36 1
    36   17   24 1
    37   18   19 1
    38   19   37 1
    39   20   24 2
    40   21   24 2
