@<TRIPOS>MOLECULE
*****
   25    26     0     0     0
SMALL
NO_CHARGES

@<TRIPOS>ATOM
      1 C1          3.1823   -0.8786    1.6946 C.ar      1 <0>         0.0000
      2 C2          2.2274   -0.2158    2.4572 C.ar      1 <0>         0.0000
      3 C3          0.4985   -1.2371    1.0950 C.ar      1 <0>         0.0000
      4 C4          5.7867   -5.8057   -4.2360 C.2       1 <0>         0.0000
      5 C5          2.8492   -1.7324    0.6207 C.ar      1 <0>         0.0000
      6 C6          0.8799   -0.4043    2.1457 C.ar      1 <0>         0.0000
      7 C7          1.4718   -1.8956    0.3386 C.ar      1 <0>         0.0000
      8 C8          4.9806   -4.5044   -2.6771 C.2       1 <0>         0.0000
      9 C9          3.9718   -2.3543   -0.0815 C.2       1 <0>         0.0000
     10 N1          4.4863   -5.8239   -4.3341 N.2       1 <0>         0.0000
     11 N2          3.9570   -4.9941   -3.3409 N.2       1 <0>         0.0000
     12 N3          3.8594   -3.1586   -1.0810 N.2       1 <0>         0.0000
     13 N4          6.1689   -4.9768   -3.1914 N.pl3     1 <0>         0.0000
     14 N5          7.4323   -4.6305   -2.6888 N.3       1 <0>         0.0000
     15 N6          5.0040   -3.6399   -1.6088 N.pl3     1 <0>         0.0000
     16 Cl1        -0.3536    0.4138    3.0839 Cl        1 <0>         0.0000
     17 Cl2         0.8966   -2.9146   -0.9533 Cl        1 <0>         0.0000
     18 H1          4.2333   -0.7347    1.9337 H         1 <0>         0.0000
     19 H2          2.5189    0.4335    3.2760 H         1 <0>         0.0000
     20 H3         -0.5505   -1.3783    0.8593 H         1 <0>         0.0000
     21 H4          6.4920   -6.3424   -4.8574 H         1 <0>         0.0000
     22 H5          4.9631   -2.0835    0.3104 H         1 <0>         0.0000
     23 H6          7.9790   -4.1830   -3.4235 H         1 <0>         0.0000
     24 H7          7.9169   -5.4721   -2.3791 H         1 <0>         0.0000
     25 H8          5.9217   -3.3848   -1.2405 H         1 <0>         0.0000
@<TRIPOS>BOND
     1    1    2 ar
     2    1    5 ar
     3    1   18 1
     4    2    6 ar
     5    2   19 1
     6    3    6 ar
     7    3    7 ar
     8    3   20 1
     9    4   10 2
    10    4   13 1
    11    4   21 1
    12    5    7 ar
    13    5    9 1
    14    6   16 1
    15    7   17 1
    16    8   11 2
    17    8   13 1
    18    8   15 1
    19    9   12 2
    20    9   22 1
    21   10   11 1
    22   12   15 1
    23   13   14 1
    24   14   23 1
    25   14   24 1
    26   15   25 1
