@<TRIPOS>MOLECULE
*****
   25    26     0     0     0
SMALL
NO_CHARGES

@<TRIPOS>ATOM
      1 C1          4.5762    2.7541   -1.9564 C.ar      1 <0>         0.0000
      2 C2          5.7590    2.1870   -2.4269 C.ar      1 <0>         0.0000
      3 C3          3.7849    2.0133   -1.0743 C.ar      1 <0>         0.0000
      4 C4          1.5157   -0.9376    2.7456 C.ar      1 <0>         0.0000
      5 C5          0.1663   -1.3975    0.8191 C.ar      1 <0>         0.0000
      6 C6          6.0994    0.8995   -1.9864 C.ar      1 <0>         0.0000
      7 C7          0.7675   -1.8868    3.4354 C.ar      1 <0>         0.0000
      8 C8          1.2104   -0.6768    1.4016 C.ar      1 <0>         0.0000
      9 C9          4.2167    0.7370   -0.6841 C.ar      1 <0>         0.0000
     10 C10        -0.5121   -2.3272    1.6157 C.ar      1 <0>         0.0000
     11 C11         3.4283   -0.1090    0.2951 C.2       1 <0>         0.0000
     12 C12         1.9874    0.3354    0.6022 C.3       1 <0>         0.0000
     13 N1          5.3588    0.1899   -1.1348 N.ar      1 <0>         0.0000
     14 N2         -0.2440   -2.5794    2.8804 N.ar      1 <0>         0.0000
     15 O1          3.9220   -1.0852    0.8237 O.2       1 <0>         0.0000
     16 Br1        -1.9588   -3.3255    0.8154 Br        1 <0>         0.0000
     17 H1          4.2719    3.7497   -2.2679 H         1 <0>         0.0000
     18 H2          6.4070    2.7190   -3.1174 H         1 <0>         0.0000
     19 H3          2.8594    2.4334   -0.6957 H         1 <0>         0.0000
     20 H4          2.3304   -0.4205    3.2432 H         1 <0>         0.0000
     21 H5         -0.1168   -1.2493   -0.2179 H         1 <0>         0.0000
     22 H6          7.0133    0.4228   -2.3384 H         1 <0>         0.0000
     23 H7          0.9799   -2.1120    4.4784 H         1 <0>         0.0000
     24 H8          1.4727    0.5588   -0.3373 H         1 <0>         0.0000
     25 H9          2.0456    1.2822    1.1548 H         1 <0>         0.0000
@<TRIPOS>BOND
     1    1    2 ar
     2    1    3 ar
     3    1   17 1
     4    2    6 ar
     5    2   18 1
     6    3    9 ar
     7    3   19 1
     8    4    7 ar
     9    4    8 ar
    10    4   20 1
    11    5    8 ar
    12    5   10 ar
    13    5   21 1
    14    6   13 ar
    15    6   22 1
    16    7   14 ar
    17    7   23 1
    18    8   12 1
    19    9   11 1
    20    9   13 ar
    21   10   14 ar
    22   10   16 1
    23   11   12 1
    24   11   15 2
    25   12   24 1
    26   12   25 1
