@<TRIPOS>MOLECULE
*****
   25    26     0     0     0
SMALL
NO_CHARGES

@<TRIPOS>ATOM
      1 C1         -3.2499   -0.7622   -2.9483 C.ar      1 <0>         0.0000
      2 C2         -4.5625   -1.0720   -3.3092 C.ar      1 <0>         0.0000
      3 C3         -2.4393    0.0303   -3.7697 C.ar      1 <0>         0.0000
      4 C4         -5.0805   -0.5729   -4.4984 C.ar      1 <0>         0.0000
      5 C5         -2.9784    0.5060   -4.9741 C.ar      1 <0>         0.0000
      6 C6         -4.2948    0.2187   -5.3342 C.ar      1 <0>         0.0000
      7 C7          2.8000    1.7159   -2.5758 C.3       1 <0>         0.0000
      8 C8          2.3280    3.1719   -2.5924 C.3       1 <0>         0.0000
      9 C9          0.5444    1.6909   -2.5205 C.3       1 <0>         0.0000
     10 C10        -0.6523    1.6023   -3.4501 C.3       1 <0>         0.0000
     11 O1          1.6560    1.0165   -3.0729 O.3       1 <0>         0.0000
     12 O2          0.9112    3.0658   -2.3733 O.3       1 <0>         0.0000
     13 O3         -1.1454    0.2515   -3.3908 O.3       1 <0>         0.0000
     14 F1         -6.3498   -0.8464   -4.8675 F         1 <0>         0.0000
     15 F2         -2.2308    1.2425   -5.8225 F         1 <0>         0.0000
     16 F3         -4.7876    0.6926   -6.4900 F         1 <0>         0.0000
     17 H1         -2.8247   -1.1350   -2.0222 H         1 <0>         0.0000
     18 H2         -5.1928   -1.6869   -2.6751 H         1 <0>         0.0000
     19 H3          3.6408    1.5104   -3.2404 H         1 <0>         0.0000
     20 H4          3.0439    1.3815   -1.5576 H         1 <0>         0.0000
     21 H5          2.7678    3.7791   -1.7962 H         1 <0>         0.0000
     22 H6          2.5119    3.6488   -3.5620 H         1 <0>         0.0000
     23 H7          0.2994    1.2759   -1.5299 H         1 <0>         0.0000
     24 H8         -0.3456    1.8665   -4.4646 H         1 <0>         0.0000
     25 H9         -1.4203    2.3011   -3.1022 H         1 <0>         0.0000
@<TRIPOS>BOND
     1    1    2 ar
     2    1    3 ar
     3    1   17 1
     4    2    4 ar
     5    2   18 1
     6    3    5 ar
     7    3   13 1
     8    4    6 ar
     9    4   14 1
    10    5    6 ar
    11    5   15 1
    12    6   16 1
    13    7    8 1
    14    7   11 1
    15    7   19 1
    16    7   20 1
    17    8   12 1
    18    8   21 1
    19    8   22 1
    20    9   10 1
    21    9   12 1
    22    9   11 1
    23    9   23 1
    24   10   13 1
    25   10   24 1
    26   10   25 1
