@<TRIPOS>MOLECULE
*****
   27    29     0     0     0
SMALL
NO_CHARGES

@<TRIPOS>ATOM
      1 C1          7.0911   -6.4520   -0.2595 C.ar      1 <0>         0.0000
      2 C2          8.0246   -6.5419   -1.2964 C.ar      1 <0>         0.0000
      3 C3          6.3535   -5.2832   -0.0976 C.ar      1 <0>         0.0000
      4 C4          2.0333   -2.4364    1.2912 C.ar      1 <0>         0.0000
      5 C5          0.8397   -2.1553    1.9414 C.ar      1 <0>         0.0000
      6 C6          8.2064   -5.4638   -2.1633 C.ar      1 <0>         0.0000
      7 C7          1.3005    0.2181    1.6975 C.ar      1 <0>         0.0000
      8 C8          2.8891   -1.4166    0.8248 C.ar      1 <0>         0.0000
      9 C9          6.5272   -4.1744   -0.9507 C.ar      1 <0>         0.0000
     10 C10         0.4811   -0.8184    2.1384 C.ar      1 <0>         0.0000
     11 C11         2.5001   -0.0794    1.0438 C.ar      1 <0>         0.0000
     12 C12         7.4662   -4.2897   -1.9945 C.ar      1 <0>         0.0000
     13 C13         5.6975   -2.9893   -0.6662 C.2       1 <0>         0.0000
     14 C14         4.1153   -1.8585    0.1549 C.2       1 <0>         0.0000
     15 N1          4.5462   -3.0929    0.0929 N.2       1 <0>         0.0000
     16 N2          5.9720   -1.7566   -1.0472 N.2       1 <0>         0.0000
     17 O1          4.9169   -1.0000   -0.5048 O.3       1 <0>         0.0000
     18 Cl1        -1.0179   -0.4343    2.9514 Cl        1 <0>         0.0000
     19 Cl2         3.4705    1.2836    0.5445 Cl        1 <0>         0.0000
     20 Br1         7.7789   -2.9030   -3.2757 Br        1 <0>         0.0000
     21 H1          6.9389   -7.2871    0.4182 H         1 <0>         0.0000
     22 H2          8.6085   -7.4473   -1.4378 H         1 <0>         0.0000
     23 H3          5.6224   -5.2000    0.6990 H         1 <0>         0.0000
     24 H4          2.3336   -3.4648    1.1232 H         1 <0>         0.0000
     25 H5          0.1939   -2.9548    2.2885 H         1 <0>         0.0000
     26 H6          8.9202   -5.5292   -2.9776 H         1 <0>         0.0000
     27 H7          1.0170    1.2519    1.8591 H         1 <0>         0.0000
@<TRIPOS>BOND
     1    1    2 ar
     2    1    3 ar
     3    1   21 1
     4    2    6 ar
     5    2   22 1
     6    3    9 ar
     7    3   23 1
     8    4    5 ar
     9    4    8 ar
    10    4   24 1
    11    5   10 ar
    12    5   25 1
    13    6   12 ar
    14    6   26 1
    15    7   10 ar
    16    7   11 ar
    17    7   27 1
    18    8   11 ar
    19    8   14 1
    20    9   12 ar
    21    9   13 1
    22   10   18 1
    23   11   19 1
    24   12   20 1
    25   13   15 1
    26   13   16 2
    27   14   15 2
    28   14   17 1
    29   16   17 1
