@<TRIPOS>MOLECULE
*****
   37    40     0     0     0
SMALL
NO_CHARGES

@<TRIPOS>ATOM
      1 C1          0.5044   -3.8120    3.3134 C.ar      1 <0>         0.0000
      2 C2          1.2771   -4.2814    4.3846 C.ar      1 <0>         0.0000
      3 C3          0.6047   -4.3947    2.0437 C.ar      1 <0>         0.0000
      4 C4          2.2614   -9.5783   -3.5099 C.ar      1 <0>         0.0000
      5 C5          2.7914  -10.0587   -4.7220 C.ar      1 <0>         0.0000
      6 C6          2.1674   -5.3505    4.2107 C.ar      1 <0>         0.0000
      7 C7          2.4225   -7.2609   -4.2706 C.ar      1 <0>         0.0000
      8 C8          1.4989   -5.4528    1.8665 C.ar      1 <0>         0.0000
      9 C9          2.0725   -8.2081   -3.2710 C.ar      1 <0>         0.0000
     10 C10         3.1173   -9.1160   -5.6775 C.ar      1 <0>         0.0000
     11 C11         2.9330   -7.7478   -5.4502 C.ar      1 <0>         0.0000
     12 C12         2.2520   -5.9095    2.9457 C.ar      1 <0>         0.0000
     13 C13         1.8246   -6.2532    0.6487 C.2       1 <0>         0.0000
     14 C14         1.5355   -7.7382   -1.9714 C.2       1 <0>         0.0000
     15 C15         3.9383   -8.0012   -7.4371 C.3       1 <0>         0.0000
     16 C16         0.9263   -8.7339   -1.0204 C.3       1 <0>         0.0000
     17 N1          2.7109   -7.2029    0.7620 N.2       1 <0>         0.0000
     18 N2          1.6075   -6.4603   -1.7635 N.2       1 <0>         0.0000
     19 N3          1.1649   -5.9895   -0.5159 N.pl3     1 <0>         0.0000
     20 O1          4.6815   -6.9455    2.4223 O.2       1 <0>         0.0000
     21 O2          2.7978   -8.5409    2.9695 O.2       1 <0>         0.0000
     22 O3          3.6158   -9.3145   -6.9414 O.3       1 <0>         0.0000
     23 O4          3.3072   -7.0426   -6.5760 O.3       1 <0>         0.0000
     24 S1          3.2623   -7.2914    2.3640 S.o2      1 <0>         0.0000
     25 H1         -0.1844   -2.9870    3.4705 H         1 <0>         0.0000
     26 H2          1.1821   -3.8145    5.3608 H         1 <0>         0.0000
     27 H3         -0.0144   -4.0247    1.2305 H         1 <0>         0.0000
     28 H4          2.0199  -10.3011   -2.7392 H         1 <0>         0.0000
     29 H5          2.9406  -11.1190   -4.8973 H         1 <0>         0.0000
     30 H6          2.7667   -5.7269    5.0342 H         1 <0>         0.0000
     31 H7          2.2892   -6.2004   -4.0948 H         1 <0>         0.0000
     32 H8          5.0270   -7.8628   -7.4046 H         1 <0>         0.0000
     33 H9          3.5467   -7.8933   -8.4507 H         1 <0>         0.0000
     34 H10         1.7056   -9.2387   -0.4428 H         1 <0>         0.0000
     35 H11         0.2681   -8.2314   -0.3105 H         1 <0>         0.0000
     36 H12         0.3460   -9.4799   -1.5677 H         1 <0>         0.0000
     37 H13         0.8266   -5.0377   -0.6014 H         1 <0>         0.0000
@<TRIPOS>BOND
     1    1    2 ar
     2    1    3 ar
     3    1   25 1
     4    2    6 ar
     5    2   26 1
     6    3    8 ar
     7    3   27 1
     8    4    5 ar
     9    4    9 ar
    10    4   28 1
    11    5   10 ar
    12    5   29 1
    13    6   12 ar
    14    6   30 1
    15    7    9 ar
    16    7   11 ar
    17    7   31 1
    18    8   12 ar
    19    8   13 1
    20    9   14 1
    21   10   11 ar
    22   10   22 1
    23   11   23 1
    24   12   24 1
    25   13   17 2
    26   13   19 1
    27   14   16 1
    28   14   18 2
    29   15   22 1
    30   15   23 1
    31   15   32 1
    32   15   33 1
    33   16   34 1
    34   16   35 1
    35   16   36 1
    36   17   24 1
    37   18   19 1
    38   19   37 1
    39   20   24 2
    40   21   24 2
