@<TRIPOS>MOLECULE
*****
   29    30     0     0     0
SMALL
NO_CHARGES

@<TRIPOS>ATOM
      1 C1          7.5199   -5.7954   -0.9229 C.ar      1 <0>         0.0000
      2 C2          6.5308   -6.2790   -0.0595 C.ar      1 <0>         0.0000
      3 C3          7.4109   -4.4944   -1.4220 C.ar      1 <0>         0.0000
      4 C4          2.1479   -2.0496    1.7324 C.ar      1 <0>         0.0000
      5 C5          5.4530   -5.4694    0.2955 C.ar      1 <0>         0.0000
      6 C6          6.3361   -3.6701   -1.0769 C.ar      1 <0>         0.0000
      7 C7          0.9791   -1.5155    2.2758 C.ar      1 <0>         0.0000
      8 C8          1.8537   -0.6612   -0.2224 C.ar      1 <0>         0.0000
      9 C9          2.5890   -1.6323    0.4686 C.ar      1 <0>         0.0000
     10 C10         0.6715   -0.1127    0.2884 C.ar      1 <0>         0.0000
     11 C11         5.3460   -4.1609   -0.2091 C.ar      1 <0>         0.0000
     12 C12         0.2542   -0.5695    1.5501 C.ar      1 <0>         0.0000
     13 C13         3.8402   -2.1427   -0.1908 C.2       1 <0>         0.0000
     14 C14        -0.0974    0.9204   -0.4949 C.3       1 <0>         0.0000
     15 N1          4.2276   -3.4038    0.2055 N.am      1 <0>         0.0000
     16 O1          4.4420   -1.4712   -1.0277 O.2       1 <0>         0.0000
     17 Br1        -1.3570    0.1208    2.3349 Br        1 <0>         0.0000
     18 H1          8.3608   -6.4241   -1.2018 H         1 <0>         0.0000
     19 H2          6.5964   -7.2877    0.3397 H         1 <0>         0.0000
     20 H3          8.1722   -4.1077   -2.0947 H         1 <0>         0.0000
     21 H4          2.7221   -2.7544    2.3283 H         1 <0>         0.0000
     22 H5          4.6879   -5.8530    0.9686 H         1 <0>         0.0000
     23 H6          6.2532   -2.6673   -1.4715 H         1 <0>         0.0000
     24 H7          0.6384   -1.8242    3.2586 H         1 <0>         0.0000
     25 H8          2.2279   -0.3313   -1.1869 H         1 <0>         0.0000
     26 H9         -1.1140    0.5760   -0.7105 H         1 <0>         0.0000
     27 H10        -0.1896    1.8538    0.0696 H         1 <0>         0.0000
     28 H11         0.4027    1.1368   -1.4413 H         1 <0>         0.0000
     29 H12         3.5808   -3.8999    0.8038 H         1 <0>         0.0000
@<TRIPOS>BOND
     1    1    3 ar
     2    1    2 ar
     3    1   18 1
     4    2    5 ar
     5    2   19 1
     6    3    6 ar
     7    3   20 1
     8    4    7 ar
     9    4    9 ar
    10    4   21 1
    11    5   11 ar
    12    5   22 1
    13    6   11 ar
    14    6   23 1
    15    7   12 ar
    16    7   24 1
    17    8    9 ar
    18    8   10 ar
    19    8   25 1
    20    9   13 1
    21   10   12 ar
    22   10   14 1
    23   11   15 1
    24   12   17 1
    25   13   15 am
    26   13   16 2
    27   14   26 1
    28   14   27 1
    29   14   28 1
    30   15   29 1
