@<TRIPOS>MOLECULE
*****
   23    24     0     0     0
SMALL
NO_CHARGES

@<TRIPOS>ATOM
      1 C1         -1.0065    2.5280    0.3294 C.ar      1 <0>         0.0000
      2 C2         -1.3873    3.7197    0.9582 C.ar      1 <0>         0.0000
      3 C3         -0.4288    1.5853    2.4798 C.ar      1 <0>         0.0000
      4 C4         -0.5270    1.4539    1.0864 C.ar      1 <0>         0.0000
      5 C5         -1.2953    3.8375    2.3426 C.ar      1 <0>         0.0000
      6 C6         -0.8135    2.7651    3.1124 C.ar      1 <0>         0.0000
      7 C7         -1.3000   -0.8846    0.1296 C.3       1 <0>         0.0000
      8 C8         -0.5878   -1.1093   -1.2253 C.3       1 <0>         0.0000
      9 C9         -0.1677    0.1452    0.4317 C.3       1 <0>         0.0000
     10 N1          0.1177    0.1877   -1.0292 N.3       1 <0>         0.0000
     11 O1         -1.6453    4.9716    3.0598 O.3       1 <0>         0.0000
     12 O2         -0.7119    2.8757    4.4756 O.3       1 <0>         0.0000
     13 H1         -1.0666    2.4252   -0.7489 H         1 <0>         0.0000
     14 H2         -1.7541    4.5585    0.3677 H         1 <0>         0.0000
     15 H3         -0.0514    0.7713    3.0946 H         1 <0>         0.0000
     16 H4         -2.2687   -0.3924    0.0197 H         1 <0>         0.0000
     17 H5         -1.3907   -1.7362    0.8067 H         1 <0>         0.0000
     18 H6          0.0740   -1.9870   -1.2010 H         1 <0>         0.0000
     19 H7         -1.2065   -1.1528   -2.1279 H         1 <0>         0.0000
     20 H8          0.6320   -0.3454    1.0077 H         1 <0>         0.0000
     21 H9          1.1075    0.1909   -1.2694 H         1 <0>         0.0000
     22 H10        -1.9500    5.6597    2.4484 H         1 <0>         0.0000
     23 H11        -1.0162    3.7661    4.7235 H         1 <0>         0.0000
@<TRIPOS>BOND
     1    1    2 ar
     2    1    4 ar
     3    1   13 1
     4    2    5 ar
     5    2   14 1
     6    3    4 ar
     7    3    6 ar
     8    3   15 1
     9    4    9 1
    10    5    6 ar
    11    5   11 1
    12    6   12 1
    13    7    8 1
    14    7    9 1
    15    7   16 1
    16    7   17 1
    17    8   10 1
    18    8   18 1
    19    8   19 1
    20    9   10 1
    21    9   20 1
    22   10   21 1
    23   11   22 1
    24   12   23 1
