@<TRIPOS>MOLECULE
*****
   25    26     0     0     0
SMALL
NO_CHARGES

@<TRIPOS>ATOM
      1 C1          0.2372   -1.5863   -3.7986 C.ar      1 <0>         0.0000
      2 C2          0.8478   -2.3138   -4.8226 C.ar      1 <0>         0.0000
      3 C3         -0.0720   -0.7621   -6.4542 C.ar      1 <0>         0.0000
      4 C4         -0.5306   -0.4523   -4.0730 C.ar      1 <0>         0.0000
      5 C5         -0.6786   -0.0711   -5.4127 C.ar      1 <0>         0.0000
      6 C6          0.6925   -1.8871   -6.1418 C.ar      1 <0>         0.0000
      7 C7          2.6419    2.2451   -2.5404 C.3       1 <0>         0.0000
      8 C8          1.9287    3.5498   -2.1832 C.3       1 <0>         0.0000
      9 C9          0.4784    1.7407   -2.1027 C.3       1 <0>         0.0000
     10 C10        -0.8467    1.5808   -2.8343 C.3       1 <0>         0.0000
     11 O1          1.5576    1.4103   -2.9579 O.3       1 <0>         0.0000
     12 O2          0.6424    3.1084   -1.7185 O.3       1 <0>         0.0000
     13 O3         -1.1705    0.1962   -3.0454 O.3       1 <0>         0.0000
     14 F1         -1.4440    1.0091   -5.7132 F         1 <0>         0.0000
     15 Br1         1.5357   -2.8595   -7.5625 Br        1 <0>         0.0000
     16 H1          0.3526   -1.8869   -2.7618 H         1 <0>         0.0000
     17 H2          1.4420   -3.1918   -4.5935 H         1 <0>         0.0000
     18 H3         -0.2141   -0.4260   -7.4755 H         1 <0>         0.0000
     19 H4          3.3447    2.3308   -3.3708 H         1 <0>         0.0000
     20 H5          3.1497    1.8092   -1.6688 H         1 <0>         0.0000
     21 H6          2.4212    4.1099   -1.3835 H         1 <0>         0.0000
     22 H7          1.8017    4.1957   -3.0599 H         1 <0>         0.0000
     23 H8          0.5036    1.1116   -1.1989 H         1 <0>         0.0000
     24 H9         -0.8170    2.1397   -3.7722 H         1 <0>         0.0000
     25 H10        -1.6453    1.9763   -2.2042 H         1 <0>         0.0000
@<TRIPOS>BOND
     1    1    2 ar
     2    1    4 ar
     3    1   16 1
     4    2    6 ar
     5    2   17 1
     6    3    5 ar
     7    3    6 ar
     8    3   18 1
     9    4    5 ar
    10    4   13 1
    11    5   14 1
    12    6   15 1
    13    7    8 1
    14    7   11 1
    15    7   19 1
    16    7   20 1
    17    8   12 1
    18    8   21 1
    19    8   22 1
    20    9   10 1
    21    9   12 1
    22    9   11 1
    23    9   23 1
    24   10   13 1
    25   10   24 1
    26   10   25 1
