@<TRIPOS>MOLECULE
*****
   24    24     0     0     0
SMALL
NO_CHARGES

@<TRIPOS>ATOM
      1 C1          1.9925   -1.3736    0.1247 C.ar      1 <0>         0.0000
      2 C2          0.7435   -1.2519    0.7260 C.ar      1 <0>         0.0000
      3 C3          3.1335   -1.5821    0.9032 C.ar      1 <0>         0.0000
      4 C4          0.6212   -1.3067    2.1267 C.ar      1 <0>         0.0000
      5 C5          3.0342   -1.6668    2.2985 C.ar      1 <0>         0.0000
      6 C6          1.7705   -1.5058    2.9118 C.ar      1 <0>         0.0000
      7 C7         -0.7693   -1.1808    2.6614 C.2       1 <0>         0.0000
      8 C8          1.9750   -0.4272    5.0075 C.3       1 <0>         0.0000
      9 C9         -2.1636   -0.6879    4.4971 C.3       1 <0>         0.0000
     10 N1          4.1603   -1.8619    3.1126 N.pl3     1 <0>         0.0000
     11 O1         -1.7669   -1.3642    1.9831 O.2       1 <0>         0.0000
     12 O2          1.7300   -1.6485    4.2855 O.3       1 <0>         0.0000
     13 O3         -0.8317   -0.8116    3.9610 O.3       1 <0>         0.0000
     14 H1          2.0827   -1.3182   -0.9566 H         1 <0>         0.0000
     15 H2         -0.1559   -1.1166    0.1357 H         1 <0>         0.0000
     16 H3          4.1073   -1.6921    0.4301 H         1 <0>         0.0000
     17 H4          1.9808   -0.6963    6.0659 H         1 <0>         0.0000
     18 H5          1.1753    0.2933    4.8157 H         1 <0>         0.0000
     19 H6          2.9445    0.0009    4.7282 H         1 <0>         0.0000
     20 H7         -2.0292   -0.3995    5.5398 H         1 <0>         0.0000
     21 H8         -2.6931   -1.6408    4.4265 H         1 <0>         0.0000
     22 H9         -2.7263    0.0753    3.9542 H         1 <0>         0.0000
     23 H10         4.9184   -2.3484    2.6473 H         1 <0>         0.0000
     24 H11         3.9221   -2.3030    3.9957 H         1 <0>         0.0000
@<TRIPOS>BOND
     1    1    2 ar
     2    1    3 ar
     3    1   14 1
     4    2    4 ar
     5    2   15 1
     6    3    5 ar
     7    3   16 1
     8    4    6 ar
     9    4    7 1
    10    5    6 ar
    11    5   10 1
    12    6   12 1
    13    7   11 2
    14    7   13 1
    15    8   12 1
    16    8   17 1
    17    8   18 1
    18    8   19 1
    19    9   13 1
    20    9   20 1
    21    9   21 1
    22    9   22 1
    23   10   23 1
    24   10   24 1
