@<TRIPOS>MOLECULE
*****
   31    33     0     0     0
SMALL
NO_CHARGES

@<TRIPOS>ATOM
      1 C1         -3.5815   -2.6675    0.5914 C.ar      1 <0>         0.0000
      2 C2         -3.1997   -1.3210    0.6676 C.ar      1 <0>         0.0000
      3 C3         -2.6539   -3.6607    0.2519 C.ar      1 <0>         0.0000
      4 C4          0.6788   -4.5945   -3.3427 C.ar      1 <0>         0.0000
      5 C5          3.0529   -5.0456   -3.2603 C.ar      1 <0>         0.0000
      6 C6         -1.8783   -0.9351    0.4008 C.ar      1 <0>         0.0000
      7 C7          0.8769   -3.7345   -4.4168 C.ar      1 <0>         0.0000
      8 C8          3.2685   -4.1691   -4.3220 C.ar      1 <0>         0.0000
      9 C9         -1.3345   -3.2793   -0.0019 C.ar      1 <0>         0.0000
     10 C10         1.7653   -5.2541   -2.7382 C.ar      1 <0>         0.0000
     11 C11        -0.9772   -1.9346    0.0717 C.ar      1 <0>         0.0000
     12 C12         2.1738   -3.5168   -4.8917 C.ar      1 <0>         0.0000
     13 C13        -0.1441   -4.0971   -0.3804 C.2       1 <0>         0.0000
     14 C14         1.6387   -6.1903   -1.6131 C.2       1 <0>         0.0000
     15 N1          0.9861   -3.4813   -0.5665 N.2       1 <0>         0.0000
     16 N2          0.7582   -6.3547   -0.6837 N.2       1 <0>         0.0000
     17 N3         -0.3028   -5.4419   -0.5776 N.pl3     1 <0>         0.0000
     18 O1          0.9217   -1.1379   -1.6489 O.2       1 <0>         0.0000
     19 O2          1.5547   -1.3509    0.7919 O.2       1 <0>         0.0000
     20 S1          0.7753   -1.8078   -0.3566 S.o2      1 <0>         0.0000
     21 Cl1         2.4259   -2.4140   -6.2273 Cl        1 <0>         0.0000
     22 H1         -4.6117   -2.9448    0.7951 H         1 <0>         0.0000
     23 H2         -3.9367   -0.5678    0.9315 H         1 <0>         0.0000
     24 H3         -2.9749   -4.6970    0.1846 H         1 <0>         0.0000
     25 H4         -0.3294   -4.7604   -2.9817 H         1 <0>         0.0000
     26 H5          3.9024   -5.5573   -2.8146 H         1 <0>         0.0000
     27 H6         -1.5728    0.1058    0.4483 H         1 <0>         0.0000
     28 H7          0.0387   -3.2201   -4.8749 H         1 <0>         0.0000
     29 H8          4.2688   -3.9937   -4.7042 H         1 <0>         0.0000
     30 H9          2.4378   -6.9292   -1.5387 H         1 <0>         0.0000
     31 H10        -1.0529   -5.8572   -0.0370 H         1 <0>         0.0000
@<TRIPOS>BOND
     1    1    2 ar
     2    1    3 ar
     3    1   22 1
     4    2    6 ar
     5    2   23 1
     6    3    9 ar
     7    3   24 1
     8    4    7 ar
     9    4   10 ar
    10    4   25 1
    11    5    8 ar
    12    5   10 ar
    13    5   26 1
    14    6   11 ar
    15    6   27 1
    16    7   12 ar
    17    7   28 1
    18    8   12 ar
    19    8   29 1
    20    9   11 ar
    21    9   13 1
    22   10   14 1
    23   11   20 1
    24   12   21 1
    25   13   15 2
    26   13   17 1
    27   14   16 2
    28   14   30 1
    29   15   20 1
    30   16   17 1
    31   17   31 1
    32   18   20 2
    33   19   20 2
