@<TRIPOS>MOLECULE
*****
   27    29     0     0     0
SMALL
NO_CHARGES

@<TRIPOS>ATOM
      1 C1          9.1015   -4.7193   -1.3613 C.ar      1 <0>         0.0000
      2 C2          8.8245   -6.0775   -1.1804 C.ar      1 <0>         0.0000
      3 C3          8.0737   -3.7852   -1.2507 C.ar      1 <0>         0.0000
      4 C4          2.3737   -2.3469    1.5115 C.ar      1 <0>         0.0000
      5 C5          1.2652   -1.9930    2.2682 C.ar      1 <0>         0.0000
      6 C6          7.5210   -6.4950   -0.9028 C.ar      1 <0>         0.0000
      7 C7          1.2829    0.1992    1.2180 C.ar      1 <0>         0.0000
      8 C8          2.9644   -1.4546    0.5921 C.ar      1 <0>         0.0000
      9 C9          6.7554   -4.1809   -0.9594 C.ar      1 <0>         0.0000
     10 C10         0.7253   -0.7129    2.1113 C.ar      1 <0>         0.0000
     11 C11         2.3989   -0.1705    0.4615 C.ar      1 <0>         0.0000
     12 C12         6.4954   -5.5527   -0.7969 C.ar      1 <0>         0.0000
     13 C13         5.7267   -3.1307   -0.8475 C.2       1 <0>         0.0000
     14 C14         4.1253   -1.9650   -0.1408 C.2       1 <0>         0.0000
     15 N1          4.7549   -3.0827    0.1257 N.2       1 <0>         0.0000
     16 N2          5.7126   -2.1028   -1.6744 N.2       1 <0>         0.0000
     17 O1          4.6442   -1.3189   -1.2058 O.3       1 <0>         0.0000
     18 Cl1        -0.6718   -0.2410    3.0504 Cl        1 <0>         0.0000
     19 Cl2         3.0466    1.0425   -0.6157 Cl        1 <0>         0.0000
     20 Br1         4.7247   -6.2256   -0.5000 Br        1 <0>         0.0000
     21 H1         10.1124   -4.3891   -1.5819 H         1 <0>         0.0000
     22 H2          9.6170   -6.8168   -1.2590 H         1 <0>         0.0000
     23 H3          8.2756   -2.7266   -1.3802 H         1 <0>         0.0000
     24 H4          2.8127   -3.3337    1.6115 H         1 <0>         0.0000
     25 H5          0.8226   -2.6946    2.9671 H         1 <0>         0.0000
     26 H6          7.2955   -7.5489   -0.7786 H         1 <0>         0.0000
     27 H7          0.8612    1.1917    1.1077 H         1 <0>         0.0000
@<TRIPOS>BOND
     1    1    2 ar
     2    1    3 ar
     3    1   21 1
     4    2    6 ar
     5    2   22 1
     6    3    9 ar
     7    3   23 1
     8    4    5 ar
     9    4    8 ar
    10    4   24 1
    11    5   10 ar
    12    5   25 1
    13    6   12 ar
    14    6   26 1
    15    7   10 ar
    16    7   11 ar
    17    7   27 1
    18    8   11 ar
    19    8   14 1
    20    9   12 ar
    21    9   13 1
    22   10   18 1
    23   11   19 1
    24   12   20 1
    25   13   15 1
    26   13   16 2
    27   14   15 2
    28   14   17 1
    29   16   17 1
