@<TRIPOS>MOLECULE
*****
   32    33     0     0     0
SMALL
NO_CHARGES

@<TRIPOS>ATOM
      1 C1          0.5787   -5.2021   -0.2359 C.2       1 <0>         0.0000
      2 C2         -0.0063   -1.1241   -1.4617 C.2       1 <0>         0.0000
      3 C3         -0.7604   -5.3016    0.2775 C.2       1 <0>         0.0000
      4 C4          0.1797   -0.8037   -0.0833 C.2       1 <0>         0.0000
      5 C5          0.5172   -2.4095   -1.6610 C.2       1 <0>         0.0000
      6 C6          0.7555   -6.3624   -0.9367 C.2       1 <0>         0.0000
      7 C7         -1.5108   -4.3000    1.0996 C.3       1 <0>         0.0000
      8 C8         -0.1867    0.4317    0.6746 C.3       1 <0>         0.0000
      9 C9          0.6151   -3.2771   -2.8728 C.3       1 <0>         0.0000
     10 C10         1.8804   -6.9233   -1.7370 C.3       1 <0>         0.0000
     11 C11         1.5378   -4.0681   -0.0420 C.3       1 <0>         0.0000
     12 N1          0.7692   -1.8270    0.5258 N.2       1 <0>         0.0000
     13 N2         -1.3280   -6.4304   -0.0843 N.2       1 <0>         0.0000
     14 N3          0.9686   -2.7785   -0.4414 N.pl3     1 <0>         0.0000
     15 N4         -0.6117   -0.2975   -2.4549 N.pl3     1 <0>         0.0000
     16 O1         -0.7438   -0.7540   -3.6040 O.3       1 <0>         0.0000
     17 O2         -0.9788    0.8378   -2.1134 O.2       1 <0>         0.0000
     18 O3         -0.3656   -7.1130   -0.8559 O.3       1 <0>         0.0000
     19 H1         -1.6995   -3.3900    0.5216 H         1 <0>         0.0000
     20 H2         -2.4667   -4.7198    1.4188 H         1 <0>         0.0000
     21 H3         -0.9333   -4.0048    1.9804 H         1 <0>         0.0000
     22 H4         -1.2600    0.6286    0.6054 H         1 <0>         0.0000
     23 H5          0.0963    0.3074    1.7220 H         1 <0>         0.0000
     24 H6          0.3194    1.3077    0.2601 H         1 <0>         0.0000
     25 H7          0.6890   -2.6604   -3.7674 H         1 <0>         0.0000
     26 H8          1.4817   -3.9393   -2.8115 H         1 <0>         0.0000
     27 H9         -0.2797   -3.9011   -2.9719 H         1 <0>         0.0000
     28 H10         2.2416   -7.8592   -1.2988 H         1 <0>         0.0000
     29 H11         1.5550   -7.1374   -2.7600 H         1 <0>         0.0000
     30 H12         2.7149   -6.2200   -1.7768 H         1 <0>         0.0000
     31 H13         1.8044   -3.9376    1.0088 H         1 <0>         0.0000
     32 H14         2.4633   -4.2443   -0.5980 H         1 <0>         0.0000
@<TRIPOS>BOND
     1    1    3 1
     2    1    6 2
     3    1   11 1
     4    2    4 1
     5    2    5 2
     6    2   15 1
     7    3    7 1
     8    3   13 2
     9    4    8 1
    10    4   12 2
    11    5    9 1
    12    5   14 1
    13    6   10 1
    14    6   18 1
    15    7   19 1
    16    7   20 1
    17    7   21 1
    18    8   22 1
    19    8   23 1
    20    8   24 1
    21    9   25 1
    22    9   26 1
    23    9   27 1
    24   10   28 1
    25   10   29 1
    26   10   30 1
    27   11   14 1
    28   11   31 1
    29   11   32 1
    30   12   14 1
    31   13   18 1
    32   15   16 1
    33   15   17 2
