@<TRIPOS>MOLECULE
*****
   32    34     0     0     0
SMALL
NO_CHARGES

@<TRIPOS>ATOM
      1 C1          7.9054   -3.8484    4.4495 C.1       1 <0>         0.0000
      2 C2          0.5548   -1.2462    2.1477 C.ar      1 <0>         0.0000
      3 C3          0.6445   -0.4044    1.0352 C.ar      1 <0>         0.0000
      4 C4          1.7211   -1.7551    2.7141 C.ar      1 <0>         0.0000
      5 C5          1.8963   -0.0769    0.5104 C.ar      1 <0>         0.0000
      6 C6          9.2353   -3.9384   -0.1839 C.2       1 <0>         0.0000
      7 C7          9.0023   -3.7356   -1.5119 C.2       1 <0>         0.0000
      8 C8          7.0576   -3.0839   -0.1021 C.2       1 <0>         0.0000
      9 C9          2.9827   -1.4358    2.1796 C.ar      1 <0>         0.0000
     10 C10         8.1177   -3.5654    0.6572 C.2       1 <0>         0.0000
     11 C11         3.0850   -0.5772    1.0620 C.ar      1 <0>         0.0000
     12 C12         4.1651   -2.0159    2.8412 C.2       1 <0>         0.0000
     13 C13         6.0559   -2.9056    3.1612 C.2       1 <0>         0.0000
     14 C14         8.2193   -3.7382    2.0868 C.2       1 <0>         0.0000
     15 C15         7.3911   -3.4892    3.1524 C.2       1 <0>         0.0000
     16 C16         4.4048   -0.1622    0.4519 C.3       1 <0>         0.0000
     17 N1          8.3523   -4.1502    5.4825 N.1       1 <0>         0.0000
     18 N2          5.3194   -2.4183    2.1930 N.2       1 <0>         0.0000
     19 N3          4.1886   -2.2357    4.1424 N.2       1 <0>         0.0000
     20 O1          5.4376   -2.8312    4.3616 O.3       1 <0>         0.0000
     21 S1          7.4107   -3.0862   -1.7791 S.3       1 <0>         0.0000
     22 H1         -0.4129   -1.5058    2.5678 H         1 <0>         0.0000
     23 H2         -0.2557    0.0007    0.5803 H         1 <0>         0.0000
     24 H3          1.6697   -2.4139    3.5753 H         1 <0>         0.0000
     25 H4          1.9578    0.5916   -0.3451 H         1 <0>         0.0000
     26 H5         10.1665   -4.3396    0.2040 H         1 <0>         0.0000
     27 H6          9.6622   -3.9265   -2.3482 H         1 <0>         0.0000
     28 H7          6.1066   -2.7357    0.2724 H         1 <0>         0.0000
     29 H8          9.1709   -4.1716    2.3867 H         1 <0>         0.0000
     30 H9          5.1725    0.0216    1.2064 H         1 <0>         0.0000
     31 H10         4.7940   -0.9379   -0.2154 H         1 <0>         0.0000
     32 H11         4.2777    0.7487   -0.1392 H         1 <0>         0.0000
@<TRIPOS>BOND
     1    1   15 1
     2    1   17 3
     3    2    3 ar
     4    2    4 ar
     5    2   22 1
     6    3    5 ar
     7    3   23 1
     8    4    9 ar
     9    4   24 1
    10    5   11 ar
    11    5   25 1
    12    6    7 2
    13    6   10 1
    14    6   26 1
    15    7   21 1
    16    7   27 1
    17    8   10 2
    18    8   21 1
    19    8   28 1
    20    9   11 ar
    21    9   12 1
    22   10   14 1
    23   11   16 1
    24   12   18 1
    25   12   19 2
    26   13   15 1
    27   13   18 2
    28   13   20 1
    29   14   15 2
    30   14   29 1
    31   16   30 1
    32   16   31 1
    33   16   32 1
    34   19   20 1
