@<TRIPOS>MOLECULE
*****
   25    26     0     0     0
SMALL
NO_CHARGES

@<TRIPOS>ATOM
      1 C1          2.5438    0.0058    1.3158 C.ar      1 <0>         0.0000
      2 C2          1.6931    0.3186    2.3695 C.ar      1 <0>         0.0000
      3 C3          1.0149   -2.0088    2.4558 C.ar      1 <0>         0.0000
      4 C4          5.2942   -5.7573   -3.1912 C.2       1 <0>         0.0000
      5 C5          2.6658   -1.2988    0.7890 C.ar      1 <0>         0.0000
      6 C6          0.9266   -0.7020    2.9346 C.ar      1 <0>         0.0000
      7 C7          1.8759   -2.3011    1.3965 C.ar      1 <0>         0.0000
      8 C8          5.1730   -3.7067   -2.4969 C.2       1 <0>         0.0000
      9 C9          3.6042   -1.4553   -0.3233 C.2       1 <0>         0.0000
     10 N1          6.4799   -5.2242   -3.3463 N.2       1 <0>         0.0000
     11 N2          6.4094   -3.9080   -2.8886 N.2       1 <0>         0.0000
     12 N3          3.7923   -2.5430   -0.9842 N.2       1 <0>         0.0000
     13 N4          4.4138   -4.8375   -2.6654 N.pl3     1 <0>         0.0000
     14 N5          3.0421   -5.0594   -2.4385 N.3       1 <0>         0.0000
     15 N6          4.6686   -2.4951   -2.0349 N.pl3     1 <0>         0.0000
     16 Cl1        -0.1563   -0.3477    4.2616 Cl        1 <0>         0.0000
     17 Cl2         1.9191   -3.9810    0.8972 Cl        1 <0>         0.0000
     18 H1          3.1410    0.7991    0.8734 H         1 <0>         0.0000
     19 H2          1.6240    1.3333    2.7469 H         1 <0>         0.0000
     20 H3          0.4218   -2.7985    2.9032 H         1 <0>         0.0000
     21 H4          5.0002   -6.7721   -3.4215 H         1 <0>         0.0000
     22 H5          4.1607   -0.5457   -0.5849 H         1 <0>         0.0000
     23 H6          2.5204   -4.4917   -3.1079 H         1 <0>         0.0000
     24 H7          2.8277   -4.6941   -1.5103 H         1 <0>         0.0000
     25 H8          5.3706   -1.7525   -2.0458 H         1 <0>         0.0000
@<TRIPOS>BOND
     1    1    2 ar
     2    1    5 ar
     3    1   18 1
     4    2    6 ar
     5    2   19 1
     6    3    6 ar
     7    3    7 ar
     8    3   20 1
     9    4   10 2
    10    4   13 1
    11    4   21 1
    12    5    7 ar
    13    5    9 1
    14    6   16 1
    15    7   17 1
    16    8   11 2
    17    8   13 1
    18    8   15 1
    19    9   12 2
    20    9   22 1
    21   10   11 1
    22   12   15 1
    23   13   14 1
    24   14   23 1
    25   14   24 1
    26   15   25 1
