@<TRIPOS>MOLECULE
*****
   47    50     0     0     0
SMALL
NO_CHARGES

@<TRIPOS>ATOM
      1 C1          7.1210   -4.1500    1.9272 C.1       1 <0>         0.0000
      2 C2          4.8047   -6.7744    0.6935 C.ar      1 <0>         0.0000
      3 C3          3.8100   -6.0049    0.0760 C.ar      1 <0>         0.0000
      4 C4          5.8820   -6.1323    1.2956 C.ar      1 <0>         0.0000
      5 C5          3.8941   -4.6157    0.0626 C.ar      1 <0>         0.0000
      6 C6          5.8281   -1.5015    1.1381 C.2       1 <0>         0.0000
      7 C7          5.2701   -0.2482    0.7319 C.2       1 <0>         0.0000
      8 C8          5.9763   -4.7285    1.2863 C.ar      1 <0>         0.0000
      9 C9          4.9750   -3.9376    0.6641 C.ar      1 <0>         0.0000
     10 C10         5.0113   -2.4830    0.6218 C.2       1 <0>         0.0000
     11 C11         4.1547   -0.5311   -0.0092 C.2       1 <0>         0.0000
     12 C12        -0.2494    1.9486    0.9043 C.3       1 <0>         0.0000
     13 C13         0.2520    2.0270   -0.5618 C.3       1 <0>         0.0000
     14 C14        -0.7619   -0.5424    1.1600 C.3       1 <0>         0.0000
     15 C15         1.6428    0.3468    1.2001 C.3       1 <0>         0.0000
     16 C16        -0.4221   -0.3456   -1.2634 C.3       1 <0>         0.0000
     17 C17         0.1800    0.6204    1.5542 C.3       1 <0>         0.0000
     18 C18         0.7308    0.6560   -1.0777 C.3       1 <0>         0.0000
     19 C19        -2.4246   -1.3493   -0.3933 C.3       1 <0>         0.0000
     20 C20         3.1469    0.3227   -0.7081 C.3       1 <0>         0.0000
     21 N1          8.0622   -3.7120    2.4583 N.1       1 <0>         0.0000
     22 N2         -1.3757   -0.3672   -0.1570 N.3       1 <0>         0.0000
     23 N3          1.7923    0.0714   -0.2330 N.3       1 <0>         0.0000
     24 O1          3.9872   -1.8848   -0.0850 O.3       1 <0>         0.0000
     25 H1          4.7394   -7.8584    0.7046 H         1 <0>         0.0000
     26 H2          2.9619   -6.4928   -0.3970 H         1 <0>         0.0000
     27 H3          6.6667   -6.7047    1.7807 H         1 <0>         0.0000
     28 H4          3.1166   -4.0306   -0.4148 H         1 <0>         0.0000
     29 H5          6.7122   -1.6486    1.7392 H         1 <0>         0.0000
     30 H6          5.6457    0.7391    0.9662 H         1 <0>         0.0000
     31 H7          0.1709    2.7786    1.4835 H         1 <0>         0.0000
     32 H8         -1.3373    2.0405    0.9403 H         1 <0>         0.0000
     33 H9         -0.5339    2.4104   -1.2204 H         1 <0>         0.0000
     34 H10         1.0922    2.7278   -0.6344 H         1 <0>         0.0000
     35 H11        -0.2178   -1.5029    1.2417 H         1 <0>         0.0000
     36 H12        -1.5853   -0.5814    1.8818 H         1 <0>         0.0000
     37 H13         2.2412    1.2262    1.5047 H         1 <0>         0.0000
     38 H14         2.0285   -0.5070    1.7708 H         1 <0>         0.0000
     39 H15        -0.9833   -0.0732   -2.1666 H         1 <0>         0.0000
     40 H16         0.0323   -1.3382   -1.4406 H         1 <0>         0.0000
     41 H17         0.1311    0.7205    2.6442 H         1 <0>         0.0000
     42 H18         1.1645    0.7932   -2.0738 H         1 <0>         0.0000
     43 H19        -2.9181   -1.1406   -1.3486 H         1 <0>         0.0000
     44 H20        -3.1789   -1.2868    0.3981 H         1 <0>         0.0000
     45 H21        -2.0472   -2.3897   -0.4263 H         1 <0>         0.0000
     46 H22         3.4696    1.3729   -0.5729 H         1 <0>         0.0000
     47 H23         3.1807    0.1069   -1.7824 H         1 <0>         0.0000
@<TRIPOS>BOND
     1    1    8 1
     2    1   21 3
     3    2    3 ar
     4    2    4 ar
     5    2   25 1
     6    3    5 ar
     7    3   26 1
     8    4    8 ar
     9    4   27 1
    10    5    9 ar
    11    5   28 1
    12    6    7 1
    13    6   10 2
    14    6   29 1
    15    7   11 2
    16    7   30 1
    17    8    9 ar
    18    9   10 1
    19   10   24 1
    20   11   20 1
    21   11   24 1
    22   12   13 1
    23   12   17 1
    24   12   31 1
    25   12   32 1
    26   13   18 1
    27   13   33 1
    28   13   34 1
    29   14   17 1
    30   14   22 1
    31   14   35 1
    32   14   36 1
    33   15   17 1
    34   15   23 1
    35   15   37 1
    36   15   38 1
    37   16   18 1
    38   16   22 1
    39   16   39 1
    40   16   40 1
    41   17   41 1
    42   18   23 1
    43   18   42 1
    44   19   22 1
    45   19   43 1
    46   19   44 1
    47   19   45 1
    48   20   23 1
    49   20   46 1
    50   20   47 1
