@<TRIPOS>MOLECULE
*****
   47    50     0     0     0
SMALL
NO_CHARGES

@<TRIPOS>ATOM
      1 C1          6.3816   -0.7768   -1.8837 C.1       1 <0>         0.0000
      2 C2          9.4048   -0.1301    0.1728 C.ar      1 <0>         0.0000
      3 C3          9.0625   -0.7300    1.3919 C.ar      1 <0>         0.0000
      4 C4          8.4905   -0.1481   -0.8757 C.ar      1 <0>         0.0000
      5 C5          7.8168   -1.3280    1.5548 C.ar      1 <0>         0.0000
      6 C6          5.1750   -2.9442    1.6639 C.2       1 <0>         0.0000
      7 C7          3.7992   -3.2143    1.3761 C.2       1 <0>         0.0000
      8 C8          7.2321   -0.7618   -0.7245 C.ar      1 <0>         0.0000
      9 C9          6.8727   -1.3622    0.5096 C.ar      1 <0>         0.0000
     10 C10         5.5922   -2.0131    0.7400 C.2       1 <0>         0.0000
     11 C11         3.4613   -2.4347    0.3007 C.2       1 <0>         0.0000
     12 C12         0.4869    1.6206    0.0625 C.3       1 <0>         0.0000
     13 C13         0.6913    1.0706   -1.3746 C.3       1 <0>         0.0000
     14 C14        -1.2704   -0.0614    0.8475 C.3       1 <0>         0.0000
     15 C15         1.2381   -0.5829    1.0337 C.3       1 <0>         0.0000
     16 C16        -0.6837   -1.0813   -1.3020 C.3       1 <0>         0.0000
     17 C17         0.1478    0.5013    1.0616 C.3       1 <0>         0.0000
     18 C18         0.7375   -0.4654   -1.3791 C.3       1 <0>         0.0000
     19 C19        -2.9926   -0.7695   -0.6729 C.3       1 <0>         0.0000
     20 C20         2.1981   -2.2406   -0.4748 C.3       1 <0>         0.0000
     21 N1          5.7697   -0.7630   -2.8755 N.1       1 <0>         0.0000
     22 N2         -1.6336   -0.2609   -0.5535 N.3       1 <0>         0.0000
     23 N3          1.6711   -0.8930   -0.3319 N.3       1 <0>         0.0000
     24 O1          4.5468   -1.7014   -0.0892 O.3       1 <0>         0.0000
     25 H1         10.3725    0.3457    0.0440 H         1 <0>         0.0000
     26 H2          9.7647   -0.7185    2.2211 H         1 <0>         0.0000
     27 H3          8.7381    0.3036   -1.8314 H         1 <0>         0.0000
     28 H4          7.5526   -1.7614    2.5144 H         1 <0>         0.0000
     29 H5          5.7809   -3.4010    2.4349 H         1 <0>         0.0000
     30 H6          3.1419   -3.8991    1.8955 H         1 <0>         0.0000
     31 H7          1.4028    2.1161    0.4024 H         1 <0>         0.0000
     32 H8         -0.3076    2.3736    0.0738 H         1 <0>         0.0000
     33 H9         -0.1132    1.4083   -2.0329 H         1 <0>         0.0000
     34 H10         1.6379    1.4363   -1.7821 H         1 <0>         0.0000
     35 H11        -1.3740   -0.9978    1.4330 H         1 <0>         0.0000
     36 H12        -1.9941    0.6496    1.2646 H         1 <0>         0.0000
     37 H13         2.1076   -0.2433    1.6117 H         1 <0>         0.0000
     38 H14         0.8578   -1.4850    1.5459 H         1 <0>         0.0000
     39 H15        -1.0750   -1.1695   -2.3221 H         1 <0>         0.0000
     40 H16        -0.6197   -2.1131   -0.9011 H         1 <0>         0.0000
     41 H17         0.1523    0.9176    2.0762 H         1 <0>         0.0000
     42 H18         1.1766   -0.7961   -2.3260 H         1 <0>         0.0000
     43 H19        -3.2786   -0.8243   -1.7284 H         1 <0>         0.0000
     44 H20        -3.6879   -0.0900   -0.1685 H         1 <0>         0.0000
     45 H21        -3.1208   -1.7769   -0.2306 H         1 <0>         0.0000
     46 H22         2.4071   -2.4170   -1.5359 H         1 <0>         0.0000
     47 H23         1.4925   -3.0250   -0.1416 H         1 <0>         0.0000
@<TRIPOS>BOND
     1    1    8 1
     2    1   21 3
     3    2    3 ar
     4    2    4 ar
     5    2   25 1
     6    3    5 ar
     7    3   26 1
     8    4    8 ar
     9    4   27 1
    10    5    9 ar
    11    5   28 1
    12    6    7 1
    13    6   10 2
    14    6   29 1
    15    7   11 2
    16    7   30 1
    17    8    9 ar
    18    9   10 1
    19   10   24 1
    20   11   20 1
    21   11   24 1
    22   12   13 1
    23   12   17 1
    24   12   31 1
    25   12   32 1
    26   13   18 1
    27   13   33 1
    28   13   34 1
    29   14   17 1
    30   14   22 1
    31   14   35 1
    32   14   36 1
    33   15   17 1
    34   15   23 1
    35   15   37 1
    36   15   38 1
    37   16   18 1
    38   16   22 1
    39   16   39 1
    40   16   40 1
    41   17   41 1
    42   18   23 1
    43   18   42 1
    44   19   22 1
    45   19   43 1
    46   19   44 1
    47   19   45 1
    48   20   23 1
    49   20   46 1
    50   20   47 1
