@<TRIPOS>MOLECULE
*****
   25    27     0     0     0
SMALL
NO_CHARGES

@<TRIPOS>ATOM
      1 C1         -0.0363   -2.1525    2.2638 C.ar      1 <0>         0.0000
      2 C2          6.1729   -1.5091    7.4628 C.ar      1 <0>         0.0000
      3 C3          1.0269   -1.6486    3.0086 C.ar      1 <0>         0.0000
      4 C4          5.2023   -1.2409    6.5126 C.ar      1 <0>         0.0000
      5 C5         -0.6813   -1.2884    1.3760 C.ar      1 <0>         0.0000
      6 C6          7.0232   -0.4555    7.8190 C.ar      1 <0>         0.0000
      7 C7          1.4211   -0.3110    2.8558 C.ar      1 <0>         0.0000
      8 C8          5.1633    0.0651    5.9959 C.ar      1 <0>         0.0000
      9 C9          0.6917    0.4684    1.9254 C.ar      1 <0>         0.0000
     10 C10         4.1521    0.4169    4.9793 C.2       1 <0>         0.0000
     11 C11         2.5386    0.1847    3.6512 C.2       1 <0>         0.0000
     12 N1         -0.3266   -0.0078    1.2096 N.ar      1 <0>         0.0000
     13 N2          6.9400    0.7734    7.2921 N.ar      1 <0>         0.0000
     14 N3          6.0090    1.0358    6.3788 N.ar      1 <0>         0.0000
     15 N4          3.2375   -0.5067    4.5202 N.2       1 <0>         0.0000
     16 N5          4.0393    1.6123    4.4371 N.2       1 <0>         0.0000
     17 O1          2.9619    1.4605    3.5490 O.3       1 <0>         0.0000
     18 O2          1.0200    1.7618    1.7311 O.3       1 <0>         0.0000
     19 H1         -0.3591   -3.1833    2.3649 H         1 <0>         0.0000
     20 H2          6.2780   -2.4901    7.9173 H         1 <0>         0.0000
     21 H3          1.5681   -2.2698    3.7149 H         1 <0>         0.0000
     22 H4          4.4934   -1.9851    6.1661 H         1 <0>         0.0000
     23 H5         -1.5176   -1.6323    0.7705 H         1 <0>         0.0000
     24 H6          7.8110   -0.5845    8.5573 H         1 <0>         0.0000
     25 H7          0.3970    2.0983    1.0591 H         1 <0>         0.0000
@<TRIPOS>BOND
     1    1    3 ar
     2    1    5 ar
     3    1   19 1
     4    2    4 ar
     5    2    6 ar
     6    2   20 1
     7    3    7 ar
     8    3   21 1
     9    4    8 ar
    10    4   22 1
    11    5   12 ar
    12    5   23 1
    13    6   13 ar
    14    6   24 1
    15    7    9 ar
    16    7   11 1
    17    8   10 1
    18    8   14 ar
    19    9   12 ar
    20    9   18 1
    21   10   15 1
    22   10   16 2
    23   11   15 2
    24   11   17 1
    25   13   14 ar
    26   16   17 1
    27   18   25 1
