@<TRIPOS>MOLECULE
*****
   36    39     0     0     0
SMALL
NO_CHARGES

@<TRIPOS>ATOM
      1 C1          8.7738   -1.9899    5.4235 C.ar      1 <0>         0.0000
      2 C2          8.8337   -0.6755    4.9438 C.ar      1 <0>         0.0000
      3 C3          7.6493   -2.7755    5.1487 C.ar      1 <0>         0.0000
      4 C4          7.7819   -0.1486    4.1966 C.ar      1 <0>         0.0000
      5 C5          6.5937   -2.2527    4.4013 C.ar      1 <0>         0.0000
      6 C6          4.4172    1.1562    1.9533 C.2       1 <0>         0.0000
      7 C7          6.6468   -0.9338    3.9163 C.ar      1 <0>         0.0000
      8 C8          3.4882    0.1421    1.8737 C.2       1 <0>         0.0000
      9 C9          0.5006    0.8355    0.0383 C.2       1 <0>         0.0000
     10 C10         0.1942   -0.4554    0.4630 C.2       1 <0>         0.0000
     11 C11         2.2078    0.1868    1.1990 C.2       1 <0>         0.0000
     12 C12         5.5587   -0.3492    3.1278 C.2       1 <0>         0.0000
     13 C13        -0.2821    1.8204   -0.7632 C.2       1 <0>         0.0000
     14 C14        -0.9573   -1.3946    0.2684 C.3       1 <0>         0.0000
     15 C15        -2.1837   -0.7605   -0.3928 C.3       1 <0>         0.0000
     16 C16        -1.8408    0.0074   -1.6770 C.3       1 <0>         0.0000
     17 N1          5.5578    0.8709    2.6494 N.2       1 <0>         0.0000
     18 N2          1.7462    1.2092    0.5064 N.2       1 <0>         0.0000
     19 N3          1.2936   -0.8499    1.1991 N.pl3     1 <0>         0.0000
     20 N4         -1.4015    1.3761   -1.4334 N.am      1 <0>         0.0000
     21 O1          0.0415    3.0050   -0.8154 O.2       1 <0>         0.0000
     22 S1          4.0902   -1.2559    2.7269 S.3       1 <0>         0.0000
     23 H1          9.5956   -2.3979    6.0058 H         1 <0>         0.0000
     24 H2          9.7044   -0.0598    5.1538 H         1 <0>         0.0000
     25 H3          7.5945   -3.7965    5.5170 H         1 <0>         0.0000
     26 H4          7.8178    0.8683    3.8202 H         1 <0>         0.0000
     27 H5          5.7276   -2.8777    4.1971 H         1 <0>         0.0000
     28 H6          4.2762    2.1312    1.5013 H         1 <0>         0.0000
     29 H7         -0.6189   -2.2403   -0.3470 H         1 <0>         0.0000
     30 H8         -1.2490   -1.8206    1.2371 H         1 <0>         0.0000
     31 H9         -2.8933   -1.5610   -0.6289 H         1 <0>         0.0000
     32 H10        -2.6830   -0.0759    0.3001 H         1 <0>         0.0000
     33 H11        -1.0925   -0.5516   -2.2574 H         1 <0>         0.0000
     34 H12        -2.7344    0.0812   -2.3017 H         1 <0>         0.0000
     35 H13         1.3890   -1.7397    1.6742 H         1 <0>         0.0000
     36 H14        -1.8297    2.1136   -1.9798 H         1 <0>         0.0000
@<TRIPOS>BOND
     1    1    3 ar
     2    1    2 ar
     3    1   23 1
     4    2    4 ar
     5    2   24 1
     6    3    5 ar
     7    3   25 1
     8    4    7 ar
     9    4   26 1
    10    5    7 ar
    11    5   27 1
    12    6    8 2
    13    6   17 1
    14    6   28 1
    15    7   12 1
    16    8   11 1
    17    8   22 1
    18    9   10 2
    19    9   13 1
    20    9   18 1
    21   10   14 1
    22   10   19 1
    23   11   18 2
    24   11   19 1
    25   12   17 2
    26   12   22 1
    27   13   20 am
    28   13   21 2
    29   14   15 1
    30   14   29 1
    31   14   30 1
    32   15   16 1
    33   15   31 1
    34   15   32 1
    35   16   20 1
    36   16   33 1
    37   16   34 1
    38   19   35 1
    39   20   36 1
