@<TRIPOS>MOLECULE
*****
   25    26     0     0     0
SMALL
NO_CHARGES

@<TRIPOS>ATOM
      1 C1         -4.4049   -0.1147   -4.6581 C.ar      1 <0>         0.0000
      2 C2         -4.1143   -0.9824   -5.7141 C.ar      1 <0>         0.0000
      3 C3         -1.7959   -1.0659   -4.9729 C.ar      1 <0>         0.0000
      4 C4         -2.0829   -0.1939   -3.9136 C.ar      1 <0>         0.0000
      5 C5         -3.4029    0.2592   -3.7716 C.ar      1 <0>         0.0000
      6 C6         -2.8066   -1.4515   -5.8506 C.ar      1 <0>         0.0000
      7 C7          1.3480    3.2265   -0.7243 C.3       1 <0>         0.0000
      8 C8          0.8698    1.9892    0.0276 C.3       1 <0>         0.0000
      9 C9          0.5306    1.6673   -2.2161 C.3       1 <0>         0.0000
     10 C10        -0.9241    1.4781   -2.6288 C.3       1 <0>         0.0000
     11 O1          0.7336    3.0646   -2.0099 O.3       1 <0>         0.0000
     12 O2          0.8528    0.9972   -1.0052 O.3       1 <0>         0.0000
     13 O3         -1.0660    0.1126   -3.0580 O.3       1 <0>         0.0000
     14 F1         -3.7217    1.0749   -2.7315 F         1 <0>         0.0000
     15 Br1        -2.3798   -2.6433   -7.2916 Br        1 <0>         0.0000
     16 H1         -5.4104    0.2649   -4.5034 H         1 <0>         0.0000
     17 H2         -4.8907   -1.2867   -6.4070 H         1 <0>         0.0000
     18 H3         -0.7781   -1.4238   -5.0828 H         1 <0>         0.0000
     19 H4          1.0032    4.1710   -0.2975 H         1 <0>         0.0000
     20 H5          2.4410    3.2395   -0.8235 H         1 <0>         0.0000
     21 H6          1.5493    1.6499    0.8120 H         1 <0>         0.0000
     22 H7         -0.1342    2.1360    0.4482 H         1 <0>         0.0000
     23 H8          1.2030    1.2788   -2.9911 H         1 <0>         0.0000
     24 H9         -1.1538    2.1625   -3.4524 H         1 <0>         0.0000
     25 H10        -1.5848    1.6925   -1.7852 H         1 <0>         0.0000
@<TRIPOS>BOND
     1    1    2 ar
     2    1    5 ar
     3    1   16 1
     4    2    6 ar
     5    2   17 1
     6    3    4 ar
     7    3    6 ar
     8    3   18 1
     9    4    5 ar
    10    4   13 1
    11    5   14 1
    12    6   15 1
    13    7    8 1
    14    7   11 1
    15    7   19 1
    16    7   20 1
    17    8   12 1
    18    8   21 1
    19    8   22 1
    20    9   10 1
    21    9   12 1
    22    9   11 1
    23    9   23 1
    24   10   13 1
    25   10   24 1
    26   10   25 1
