@<TRIPOS>MOLECULE
*****
   25    26     0     0     0
SMALL
NO_CHARGES

@<TRIPOS>ATOM
      1 C1          1.7106   -2.1540    0.4456 C.ar      1 <0>         0.0000
      2 C2          0.6018   -1.6815    1.1349 C.ar      1 <0>         0.0000
      3 C3          2.0066   -0.0326    2.2381 C.ar      1 <0>         0.0000
      4 C4          5.6876   -6.0371   -3.9591 C.2       1 <0>         0.0000
      5 C5          2.9935   -1.5925    0.6226 C.ar      1 <0>         0.0000
      6 C6          0.7597   -0.6180    2.0311 C.ar      1 <0>         0.0000
      7 C7          3.1060   -0.5257    1.5330 C.ar      1 <0>         0.0000
      8 C8          4.9957   -4.5710   -2.4955 C.2       1 <0>         0.0000
      9 C9          4.1428   -2.1138   -0.1194 C.2       1 <0>         0.0000
     10 N1          4.4052   -6.2109   -3.7965 N.2       1 <0>         0.0000
     11 N2          3.9487   -5.2774   -2.8606 N.2       1 <0>         0.0000
     12 N3          3.9897   -3.0921   -0.9446 N.2       1 <0>         0.0000
     13 N4          6.1287   -4.9989   -3.1518 N.pl3     1 <0>         0.0000
     14 N5          7.3987   -4.4316   -2.9688 N.3       1 <0>         0.0000
     15 N6          5.0832   -3.5317   -1.6004 N.pl3     1 <0>         0.0000
     16 Cl1        -0.6281   -0.0081    2.9100 Cl        1 <0>         0.0000
     17 Cl2         4.6599    0.2510    1.8323 Cl        1 <0>         0.0000
     18 H1          1.6100   -2.9777   -0.2539 H         1 <0>         0.0000
     19 H2         -0.3759   -2.1274    0.9842 H         1 <0>         0.0000
     20 H3          2.1247    0.7910    2.9332 H         1 <0>         0.0000
     21 H4          6.3403   -6.5988   -4.6149 H         1 <0>         0.0000
     22 H5          5.1187   -1.6490    0.0509 H         1 <0>         0.0000
     23 H6          7.7393   -4.0656   -3.8571 H         1 <0>         0.0000
     24 H7          8.0446   -5.1446   -2.6321 H         1 <0>         0.0000
     25 H8          6.0041   -3.1149   -1.4598 H         1 <0>         0.0000
@<TRIPOS>BOND
     1    1    2 ar
     2    1    5 ar
     3    1   18 1
     4    2    6 ar
     5    2   19 1
     6    3    6 ar
     7    3    7 ar
     8    3   20 1
     9    4   10 2
    10    4   13 1
    11    4   21 1
    12    5    7 ar
    13    5    9 1
    14    6   16 1
    15    7   17 1
    16    8   11 2
    17    8   13 1
    18    8   15 1
    19    9   12 2
    20    9   22 1
    21   10   11 1
    22   12   15 1
    23   13   14 1
    24   14   23 1
    25   14   24 1
    26   15   25 1
