@<TRIPOS>MOLECULE
*****
   28    30     0     0     0
SMALL
NO_CHARGES

@<TRIPOS>ATOM
      1 C1         -4.3615    1.1958    1.9001 C.ar      1 <0>         0.0000
      2 C2         -4.5832    2.4680    2.4799 C.ar      1 <0>         0.0000
      3 C3         -3.0949    0.8213    1.4989 C.ar      1 <0>         0.0000
      4 C4         -3.5295    3.3443    2.6386 C.ar      1 <0>         0.0000
      5 C5          0.3631    2.2396    1.4024 C.ar      1 <0>         0.0000
      6 C6          0.1400    3.5217    1.9632 C.ar      1 <0>         0.0000
      7 C7         -1.9793    1.6924    1.6493 C.ar      1 <0>         0.0000
      8 C8         -2.2198    2.9809    2.2282 C.ar      1 <0>         0.0000
      9 C9         -0.6538    1.3222    1.2421 C.ar      1 <0>         0.0000
     10 C10        -1.1239    3.8836    2.3752 C.ar      1 <0>         0.0000
     11 C11         1.0167   -0.5123    0.2504 C.3       1 <0>         0.0000
     12 C12         0.5984   -1.8910    0.8146 C.3       1 <0>         0.0000
     13 C13        -0.4059   -0.0399    0.6446 C.3       1 <0>         0.0000
     14 N1         -0.4763   -1.2083    1.5846 N.3       1 <0>         0.0000
     15 O1         -1.4056    5.1075    2.9352 O.3       1 <0>         0.0000
     16 H1         -5.1953    0.5103    1.7705 H         1 <0>         0.0000
     17 H2         -5.5834    2.7524    2.7959 H         1 <0>         0.0000
     18 H3         -2.9528   -0.1579    1.0540 H         1 <0>         0.0000
     19 H4         -3.6848    4.3243    3.0771 H         1 <0>         0.0000
     20 H5          1.3726    1.9896    1.0923 H         1 <0>         0.0000
     21 H6          0.9728    4.2152    2.0695 H         1 <0>         0.0000
     22 H7          1.7971   -0.0560    0.8617 H         1 <0>         0.0000
     23 H8          1.2879   -0.4488   -0.8051 H         1 <0>         0.0000
     24 H9          0.2304   -2.5613    0.0237 H         1 <0>         0.0000
     25 H10         1.3231   -2.4297    1.4337 H         1 <0>         0.0000
     26 H11        -1.0729   -0.1798   -0.2215 H         1 <0>         0.0000
     27 H12        -1.3716   -1.6943    1.6000 H         1 <0>         0.0000
     28 H13        -0.5840    5.6210    2.9891 H         1 <0>         0.0000
@<TRIPOS>BOND
     1    1    2 ar
     2    1    3 ar
     3    1   16 1
     4    2    4 ar
     5    2   17 1
     6    3    7 ar
     7    3   18 1
     8    4    8 ar
     9    4   19 1
    10    5    6 ar
    11    5    9 ar
    12    5   20 1
    13    6   10 ar
    14    6   21 1
    15    7    8 ar
    16    7    9 ar
    17    8   10 ar
    18    9   13 1
    19   10   15 1
    20   11   12 1
    21   11   13 1
    22   11   22 1
    23   11   23 1
    24   12   14 1
    25   12   24 1
    26   12   25 1
    27   13   14 1
    28   13   26 1
    29   14   27 1
    30   15   28 1
