@<TRIPOS>MOLECULE
*****
   37    40     0     0     0
SMALL
NO_CHARGES

@<TRIPOS>ATOM
      1 C1         -0.6859   -2.4090    1.4160 C.ar      1 <0>         0.0000
      2 C2          0.1664   -1.3936    1.8711 C.ar      1 <0>         0.0000
      3 C3         -0.2078   -3.4303    0.5855 C.ar      1 <0>         0.0000
      4 C4          3.4617   -8.1619   -3.3766 C.ar      1 <0>         0.0000
      5 C5          4.2292   -8.9841   -4.2133 C.ar      1 <0>         0.0000
      6 C6          1.5194   -1.3780    1.5043 C.ar      1 <0>         0.0000
      7 C7          1.3778   -9.1173   -4.2262 C.ar      1 <0>         0.0000
      8 C8          1.1401   -3.4164    0.2185 C.ar      1 <0>         0.0000
      9 C9          2.0542   -8.2138   -3.3672 C.ar      1 <0>         0.0000
     10 C10         3.5426   -9.8522   -5.0464 C.ar      1 <0>         0.0000
     11 C11         2.1503   -9.9104   -5.0501 C.ar      1 <0>         0.0000
     12 C12         1.9694   -2.3986    0.6824 C.ar      1 <0>         0.0000
     13 C13         1.9254   -4.3533   -0.6410 C.2       1 <0>         0.0000
     14 C14         1.2985   -7.3088   -2.4722 C.2       1 <0>         0.0000
     15 C15         2.9109  -11.2668   -6.6616 C.3       1 <0>         0.0000
     16 C16        -0.1441   -7.6023   -2.1169 C.3       1 <0>         0.0000
     17 N1          3.1898   -4.1087   -0.8234 N.2       1 <0>         0.0000
     18 N2          1.9432   -6.2823   -2.0191 N.2       1 <0>         0.0000
     19 N3          1.2848   -5.4238   -1.1867 N.pl3     1 <0>         0.0000
     20 O1          3.9755   -1.6442   -0.9370 O.2       1 <0>         0.0000
     21 O2          4.5480   -3.0312    1.0989 O.2       1 <0>         0.0000
     22 O3          4.0492  -10.7735   -5.9330 O.3       1 <0>         0.0000
     23 O4          1.7285  -10.8724   -5.9456 O.3       1 <0>         0.0000
     24 S1          3.6241   -2.6973    0.0152 S.o2      1 <0>         0.0000
     25 H1         -1.7312   -2.4043    1.7112 H         1 <0>         0.0000
     26 H2         -0.2256   -0.6112    2.5148 H         1 <0>         0.0000
     27 H3         -0.8907   -4.2061    0.2474 H         1 <0>         0.0000
     28 H4          3.9555   -7.4587   -2.7156 H         1 <0>         0.0000
     29 H5          5.3137   -8.9450   -4.2070 H         1 <0>         0.0000
     30 H6          2.1900   -0.5972    1.8501 H         1 <0>         0.0000
     31 H7          0.2966   -9.1824   -4.2727 H         1 <0>         0.0000
     32 H8          2.8993  -10.8143   -7.6621 H         1 <0>         0.0000
     33 H9          2.9582  -12.3565   -6.7107 H         1 <0>         0.0000
     34 H10        -0.2958   -7.5356   -1.0329 H         1 <0>         0.0000
     35 H11        -0.8299   -6.8948   -2.6005 H         1 <0>         0.0000
     36 H12        -0.4419   -8.6075   -2.4099 H         1 <0>         0.0000
     37 H13         0.2908   -5.5245   -1.0093 H         1 <0>         0.0000
@<TRIPOS>BOND
     1    1    2 ar
     2    1    3 ar
     3    1   25 1
     4    2    6 ar
     5    2   26 1
     6    3    8 ar
     7    3   27 1
     8    4    5 ar
     9    4    9 ar
    10    4   28 1
    11    5   10 ar
    12    5   29 1
    13    6   12 ar
    14    6   30 1
    15    7    9 ar
    16    7   11 ar
    17    7   31 1
    18    8   12 ar
    19    8   13 1
    20    9   14 1
    21   10   11 ar
    22   10   22 1
    23   11   23 1
    24   12   24 1
    25   13   17 2
    26   13   19 1
    27   14   16 1
    28   14   18 2
    29   15   22 1
    30   15   23 1
    31   15   32 1
    32   15   33 1
    33   16   34 1
    34   16   35 1
    35   16   36 1
    36   17   24 1
    37   18   19 1
    38   19   37 1
    39   20   24 2
    40   21   24 2
