@<TRIPOS>MOLECULE
*****
   25    26     0     0     0
SMALL
NO_CHARGES

@<TRIPOS>ATOM
      1 C1         -3.0549   -1.7890    0.1388 C.ar      1 <0>         0.0000
      2 C2         -2.7247   -2.5382   -0.9979 C.ar      1 <0>         0.0000
      3 C3         -1.9332    0.1497   -0.8480 C.ar      1 <0>         0.0000
      4 C4         -1.6174   -0.5991   -1.9881 C.ar      1 <0>         0.0000
      5 C5         -2.6472   -0.4630    0.1797 C.ar      1 <0>         0.0000
      6 C6         -2.0222   -1.9458   -2.0348 C.ar      1 <0>         0.0000
      7 C7          1.7225    0.7923   -1.0344 C.3       1 <0>         0.0000
      8 C8          2.0561    0.1054   -2.3612 C.3       1 <0>         0.0000
      9 C9          0.5717    1.7895   -2.7906 C.3       1 <0>         0.0000
     10 C10        -0.7683    1.2549   -3.3008 C.3       1 <0>         0.0000
     11 O1          0.6507    1.6884   -1.3719 O.3       1 <0>         0.0000
     12 O2          1.6755    1.0923   -3.3320 O.3       1 <0>         0.0000
     13 O3         -0.9283   -0.1482   -3.0744 O.3       1 <0>         0.0000
     14 F1         -2.9403    0.2813    1.2793 F         1 <0>         0.0000
     15 F2         -1.7107   -2.6767   -3.1326 F         1 <0>         0.0000
     16 H1         -3.6057   -2.2205    0.9675 H         1 <0>         0.0000
     17 H2         -3.0155   -3.5800   -1.0897 H         1 <0>         0.0000
     18 H3         -1.5922    1.1696   -0.7272 H         1 <0>         0.0000
     19 H4          1.3687    0.0980   -0.2675 H         1 <0>         0.0000
     20 H5          2.5678    1.3724   -0.6467 H         1 <0>         0.0000
     21 H6          3.1212   -0.0968   -2.4903 H         1 <0>         0.0000
     22 H7          1.4795   -0.8136   -2.5054 H         1 <0>         0.0000
     23 H8          0.6628    2.8424   -3.0912 H         1 <0>         0.0000
     24 H9         -0.7941    1.3787   -4.3870 H         1 <0>         0.0000
     25 H10        -1.5933    1.8266   -2.8622 H         1 <0>         0.0000
@<TRIPOS>BOND
     1    1    2 ar
     2    1    5 ar
     3    1   16 1
     4    2    6 ar
     5    2   17 1
     6    3    4 ar
     7    3    5 ar
     8    3   18 1
     9    4    6 ar
    10    4   13 1
    11    5   14 1
    12    6   15 1
    13    7    8 1
    14    7   11 1
    15    7   19 1
    16    7   20 1
    17    8   12 1
    18    8   21 1
    19    8   22 1
    20    9   10 1
    21    9   12 1
    22    9   11 1
    23    9   23 1
    24   10   13 1
    25   10   24 1
    26   10   25 1
