@<TRIPOS>MOLECULE
*****
   32    34     0     0     0
SMALL
NO_CHARGES

@<TRIPOS>ATOM
      1 C1          8.3250   -4.1821    3.8839 C.1       1 <0>         0.0000
      2 C2          9.4799    3.9265    3.4802 C.ar      1 <0>         0.0000
      3 C3          8.2837    4.5662    3.1430 C.ar      1 <0>         0.0000
      4 C4          4.5347   -6.4375    4.9018 C.2       1 <0>         0.0000
      5 C5          9.5162    2.5358    3.5414 C.ar      1 <0>         0.0000
      6 C6          7.1449    3.8069    2.8664 C.ar      1 <0>         0.0000
      7 C7          5.6513   -5.6264    4.5852 C.2       1 <0>         0.0000
      8 C8          3.3710   -5.7126    5.0569 C.2       1 <0>         0.0000
      9 C9          8.3684    1.7683    3.2698 C.ar      1 <0>         0.0000
     10 C10         7.1548    2.4051    2.9206 C.ar      1 <0>         0.0000
     11 C11         5.3331   -4.2733    4.4990 C.2       1 <0>         0.0000
     12 C12         8.4973    0.3025    3.3558 C.2       1 <0>         0.0000
     13 C13         8.0612   -1.7338    3.6626 C.2       1 <0>         0.0000
     14 C14         6.1289   -3.1183    4.2093 C.2       1 <0>         0.0000
     15 C15         7.4675   -3.0385    3.9290 C.2       1 <0>         0.0000
     16 C16         5.8863    1.6522    2.5886 C.3       1 <0>         0.0000
     17 N1          8.9980   -5.1336    3.8550 N.1       1 <0>         0.0000
     18 N2          7.4667   -0.5683    3.6594 N.2       1 <0>         0.0000
     19 N3          9.6625   -0.2964    3.1734 N.2       1 <0>         0.0000
     20 O1          9.3756   -1.6587    3.3846 O.3       1 <0>         0.0000
     21 S1          3.6229   -4.0295    4.8186 S.3       1 <0>         0.0000
     22 H1         10.3737    4.5045    3.6978 H         1 <0>         0.0000
     23 H2          8.2363    5.6510    3.0932 H         1 <0>         0.0000
     24 H3          4.5815   -7.5155    5.0123 H         1 <0>         0.0000
     25 H4         10.4354    2.0239    3.8085 H         1 <0>         0.0000
     26 H5          6.2210    4.3121    2.5950 H         1 <0>         0.0000
     27 H6          6.6492   -6.0144    4.4262 H         1 <0>         0.0000
     28 H7          2.3836   -6.0856    5.2986 H         1 <0>         0.0000
     29 H8          5.6133   -2.1601    4.2073 H         1 <0>         0.0000
     30 H9          6.0656    0.8524    1.8650 H         1 <0>         0.0000
     31 H10         5.4613    1.1783    3.4775 H         1 <0>         0.0000
     32 H11         5.1424    2.3351    2.1698 H         1 <0>         0.0000
@<TRIPOS>BOND
     1    1   15 1
     2    1   17 3
     3    2    3 ar
     4    2    5 ar
     5    2   22 1
     6    3    6 ar
     7    3   23 1
     8    4    7 1
     9    4    8 2
    10    4   24 1
    11    5    9 ar
    12    5   25 1
    13    6   10 ar
    14    6   26 1
    15    7   11 2
    16    7   27 1
    17    8   21 1
    18    8   28 1
    19    9   10 ar
    20    9   12 1
    21   10   16 1
    22   11   14 1
    23   11   21 1
    24   12   18 1
    25   12   19 2
    26   13   15 1
    27   13   18 2
    28   13   20 1
    29   14   15 2
    30   14   29 1
    31   16   30 1
    32   16   31 1
    33   16   32 1
    34   19   20 1
