@<TRIPOS>MOLECULE
*****
   37    40     0     0     0
SMALL
NO_CHARGES

@<TRIPOS>ATOM
      1 C1          6.1130   -7.3278   -0.0776 C.ar      1 <0>         0.0000
      2 C2          6.4711   -7.1835    1.2686 C.ar      1 <0>         0.0000
      3 C3          4.8822   -6.8622   -0.5567 C.ar      1 <0>         0.0000
      4 C4          2.9776   -7.4109   -4.6483 C.ar      1 <0>         0.0000
      5 C5          3.4200   -7.9836   -5.8484 C.ar      1 <0>         0.0000
      6 C6          5.6075   -6.5405    2.1654 C.ar      1 <0>         0.0000
      7 C7          2.9428   -9.5881   -3.5350 C.ar      1 <0>         0.0000
      8 C8          3.9976   -6.2538    0.3426 C.ar      1 <0>         0.0000
      9 C9          2.7314   -8.1855   -3.4985 C.ar      1 <0>         0.0000
     10 C10         3.6144   -9.3559   -5.8569 C.ar      1 <0>         0.0000
     11 C11         3.3829  -10.1337   -4.7229 C.ar      1 <0>         0.0000
     12 C12         4.3941   -6.0906    1.6719 C.ar      1 <0>         0.0000
     13 C13         2.6571   -5.6098    0.1496 C.2       1 <0>         0.0000
     14 C14         2.2743   -7.5366   -2.2467 C.2       1 <0>         0.0000
     15 C15         3.9466  -11.5033   -6.4062 C.3       1 <0>         0.0000
     16 C16         1.8057   -8.4054   -1.1061 C.3       1 <0>         0.0000
     17 N1          2.1379   -4.9765    1.1728 N.2       1 <0>         0.0000
     18 N2          2.3319   -6.2396   -2.2208 N.2       1 <0>         0.0000
     19 N3          1.9530   -5.6322   -1.0122 N.pl3     1 <0>         0.0000
     20 O1          2.4587   -5.9502    3.5367 O.2       1 <0>         0.0000
     21 O2          3.6803   -3.8278    2.9128 O.2       1 <0>         0.0000
     22 O3          4.0663  -10.1479   -6.8814 O.3       1 <0>         0.0000
     23 O4          3.6915  -11.4497   -4.9928 O.3       1 <0>         0.0000
     24 S1          3.1309   -5.1287    2.5282 S.o2      1 <0>         0.0000
     25 H1          6.8042   -7.8016   -0.7689 H         1 <0>         0.0000
     26 H2          7.4315   -7.5543    1.6158 H         1 <0>         0.0000
     27 H3          4.6466   -6.9592   -1.6080 H         1 <0>         0.0000
     28 H4          2.8137   -6.3412   -4.5923 H         1 <0>         0.0000
     29 H5          3.6041   -7.3821   -6.7327 H         1 <0>         0.0000
     30 H6          5.8810   -6.3867    3.2049 H         1 <0>         0.0000
     31 H7          2.7860  -10.2217   -2.6701 H         1 <0>         0.0000
     32 H8          3.1023  -11.9881   -6.9124 H         1 <0>         0.0000
     33 H9          4.8849  -12.0321   -6.5863 H         1 <0>         0.0000
     34 H10         2.6554   -8.8726   -0.5968 H         1 <0>         0.0000
     35 H11         1.2511   -7.8260   -0.3689 H         1 <0>         0.0000
     36 H12         1.1622   -9.2044   -1.4821 H         1 <0>         0.0000
     37 H13         1.2720   -4.8872   -1.1188 H         1 <0>         0.0000
@<TRIPOS>BOND
     1    1    2 ar
     2    1    3 ar
     3    1   25 1
     4    2    6 ar
     5    2   26 1
     6    3    8 ar
     7    3   27 1
     8    4    5 ar
     9    4    9 ar
    10    4   28 1
    11    5   10 ar
    12    5   29 1
    13    6   12 ar
    14    6   30 1
    15    7    9 ar
    16    7   11 ar
    17    7   31 1
    18    8   12 ar
    19    8   13 1
    20    9   14 1
    21   10   11 ar
    22   10   22 1
    23   11   23 1
    24   12   24 1
    25   13   17 2
    26   13   19 1
    27   14   16 1
    28   14   18 2
    29   15   22 1
    30   15   23 1
    31   15   32 1
    32   15   33 1
    33   16   34 1
    34   16   35 1
    35   16   36 1
    36   17   24 1
    37   18   19 1
    38   19   37 1
    39   20   24 2
    40   21   24 2
