@<TRIPOS>MOLECULE
*****
   27    29     0     0     0
SMALL
NO_CHARGES

@<TRIPOS>ATOM
      1 C1          7.7686   -6.1365   -2.6333 C.ar      1 <0>         0.0000
      2 C2          8.8262   -6.2157   -1.7224 C.ar      1 <0>         0.0000
      3 C3          6.7507   -5.2072   -2.4286 C.ar      1 <0>         0.0000
      4 C4          1.9418   -1.0563   -0.1784 C.ar      1 <0>         0.0000
      5 C5          0.9029   -0.4369    0.5048 C.ar      1 <0>         0.0000
      6 C6          8.8685   -5.3576   -0.6214 C.ar      1 <0>         0.0000
      7 C7          1.9778   -1.0192    2.6053 C.ar      1 <0>         0.0000
      8 C8          3.0153   -1.6733    0.4957 C.ar      1 <0>         0.0000
      9 C9          6.7655   -4.3425   -1.3193 C.ar      1 <0>         0.0000
     10 C10         0.9308   -0.4270    1.9018 C.ar      1 <0>         0.0000
     11 C11         3.0175   -1.6395    1.9068 C.ar      1 <0>         0.0000
     12 C12         7.8469   -4.4254   -0.4251 C.ar      1 <0>         0.0000
     13 C13         5.6449   -3.3986   -1.1589 C.2       1 <0>         0.0000
     14 C14         4.0601   -2.3091   -0.3071 C.2       1 <0>         0.0000
     15 N1          4.9998   -3.1482    0.0350 N.2       1 <0>         0.0000
     16 N2          5.1375   -2.7572   -2.1927 N.2       1 <0>         0.0000
     17 O1          4.0768   -2.0258   -1.6362 O.3       1 <0>         0.0000
     18 Cl1        -0.3648    0.3428    2.7883 Cl        1 <0>         0.0000
     19 Cl2         4.3011   -2.3282    2.8625 Cl        1 <0>         0.0000
     20 Br1         8.0273   -3.2277    1.0587 Br        1 <0>         0.0000
     21 H1          7.7336   -6.7981   -3.4940 H         1 <0>         0.0000
     22 H2          9.6236   -6.9397   -1.8664 H         1 <0>         0.0000
     23 H3          5.9179   -5.1411   -3.1217 H         1 <0>         0.0000
     24 H4          1.9307   -1.0737   -1.2627 H         1 <0>         0.0000
     25 H5          0.0837    0.0284   -0.0327 H         1 <0>         0.0000
     26 H6          9.6955   -5.4015    0.0795 H         1 <0>         0.0000
     27 H7          1.9943   -0.9989    3.6891 H         1 <0>         0.0000
@<TRIPOS>BOND
     1    1    2 ar
     2    1    3 ar
     3    1   21 1
     4    2    6 ar
     5    2   22 1
     6    3    9 ar
     7    3   23 1
     8    4    5 ar
     9    4    8 ar
    10    4   24 1
    11    5   10 ar
    12    5   25 1
    13    6   12 ar
    14    6   26 1
    15    7   10 ar
    16    7   11 ar
    17    7   27 1
    18    8   11 ar
    19    8   14 1
    20    9   12 ar
    21    9   13 1
    22   10   18 1
    23   11   19 1
    24   12   20 1
    25   13   15 1
    26   13   16 2
    27   14   15 2
    28   14   17 1
    29   16   17 1
