@<TRIPOS>MOLECULE
*****
   30    31     0     0     0
SMALL
NO_CHARGES

@<TRIPOS>ATOM
      1 C1         -0.4195   -3.2855    0.7659 C.ar      1 <0>         0.0000
      2 C2         -1.1641   -2.4803    1.6318 C.ar      1 <0>         0.0000
      3 C3          0.9735   -3.3143    0.8998 C.ar      1 <0>         0.0000
      4 C4         -0.5500   -1.7082    2.6224 C.ar      1 <0>         0.0000
      5 C5          1.6010   -2.5512    1.8816 C.ar      1 <0>         0.0000
      6 C6          1.7819    1.3261    6.5128 C.ar      1 <0>         0.0000
      7 C7         -0.4825    0.9810    5.8317 C.ar      1 <0>         0.0000
      8 C8          0.4162    1.6185    6.6978 C.ar      1 <0>         0.0000
      9 C9          2.2037    0.4522    5.5233 C.ar      1 <0>         0.0000
     10 C10         0.8498   -1.7387    2.7553 C.ar      1 <0>         0.0000
     11 C11         1.1913   -0.1326    4.7062 C.ar      1 <0>         0.0000
     12 C12        -0.0009    2.5439    7.7492 C.2       1 <0>         0.0000
     13 C13         3.6645    0.1340    5.3203 C.3       1 <0>         0.0000
     14 N1         -0.1142    0.1347    4.8683 N.ar      1 <0>         0.0000
     15 N2         -1.2364    2.8324    7.9531 N.2       1 <0>         0.0000
     16 N3          1.5817   -1.0084    3.7102 N.pl3     1 <0>         0.0000
     17 O1         -1.3619    3.7451    9.0210 O.3       1 <0>         0.0000
     18 H1         -0.9122   -3.8795    0.0013 H         1 <0>         0.0000
     19 H2         -2.2471   -2.4466    1.5411 H         1 <0>         0.0000
     20 H3          1.5755   -3.9325    0.2388 H         1 <0>         0.0000
     21 H4         -1.1329   -1.0886    3.2876 H         1 <0>         0.0000
     22 H5          2.6858   -2.5827    1.9756 H         1 <0>         0.0000
     23 H6          2.5237    1.7937    7.1581 H         1 <0>         0.0000
     24 H7         -1.5498    1.1678    5.9264 H         1 <0>         0.0000
     25 H8          0.7756    2.9971    8.3739 H         1 <0>         0.0000
     26 H9          3.8717   -0.9360    5.4530 H         1 <0>         0.0000
     27 H10         4.0094    0.4190    4.3177 H         1 <0>         0.0000
     28 H11         4.2826    0.6749    6.0408 H         1 <0>         0.0000
     29 H12         2.5785   -1.1573    3.6497 H         1 <0>         0.0000
     30 H13        -2.3221    3.8797    9.0738 H         1 <0>         0.0000
@<TRIPOS>BOND
     1    1    3 ar
     2    1    2 ar
     3    1   18 1
     4    2    4 ar
     5    2   19 1
     6    3    5 ar
     7    3   20 1
     8    4   10 ar
     9    4   21 1
    10    5   10 ar
    11    5   22 1
    12    6    8 ar
    13    6    9 ar
    14    6   23 1
    15    7    8 ar
    16    7   14 ar
    17    7   24 1
    18    8   12 1
    19    9   11 ar
    20    9   13 1
    21   10   16 1
    22   11   14 ar
    23   11   16 1
    24   12   15 2
    25   12   25 1
    26   13   26 1
    27   13   27 1
    28   13   28 1
    29   15   17 1
    30   16   29 1
    31   17   30 1
