@<TRIPOS>MOLECULE
*****
   44    46     0     0     0
SMALL
NO_CHARGES

@<TRIPOS>ATOM
      1 C1         -0.1339   -7.1702    3.6117 C.ar      1 <0>         0.0000
      2 C2         -0.4782   -7.0190    2.2658 C.ar      1 <0>         0.0000
      3 C3         -1.4355   -5.2347    4.1624 C.ar      1 <0>         0.0000
      4 C4         -3.4776   -1.9872    2.0143 C.2       1 <0>         0.0000
      5 C5         -0.6014   -6.2765    4.5846 C.ar      1 <0>         0.0000
      6 C6         -1.2996   -5.9714    1.8308 C.ar      1 <0>         0.0000
      7 C7         -1.7704   -5.0895    2.8162 C.ar      1 <0>         0.0000
      8 C8         -4.4053   -3.0350    1.7066 C.2       1 <0>         0.0000
      9 C9         -2.3493   -2.6702    2.4531 C.2       1 <0>         0.0000
     10 C10        -3.5808   -0.5382    1.8047 C.2       1 <0>         0.0000
     11 C11        -5.4941   -0.7664    4.0270 C.3       1 <0>         0.0000
     12 C12        -6.6029    1.0150    2.8362 C.3       1 <0>         0.0000
     13 C13        -6.8450   -1.1450    4.6296 C.3       1 <0>         0.0000
     14 C14        -7.9221    0.5654    3.4511 C.3       1 <0>         0.0000
     15 C15        -0.2060   -6.4147    6.0363 C.3       1 <0>         0.0000
     16 C16        -1.6631   -5.7977    0.3774 C.3       1 <0>         0.0000
     17 C17        -5.7713   -2.9141    1.1107 C.3       1 <0>         0.0000
     18 N1         -3.8827   -4.2354    1.9630 N.2       1 <0>         0.0000
     19 N2         -4.5452    0.2830    2.0444 N.2       1 <0>         0.0000
     20 N3         -2.6196   -4.0040    2.4345 N.pl3     1 <0>         0.0000
     21 N4         -5.6977   -0.1370    2.7078 N.pl3     1 <0>         0.0000
     22 O1         -7.7232   -0.0295    4.7328 O.3       1 <0>         0.0000
     23 Cl1        -0.8261   -2.0372    2.9524 Cl        1 <0>         0.0000
     24 H1          0.5091   -7.9960    3.9083 H         1 <0>         0.0000
     25 H2         -0.0955   -7.7265    1.5341 H         1 <0>         0.0000
     26 H3         -1.8361   -4.5257    4.8824 H         1 <0>         0.0000
     27 H4         -2.7198   -0.0657    1.3307 H         1 <0>         0.0000
     28 H5         -4.9634   -0.0688    4.6953 H         1 <0>         0.0000
     29 H6         -4.8908   -1.6686    3.9278 H         1 <0>         0.0000
     30 H7         -6.7727    1.4273    1.8386 H         1 <0>         0.0000
     31 H8         -6.1473    1.7995    3.4607 H         1 <0>         0.0000
     32 H9         -7.3124   -1.9344    4.0207 H         1 <0>         0.0000
     33 H10        -6.7051   -1.5268    5.6444 H         1 <0>         0.0000
     34 H11        -8.5825    1.4224    3.6051 H         1 <0>         0.0000
     35 H12        -8.4231   -0.1511    2.7813 H         1 <0>         0.0000
     36 H13         0.6845   -5.8143    6.2582 H         1 <0>         0.0000
     37 H14        -1.0045   -6.0747    6.7025 H         1 <0>         0.0000
     38 H15         0.0263   -7.4534    6.2886 H         1 <0>         0.0000
     39 H16        -2.7204   -6.0224    0.2094 H         1 <0>         0.0000
     40 H17        -1.5025   -4.7653    0.0501 H         1 <0>         0.0000
     41 H18        -1.0606   -6.4562   -0.2534 H         1 <0>         0.0000
     42 H19        -5.7230   -2.4056    0.1416 H         1 <0>         0.0000
     43 H20        -6.1998   -3.9087    0.9677 H         1 <0>         0.0000
     44 H21        -6.4262   -2.3099    1.7440 H         1 <0>         0.0000
@<TRIPOS>BOND
     1    1    2 ar
     2    1    5 ar
     3    1   24 1
     4    2    6 ar
     5    2   25 1
     6    3    5 ar
     7    3    7 ar
     8    3   26 1
     9    4    8 1
    10    4    9 2
    11    4   10 1
    12    5   15 1
    13    6    7 ar
    14    6   16 1
    15    7   20 1
    16    8   17 1
    17    8   18 2
    18    9   20 1
    19    9   23 1
    20   10   19 2
    21   10   27 1
    22   11   13 1
    23   11   21 1
    24   11   28 1
    25   11   29 1
    26   12   14 1
    27   12   21 1
    28   12   30 1
    29   12   31 1
    30   13   22 1
    31   13   32 1
    32   13   33 1
    33   14   22 1
    34   14   34 1
    35   14   35 1
    36   15   36 1
    37   15   37 1
    38   15   38 1
    39   16   39 1
    40   16   40 1
    41   16   41 1
    42   17   42 1
    43   17   43 1
    44   17   44 1
    45   18   20 1
    46   19   21 1
