@<TRIPOS>MOLECULE
*****
   17    17     0     0     0
SMALL
NO_CHARGES

@<TRIPOS>ATOM
      1 C1          1.1607    2.5296    0.8553 C.2       1 <0>         0.0000
      2 C2          0.1787    1.5112    0.9236 C.2       1 <0>         0.0000
      3 C3          2.4977    2.4916    0.2249 C.2       1 <0>         0.0000
      4 C4         -1.4091    4.0947    2.6676 C.3       1 <0>         0.0000
      5 C5          4.4652    3.6929   -0.2418 C.3       1 <0>         0.0000
      6 N1          0.6655    3.6118    1.4856 N.2       1 <0>         0.0000
      7 N2         -0.8858    1.9733    1.5816 N.2       1 <0>         0.0000
      8 N3         -0.5365    3.2304    1.8866 N.pl3     1 <0>         0.0000
      9 O1          2.9472    1.5111   -0.3399 O.2       1 <0>         0.0000
     10 O2          3.1508    3.6641    0.3524 O.3       1 <0>         0.0000
     11 Br1         0.2049   -0.2400    0.2488 Br        1 <0>         0.0000
     12 H1         -2.4212    4.0329    2.2657 H         1 <0>         0.0000
     13 H2         -1.4095    3.7764    3.7133 H         1 <0>         0.0000
     14 H3         -1.0256    5.1105    2.5857 H         1 <0>         0.0000
     15 H4          4.8454    4.6959   -0.0503 H         1 <0>         0.0000
     16 H5          4.4021    3.5015   -1.3156 H         1 <0>         0.0000
     17 H6          5.1086    2.9405    0.2202 H         1 <0>         0.0000
@<TRIPOS>BOND
     1    1    2 1
     2    1    3 1
     3    1    6 2
     4    2    7 2
     5    2   11 1
     6    3    9 2
     7    3   10 1
     8    4    8 1
     9    4   12 1
    10    4   13 1
    11    4   14 1
    12    5   10 1
    13    5   15 1
    14    5   16 1
    15    5   17 1
    16    6    8 1
    17    7    8 1
