@<TRIPOS>MOLECULE
*****
   34    34     0     0     0
SMALL
NO_CHARGES

@<TRIPOS>ATOM
      1 C1         -0.6557    0.3584   -0.4179 C.1       1 <0>         0.0000
      2 C2         -1.5203    0.8994   -1.0828 C.1       1 <0>         0.0000
      3 C3          1.4528   -0.9162   -0.2493 C.ar      1 <0>         0.0000
      4 C4          0.2863   -0.2995    1.7680 C.ar      1 <0>         0.0000
      5 C5          0.3613   -0.2767    0.3643 C.ar      1 <0>         0.0000
      6 C6          2.4506   -1.5404    0.5014 C.ar      1 <0>         0.0000
      7 C7          1.2703   -0.9165    2.5427 C.ar      1 <0>         0.0000
      8 C8          2.3892   -1.5221    1.9176 C.ar      1 <0>         0.0000
      9 C9          3.1149   -3.7209    3.0090 C.2       1 <0>         0.0000
     10 C10        -2.5640    1.5448   -1.8845 C.3       1 <0>         0.0000
     11 C11         4.7889   -1.2783   -0.4621 C.3       1 <0>         0.0000
     12 C12         1.7975    0.3030    4.7106 C.3       1 <0>         0.0000
     13 C13         3.4588   -2.1895    2.7399 C.3       1 <0>         0.0000
     14 C14         3.5930   -2.2203   -0.2297 C.3       1 <0>         0.0000
     15 C15         1.1171   -0.9115    4.0520 C.3       1 <0>         0.0000
     16 O1          2.4443   -3.9381    4.0520 O.co2     1 <0>         0.0000
     17 O2          3.5507   -4.5224    2.1415 O.co2     1 <0>         0.0000
     18 H1          1.5104   -0.9324   -1.3359 H         1 <0>         0.0000
     19 H2         -0.5672    0.1660    2.2571 H         1 <0>         0.0000
     20 H3         -2.8814    2.4938   -1.4356 H         1 <0>         0.0000
     21 H4         -2.2060    1.7610   -2.8981 H         1 <0>         0.0000
     22 H5         -3.4525    0.9076   -1.9759 H         1 <0>         0.0000
     23 H6          4.4957   -0.4096   -1.0644 H         1 <0>         0.0000
     24 H7          5.6032   -1.7977   -0.9829 H         1 <0>         0.0000
     25 H8          5.1842   -0.9018    0.4873 H         1 <0>         0.0000
     26 H9          2.8707    0.3195    4.4926 H         1 <0>         0.0000
     27 H10         1.6764    0.2782    5.8009 H         1 <0>         0.0000
     28 H11         1.3715    1.2432    4.3395 H         1 <0>         0.0000
     29 H12         4.4208   -2.1428    2.2275 H         1 <0>         0.0000
     30 H13         3.5667   -1.6915    3.7045 H         1 <0>         0.0000
     31 H14         3.9009   -3.1108    0.3263 H         1 <0>         0.0000
     32 H15         3.2269   -2.5677   -1.2039 H         1 <0>         0.0000
     33 H16         0.0473   -0.8872    4.2947 H         1 <0>         0.0000
     34 H17         1.5109   -1.8472    4.4599 H         1 <0>         0.0000
@<TRIPOS>BOND
     1    1    2 3
     2    1    5 1
     3    2   10 1
     4    3    5 ar
     5    3    6 ar
     6    3   18 1
     7    4    5 ar
     8    4    7 ar
     9    4   19 1
    10    6    8 ar
    11    6   14 1
    12    7    8 ar
    13    7   15 1
    14    8   13 1
    15    9   13 1
    16    9   16 1
    17    9   17 2
    18   10   20 1
    19   10   21 1
    20   10   22 1
    21   11   14 1
    22   11   23 1
    23   11   24 1
    24   11   25 1
    25   12   15 1
    26   12   26 1
    27   12   27 1
    28   12   28 1
    29   13   29 1
    30   13   30 1
    31   14   31 1
    32   14   32 1
    33   15   33 1
    34   15   34 1
