@<TRIPOS>MOLECULE
*****
   35    35     0     0     0
SMALL
NO_CHARGES

@<TRIPOS>ATOM
      1 C1         -0.6500   -0.0100   -0.1631 C.1       1 <0>         0.0000
      2 C2         -1.5110    0.4716   -0.8728 C.1       1 <0>         0.0000
      3 C3          1.4635   -1.2480    0.1158 C.ar      1 <0>         0.0000
      4 C4          0.2769   -0.4826    2.0719 C.ar      1 <0>         0.0000
      5 C5          0.3653   -0.5741    0.6736 C.ar      1 <0>         0.0000
      6 C6          2.4619   -1.8012    0.9205 C.ar      1 <0>         0.0000
      7 C7          1.2612   -1.0265    2.8997 C.ar      1 <0>         0.0000
      8 C8          2.3746   -1.6702    2.3217 C.ar      1 <0>         0.0000
      9 C9          3.1819   -3.7035    3.6319 C.2       1 <0>         0.0000
     10 C10        -2.5516    1.0477   -1.7276 C.3       1 <0>         0.0000
     11 C11         4.8121   -1.5644   -0.0284 C.3       1 <0>         0.0000
     12 C12         1.7918    0.3833    4.9512 C.3       1 <0>         0.0000
     13 C13         3.4523   -2.2580    3.2043 C.3       1 <0>         0.0000
     14 C14         3.6231   -2.5041    0.2443 C.3       1 <0>         0.0000
     15 C15         1.1027   -0.8786    4.4003 C.3       1 <0>         0.0000
     16 O1          2.1848   -4.3344    3.3865 O.2       1 <0>         0.0000
     17 O2          4.1909   -4.2735    4.3635 O.3       1 <0>         0.0000
     18 H1          1.5279   -1.3453   -0.9649 H         1 <0>         0.0000
     19 H2         -0.5824    0.0154    2.5134 H         1 <0>         0.0000
     20 H3         -2.8707    2.0259   -1.3519 H         1 <0>         0.0000
     21 H4         -2.1879    1.1810   -2.7519 H         1 <0>         0.0000
     22 H5         -3.4329    0.3978   -1.7645 H         1 <0>         0.0000
     23 H6          4.5060   -0.7356   -0.6746 H         1 <0>         0.0000
     24 H7          5.6308   -2.0994   -0.5216 H         1 <0>         0.0000
     25 H8          5.2026   -1.1255    0.8965 H         1 <0>         0.0000
     26 H9          2.8679    0.3807    4.7450 H         1 <0>         0.0000
     27 H10         1.6552    0.4639    6.0351 H         1 <0>         0.0000
     28 H11         1.3762    1.2827    4.4858 H         1 <0>         0.0000
     29 H12         3.5758   -1.6678    4.1179 H         1 <0>         0.0000
     30 H13         4.4255   -2.2303    2.7049 H         1 <0>         0.0000
     31 H14         3.9531   -3.3652    0.8340 H         1 <0>         0.0000
     32 H15         3.2757   -2.9162   -0.7084 H         1 <0>         0.0000
     33 H16         0.0348   -0.8268    4.6355 H         1 <0>         0.0000
     34 H17         1.4746   -1.7675    4.9187 H         1 <0>         0.0000
     35 H18         4.9203   -3.6397    4.4733 H         1 <0>         0.0000
@<TRIPOS>BOND
     1    1    2 3
     2    1    5 1
     3    2   10 1
     4    3    5 ar
     5    3    6 ar
     6    3   18 1
     7    4    5 ar
     8    4    7 ar
     9    4   19 1
    10    6    8 ar
    11    6   14 1
    12    7    8 ar
    13    7   15 1
    14    8   13 1
    15    9   13 1
    16    9   16 2
    17    9   17 1
    18   10   20 1
    19   10   21 1
    20   10   22 1
    21   11   14 1
    22   11   23 1
    23   11   24 1
    24   11   25 1
    25   12   15 1
    26   12   26 1
    27   12   27 1
    28   12   28 1
    29   13   29 1
    30   13   30 1
    31   14   31 1
    32   14   32 1
    33   15   33 1
    34   15   34 1
    35   17   35 1
