@<TRIPOS>MOLECULE
*****
   30    31     0     0     0
SMALL
NO_CHARGES

@<TRIPOS>ATOM
      1 C1         -1.6834    1.3977    1.1957 C.ar      1 <0>         0.0000
      2 C2         -1.1420    2.3650    0.3416 C.ar      1 <0>         0.0000
      3 C3         -1.2514    0.0752    1.0869 C.ar      1 <0>         0.0000
      4 C4         -0.1977    1.9978   -0.6160 C.ar      1 <0>         0.0000
      5 C5         -0.2728   -0.3075    0.1603 C.ar      1 <0>         0.0000
      6 C6          0.2430    0.6676   -0.7118 C.ar      1 <0>         0.0000
      7 C7          0.3321   -2.1940   -1.3709 C.3       1 <0>         0.0000
      8 C8          1.4663   -1.4991   -2.1212 C.3       1 <0>         0.0000
      9 C9          0.2021   -1.7423    0.0953 C.3       1 <0>         0.0000
     10 C10         1.5161   -1.9832    0.8726 C.3       1 <0>         0.0000
     11 C11         1.4489   -1.5368    2.3341 C.3       1 <0>         0.0000
     12 C12         2.3815   -2.3681    3.2214 C.3       1 <0>         0.0000
     13 O1          1.8180   -0.1711    2.4017 O.3       1 <0>         0.0000
     14 F1          1.9641   -3.6604    3.2840 F         1 <0>         0.0000
     15 F2          2.3859   -1.8888    4.4937 F         1 <0>         0.0000
     16 F3          3.6585   -2.3732    2.7880 F         1 <0>         0.0000
     17 S1          1.4695    0.3387   -1.9588 S.3       1 <0>         0.0000
     18 H1         -2.4396    1.6690    1.9274 H         1 <0>         0.0000
     19 H2         -1.4684    3.3999    0.4050 H         1 <0>         0.0000
     20 H3         -1.6817   -0.6847    1.7374 H         1 <0>         0.0000
     21 H4          0.1986    2.7443   -1.3002 H         1 <0>         0.0000
     22 H5         -0.6187   -2.0043   -1.8794 H         1 <0>         0.0000
     23 H6          0.5144   -3.2749   -1.4139 H         1 <0>         0.0000
     24 H7          2.4384   -1.8583   -1.7761 H         1 <0>         0.0000
     25 H8          1.3945   -1.7099   -3.1911 H         1 <0>         0.0000
     26 H9         -0.5689   -2.3670    0.5620 H         1 <0>         0.0000
     27 H10         1.7559   -3.0504    0.8191 H         1 <0>         0.0000
     28 H11         2.3462   -1.4351    0.4204 H         1 <0>         0.0000
     29 H12         0.4421   -1.7024    2.7413 H         1 <0>         0.0000
     30 H13         1.5093    0.2025    3.2419 H         1 <0>         0.0000
@<TRIPOS>BOND
     1    1    2 ar
     2    1    3 ar
     3    1   18 1
     4    2    4 ar
     5    2   19 1
     6    3    5 ar
     7    3   20 1
     8    4    6 ar
     9    4   21 1
    10    5    6 ar
    11    5    9 1
    12    6   17 1
    13    7    8 1
    14    7    9 1
    15    7   22 1
    16    7   23 1
    17    8   17 1
    18    8   24 1
    19    8   25 1
    20    9   10 1
    21    9   26 1
    22   10   11 1
    23   10   27 1
    24   10   28 1
    25   11   12 1
    26   11   13 1
    27   11   29 1
    28   12   14 1
    29   12   15 1
    30   12   16 1
    31   13   30 1
