@<TRIPOS>MOLECULE
*****
   30    31     0     0     0
SMALL
NO_CHARGES

@<TRIPOS>ATOM
      1 C1         -1.9227    1.8992    1.3526 C.ar      1 <0>         0.0000
      2 C2         -1.5368    2.6599    0.2426 C.ar      1 <0>         0.0000
      3 C3         -1.4804    0.5804    1.4603 C.ar      1 <0>         0.0000
      4 C4         -0.7248    2.0960   -0.7395 C.ar      1 <0>         0.0000
      5 C5         -0.6490   -0.0019    0.4932 C.ar      1 <0>         0.0000
      6 C6         -0.2701    0.7705   -0.6206 C.ar      1 <0>         0.0000
      7 C7         -0.1399   -2.1641   -0.6800 C.3       1 <0>         0.0000
      8 C8          0.9110   -1.6214   -1.6416 C.3       1 <0>         0.0000
      9 C9         -0.1688   -1.4304    0.6719 C.3       1 <0>         0.0000
     10 C10         1.1821   -1.3977    1.4281 C.3       1 <0>         0.0000
     11 C11         1.8473   -2.7180    1.8255 C.3       1 <0>         0.0000
     12 C12         0.9745   -3.6268    2.6988 C.3       1 <0>         0.0000
     13 O1          2.2704   -3.4302    0.6699 O.3       1 <0>         0.0000
     14 F1          0.5575   -2.9836    3.8147 F         1 <0>         0.0000
     15 F2          1.6994   -4.7101    3.1034 F         1 <0>         0.0000
     16 F3         -0.1174   -4.1068    2.0667 F         1 <0>         0.0000
     17 S1          0.7873    0.1951   -1.9317 S.3       1 <0>         0.0000
     18 H1         -2.5648    2.3265    2.1179 H         1 <0>         0.0000
     19 H2         -1.8754    3.6872    0.1348 H         1 <0>         0.0000
     20 H3         -1.7823   -0.0218    2.3157 H         1 <0>         0.0000
     21 H4         -0.4403    2.6828   -1.6098 H         1 <0>         0.0000
     22 H5         -1.1340   -2.0808   -1.1326 H         1 <0>         0.0000
     23 H6          0.0672   -3.2256   -0.5251 H         1 <0>         0.0000
     24 H7          1.9143   -1.8438   -1.2770 H         1 <0>         0.0000
     25 H8          0.7987   -2.0842   -2.6254 H         1 <0>         0.0000
     26 H9         -0.9012   -1.9396    1.3042 H         1 <0>         0.0000
     27 H10         1.9213   -0.8437    0.8410 H         1 <0>         0.0000
     28 H11         1.0358   -0.8215    2.3468 H         1 <0>         0.0000
     29 H12         2.7094   -2.4711    2.4615 H         1 <0>         0.0000
     30 H13         2.8189   -4.1815    0.9495 H         1 <0>         0.0000
@<TRIPOS>BOND
     1    1    2 ar
     2    1    3 ar
     3    1   18 1
     4    2    4 ar
     5    2   19 1
     6    3    5 ar
     7    3   20 1
     8    4    6 ar
     9    4   21 1
    10    5    6 ar
    11    5    9 1
    12    6   17 1
    13    7    8 1
    14    7    9 1
    15    7   22 1
    16    7   23 1
    17    8   17 1
    18    8   24 1
    19    8   25 1
    20    9   10 1
    21    9   26 1
    22   10   11 1
    23   10   27 1
    24   10   28 1
    25   11   12 1
    26   11   13 1
    27   11   29 1
    28   12   14 1
    29   12   15 1
    30   12   16 1
    31   13   30 1
