@<TRIPOS>MOLECULE
*****
   41    42     0     0     0
SMALL
NO_CHARGES

@<TRIPOS>ATOM
      1 C1          3.2110   -1.7180    2.1811 C.ar      1 <0>         0.0000
      2 C2          3.1246   -0.3329    2.0103 C.ar      1 <0>         0.0000
      3 C3          2.4197   -2.5606    1.3929 C.ar      1 <0>         0.0000
      4 C4          2.2506    0.2057    1.0610 C.ar      1 <0>         0.0000
      5 C5          1.5474   -2.0181    0.4459 C.ar      1 <0>         0.0000
      6 C6         -5.6516   -1.3447   -0.3780 C.ar      1 <0>         0.0000
      7 C7         -5.3039    0.4003    1.2867 C.ar      1 <0>         0.0000
      8 C8         -4.4709   -0.9694   -1.0186 C.ar      1 <0>         0.0000
      9 C9         -4.1278    0.7745    0.6454 C.ar      1 <0>         0.0000
     10 C10         1.4498   -0.6288    0.2712 C.ar      1 <0>         0.0000
     11 C11        -6.0652   -0.6627    0.7762 C.ar      1 <0>         0.0000
     12 C12        -3.7141    0.0819   -0.4986 C.ar      1 <0>         0.0000
     13 C13         2.2449    0.1135   -2.5731 C.2       1 <0>         0.0000
     14 C14         4.1234   -0.1831   -3.9740 C.3       1 <0>         0.0000
     15 C15         0.8878   -0.4369   -2.1905 C.3       1 <0>         0.0000
     16 C16        -0.9412   -0.4365   -0.4042 C.3       1 <0>         0.0000
     17 C17         0.5002   -0.0317   -0.7571 C.3       1 <0>         0.0000
     18 O1          2.7374    1.1351   -2.1335 O.2       1 <0>         0.0000
     19 O2         -2.2411    0.0644   -2.6992 O.2       1 <0>         0.0000
     20 O3         -1.9194    1.9672   -1.0115 O.2       1 <0>         0.0000
     21 O4         -7.2111   -0.9845    1.4480 O.3       1 <0>         0.0000
     22 O5          2.8452   -0.6629   -3.5056 O.3       1 <0>         0.0000
     23 S1         -2.1862    0.5486   -1.3057 S.o2      1 <0>         0.0000
     24 H1          3.8910   -2.1379    2.9178 H         1 <0>         0.0000
     25 H2          3.7424    0.3294    2.6113 H         1 <0>         0.0000
     26 H3          2.4833   -3.6391    1.5148 H         1 <0>         0.0000
     27 H4          2.2015    1.2813    0.9157 H         1 <0>         0.0000
     28 H5          0.9441   -2.6880   -0.1633 H         1 <0>         0.0000
     29 H6         -6.2535   -2.1578   -0.7795 H         1 <0>         0.0000
     30 H7         -5.6549    0.9218    2.1718 H         1 <0>         0.0000
     31 H8         -4.1471   -1.4703   -1.9258 H         1 <0>         0.0000
     32 H9         -3.5399    1.6111    1.0113 H         1 <0>         0.0000
     33 H10         4.4554   -0.9136   -4.7116 H         1 <0>         0.0000
     34 H11         4.8320   -0.1214   -3.1448 H         1 <0>         0.0000
     35 H12         4.0161    0.8041   -4.4295 H         1 <0>         0.0000
     36 H13         0.8893   -1.5225   -2.3166 H         1 <0>         0.0000
     37 H14         0.1630   -0.0420   -2.9103 H         1 <0>         0.0000
     38 H15        -1.1593   -1.4836   -0.6296 H         1 <0>         0.0000
     39 H16        -1.1360   -0.2532    0.6553 H         1 <0>         0.0000
     40 H17         0.5674    1.0565   -0.6865 H         1 <0>         0.0000
     41 H18        -7.6570   -1.7193    0.9967 H         1 <0>         0.0000
@<TRIPOS>BOND
     1    1    3 ar
     2    1    2 ar
     3    1   24 1
     4    2    4 ar
     5    2   25 1
     6    3    5 ar
     7    3   26 1
     8    4   10 ar
     9    4   27 1
    10    5   10 ar
    11    5   28 1
    12    6    8 ar
    13    6   11 ar
    14    6   29 1
    15    7    9 ar
    16    7   11 ar
    17    7   30 1
    18    8   12 ar
    19    8   31 1
    20    9   12 ar
    21    9   32 1
    22   10   17 1
    23   11   21 1
    24   12   23 1
    25   13   15 1
    26   13   18 2
    27   13   22 1
    28   14   22 1
    29   14   33 1
    30   14   34 1
    31   14   35 1
    32   15   17 1
    33   15   36 1
    34   15   37 1
    35   16   17 1
    36   16   23 1
    37   16   38 1
    38   16   39 1
    39   17   40 1
    40   19   23 2
    41   20   23 2
    42   21   41 1
