@<TRIPOS>MOLECULE
*****
   41    42     0     0     0
SMALL
NO_CHARGES

@<TRIPOS>ATOM
      1 C1          3.5961   -1.2214    2.7433 C.ar      1 <0>         0.0000
      2 C2          3.4792    0.1306    2.4092 C.ar      1 <0>         0.0000
      3 C3          2.7894   -2.1625    2.0942 C.ar      1 <0>         0.0000
      4 C4          2.5620    0.5329    1.4327 C.ar      1 <0>         0.0000
      5 C5          1.8733   -1.7593    1.1188 C.ar      1 <0>         0.0000
      6 C6         -5.2064   -1.4638    0.3507 C.ar      1 <0>         0.0000
      7 C7         -5.2230    0.6989    1.4731 C.ar      1 <0>         0.0000
      8 C8         -4.0297   -1.1133   -0.3028 C.ar      1 <0>         0.0000
      9 C9         -4.0406    1.0476    0.8203 C.ar      1 <0>         0.0000
     10 C10         1.7520   -0.4030    0.7737 C.ar      1 <0>         0.0000
     11 C11        -5.8026   -0.5574    1.2413 C.ar      1 <0>         0.0000
     12 C12        -3.4514    0.1379   -0.0586 C.ar      1 <0>         0.0000
     13 C13         0.5732   -1.8018   -2.0928 C.2       1 <0>         0.0000
     14 C14         0.2472   -3.2611   -3.9186 C.3       1 <0>         0.0000
     15 C15         1.0826   -0.4275   -1.7083 C.3       1 <0>         0.0000
     16 C16        -0.6701   -0.2024    0.2003 C.3       1 <0>         0.0000
     17 C17         0.7647    0.0787   -0.2816 C.3       1 <0>         0.0000
     18 O1          0.0877   -2.6401   -1.3508 O.2       1 <0>         0.0000
     19 O2         -1.8911   -0.1156   -2.1839 O.2       1 <0>         0.0000
     20 O3         -1.7391    2.0295   -0.7967 O.2       1 <0>         0.0000
     21 O4         -6.9582   -0.9568    1.8534 O.3       1 <0>         0.0000
     22 O5          0.7423   -2.0038   -3.4148 O.3       1 <0>         0.0000
     23 S1         -1.9193    0.5669   -0.8754 S.o2      1 <0>         0.0000
     24 H1          4.3073   -1.5388    3.5017 H         1 <0>         0.0000
     25 H2          4.0994    0.8722    2.9065 H         1 <0>         0.0000
     26 H3          2.8729   -3.2163    2.3484 H         1 <0>         0.0000
     27 H4          2.4759    1.5875    1.1791 H         1 <0>         0.0000
     28 H5          1.2552   -2.4973    0.6184 H         1 <0>         0.0000
     29 H6         -5.6818   -2.4248    0.1807 H         1 <0>         0.0000
     30 H7         -5.6962    1.4034    2.1548 H         1 <0>         0.0000
     31 H8         -3.5650   -1.7943   -1.0096 H         1 <0>         0.0000
     32 H9         -3.5848    2.0211    0.9734 H         1 <0>         0.0000
     33 H10         0.4627   -3.2501   -4.9868 H         1 <0>         0.0000
     34 H11        -0.8283   -3.3367   -3.7436 H         1 <0>         0.0000
     35 H12         0.7546   -4.0965   -3.4304 H         1 <0>         0.0000
     36 H13         0.6794    0.2648   -2.4505 H         1 <0>         0.0000
     37 H14         2.1690   -0.4305   -1.8488 H         1 <0>         0.0000
     38 H15        -0.8947   -1.2680    0.2265 H         1 <0>         0.0000
     39 H16        -0.8263    0.2357    1.1891 H         1 <0>         0.0000
     40 H17         0.8684    1.1668   -0.3322 H         1 <0>         0.0000
     41 H18        -7.2789   -0.2480    2.4340 H         1 <0>         0.0000
@<TRIPOS>BOND
     1    1    3 ar
     2    1    2 ar
     3    1   24 1
     4    2    4 ar
     5    2   25 1
     6    3    5 ar
     7    3   26 1
     8    4   10 ar
     9    4   27 1
    10    5   10 ar
    11    5   28 1
    12    6    8 ar
    13    6   11 ar
    14    6   29 1
    15    7    9 ar
    16    7   11 ar
    17    7   30 1
    18    8   12 ar
    19    8   31 1
    20    9   12 ar
    21    9   32 1
    22   10   17 1
    23   11   21 1
    24   12   23 1
    25   13   15 1
    26   13   18 2
    27   13   22 1
    28   14   22 1
    29   14   33 1
    30   14   34 1
    31   14   35 1
    32   15   17 1
    33   15   36 1
    34   15   37 1
    35   16   17 1
    36   16   23 1
    37   16   38 1
    38   16   39 1
    39   17   40 1
    40   19   23 2
    41   20   23 2
    42   21   41 1
