@<TRIPOS>MOLECULE
*****
   41    42     0     0     0
SMALL
NO_CHARGES

@<TRIPOS>ATOM
      1 C1          3.9767   -1.1826    1.7939 C.ar      1 <0>         0.0000
      2 C2          3.6331    0.1717    1.8487 C.ar      1 <0>         0.0000
      3 C3          3.3176   -2.0255    0.8928 C.ar      1 <0>         0.0000
      4 C4          2.6352    0.6761    1.0092 C.ar      1 <0>         0.0000
      5 C5          2.3205   -1.5173    0.0566 C.ar      1 <0>         0.0000
      6 C6         -5.0513   -1.4904    0.1332 C.ar      1 <0>         0.0000
      7 C7         -4.7663    0.2861    1.7765 C.ar      1 <0>         0.0000
      8 C8         -3.9719   -0.9919   -0.5894 C.ar      1 <0>         0.0000
      9 C9         -3.6840    0.7835    1.0519 C.ar      1 <0>         0.0000
     10 C10         1.9662   -0.1607    0.1065 C.ar      1 <0>         0.0000
     11 C11        -5.4470   -0.8527    1.3191 C.ar      1 <0>         0.0000
     12 C12        -3.2899    0.1370   -0.1214 C.ar      1 <0>         0.0000
     13 C13         2.5067    0.5579   -2.7350 C.2       1 <0>         0.0000
     14 C14         4.0909    2.3118   -2.6769 C.3       1 <0>         0.0000
     15 C15         1.1322    0.1156   -2.2817 C.3       1 <0>         0.0000
     16 C16        -0.4838   -0.1495   -0.3174 C.3       1 <0>         0.0000
     17 C17         0.8730    0.4035   -0.7878 C.3       1 <0>         0.0000
     18 O1          3.2677   -0.1081   -3.4096 O.2       1 <0>         0.0000
     19 O2         -2.0386    0.3476   -2.4467 O.2       1 <0>         0.0000
     20 O3         -1.7044    2.1851   -0.6907 O.2       1 <0>         0.0000
     21 O4         -6.5141   -1.3864    1.9853 O.3       1 <0>         0.0000
     22 O5          2.7887    1.8133   -2.3104 O.3       1 <0>         0.0000
     23 S1         -1.8885    0.7646   -1.0399 S.o2      1 <0>         0.0000
     24 H1          4.7544   -1.5769    2.4428 H         1 <0>         0.0000
     25 H2          4.1446    0.8362    2.5405 H         1 <0>         0.0000
     26 H3          3.5841   -3.0778    0.8372 H         1 <0>         0.0000
     27 H4          2.3777    1.7320    1.0462 H         1 <0>         0.0000
     28 H5          1.8278   -2.1838   -0.6472 H         1 <0>         0.0000
     29 H6         -5.6052   -2.3598   -0.2070 H         1 <0>         0.0000
     30 H7         -5.0869    0.7871    2.6881 H         1 <0>         0.0000
     31 H8         -3.6687   -1.4562   -1.5230 H         1 <0>         0.0000
     32 H9         -3.1605    1.6771    1.3782 H         1 <0>         0.0000
     33 H10         4.1438    3.3189   -2.2633 H         1 <0>         0.0000
     34 H11         4.1987    2.3348   -3.7637 H         1 <0>         0.0000
     35 H12         4.8711    1.6774   -2.2497 H         1 <0>         0.0000
     36 H13         1.0479   -0.9492   -2.5063 H         1 <0>         0.0000
     37 H14         0.3861    0.6311   -2.8937 H         1 <0>         0.0000
     38 H15        -0.6257   -1.2012   -0.5800 H         1 <0>         0.0000
     39 H16        -0.5848   -0.0349    0.7648 H         1 <0>         0.0000
     40 H17         0.8517    1.4867   -0.6492 H         1 <0>         0.0000
     41 H18        -6.7021   -0.8559    2.7763 H         1 <0>         0.0000
@<TRIPOS>BOND
     1    1    3 ar
     2    1    2 ar
     3    1   24 1
     4    2    4 ar
     5    2   25 1
     6    3    5 ar
     7    3   26 1
     8    4   10 ar
     9    4   27 1
    10    5   10 ar
    11    5   28 1
    12    6    8 ar
    13    6   11 ar
    14    6   29 1
    15    7    9 ar
    16    7   11 ar
    17    7   30 1
    18    8   12 ar
    19    8   31 1
    20    9   12 ar
    21    9   32 1
    22   10   17 1
    23   11   21 1
    24   12   23 1
    25   13   15 1
    26   13   18 2
    27   13   22 1
    28   14   22 1
    29   14   33 1
    30   14   34 1
    31   14   35 1
    32   15   17 1
    33   15   36 1
    34   15   37 1
    35   16   17 1
    36   16   23 1
    37   16   38 1
    38   16   39 1
    39   17   40 1
    40   19   23 2
    41   20   23 2
    42   21   41 1
