@<TRIPOS>MOLECULE
*****
   28    29     0     0     0
SMALL
NO_CHARGES

@<TRIPOS>ATOM
      1 C1          3.1254   -0.5349    1.4464 C.ar      1 <0>         0.0000
      2 C2          1.6383   -2.1536    0.4439 C.ar      1 <0>         0.0000
      3 C3          2.0471    0.0384    2.1203 C.ar      1 <0>         0.0000
      4 C4          0.5599   -1.5804    1.1179 C.ar      1 <0>         0.0000
      5 C5          2.9210   -1.6309    0.6081 C.ar      1 <0>         0.0000
      6 C6          0.7644   -0.4843    1.9561 C.ar      1 <0>         0.0000
      7 C7          5.1399   -6.8097   -3.9807 C.ar      1 <0>         0.0000
      8 C8          3.9569   -6.4037   -3.4185 C.ar      1 <0>         0.0000
      9 C9          5.0713   -4.7672   -2.3325 C.ar      1 <0>         0.0000
     10 C10         4.0455   -2.2284   -0.0943 C.2       1 <0>         0.0000
     11 C11         5.2098   -7.9641   -4.9174 C.3       1 <0>         0.0000
     12 N1          6.2909   -6.1718   -3.7009 N.ar      1 <0>         0.0000
     13 N2          3.8942   -5.3634   -2.5736 N.ar      1 <0>         0.0000
     14 N3          6.2621   -5.1214   -2.8544 N.ar      1 <0>         0.0000
     15 N4          3.9136   -3.2530   -0.8893 N.2       1 <0>         0.0000
     16 N5          5.0627   -3.6728   -1.4537 N.pl3     1 <0>         0.0000
     17 O1          2.7862   -7.0493   -3.7022 O.3       1 <0>         0.0000
     18 F1         -0.2711    0.0660    2.6033 F         1 <0>         0.0000
     19 H1          4.1207   -0.1196    1.5818 H         1 <0>         0.0000
     20 H2          1.4676   -3.0080   -0.2065 H         1 <0>         0.0000
     21 H3          2.2061    0.8916    2.7731 H         1 <0>         0.0000
     22 H4         -0.4391   -1.9871    0.9898 H         1 <0>         0.0000
     23 H5          5.0512   -1.7757    0.0691 H         1 <0>         0.0000
     24 H6          5.0684   -7.6286   -5.9532 H         1 <0>         0.0000
     25 H7          6.1788   -8.4778   -4.8500 H         1 <0>         0.0000
     26 H8          4.4393   -8.7138   -4.6889 H         1 <0>         0.0000
     27 H9          5.9421   -3.2075   -1.2576 H         1 <0>         0.0000
     28 H10         2.0546   -6.6337   -3.2225 H         1 <0>         0.0000
@<TRIPOS>BOND
     1    1    3 ar
     2    1    5 ar
     3    1   19 1
     4    2    4 ar
     5    2    5 ar
     6    2   20 1
     7    3    6 ar
     8    3   21 1
     9    4    6 ar
    10    4   22 1
    11    5   10 1
    12    6   18 1
    13    7    8 ar
    14    7   11 1
    15    7   12 ar
    16    8   13 ar
    17    8   17 1
    18    9   13 ar
    19    9   14 ar
    20    9   16 1
    21   10   15 2
    22   10   23 1
    23   11   24 1
    24   11   25 1
    25   11   26 1
    26   12   14 ar
    27   15   16 1
    28   16   27 1
    29   17   28 1
