@<TRIPOS>MOLECULE
*****
   44    46     0     0     0
SMALL
NO_CHARGES

@<TRIPOS>ATOM
      1 C1         -1.8226    5.5549    0.7578 C.1       1 <0>         0.0000
      2 C2         -2.3636    3.2614    0.1094 C.2       1 <0>         0.0000
      3 C3         -2.2587    4.5980   -0.2109 C.2       1 <0>         0.0000
      4 C4         -2.7939    2.2797   -0.8209 C.2       1 <0>         0.0000
      5 C5         -3.1534    2.7003   -2.0939 C.2       1 <0>         0.0000
      6 C6         -2.5896    5.0675   -1.5523 C.2       1 <0>         0.0000
      7 C7          1.5379   -0.3132    1.2981 C.2       1 <0>         0.0000
      8 C8         -2.9608    0.8428   -0.4290 C.2       1 <0>         0.0000
      9 C9          1.3884    0.0189   -1.6702 C.3       1 <0>         0.0000
     10 C10         0.5066   -0.9724   -0.8927 C.3       1 <0>         0.0000
     11 C11        -0.7220   -1.4854    1.2772 C.3       1 <0>         0.0000
     12 C12         2.3369    0.8173   -0.7490 C.3       1 <0>         0.0000
     13 C13        -2.1245   -1.1206    0.7711 C.3       1 <0>         0.0000
     14 C14        -0.6331    0.7861    0.5723 C.3       1 <0>         0.0000
     15 C15         0.2161   -0.5076    0.5444 C.3       1 <0>         0.0000
     16 C16        -3.6879    1.8160   -3.1841 C.3       1 <0>         0.0000
     17 C17         3.8414    0.4768    1.2044 C.3       1 <0>         0.0000
     18 N1         -1.4547    6.3052    1.5704 N.1       1 <0>         0.0000
     19 N2         -3.0307    4.0220   -2.3966 N.am      1 <0>         0.0000
     20 N3          2.5783    0.1643    0.5415 N.am      1 <0>         0.0000
     21 N4         -2.0059    0.2987    0.3816 N.am      1 <0>         0.0000
     22 O1         -2.5243    6.2135   -1.9812 O.2       1 <0>         0.0000
     23 O2          1.6533   -0.5929    2.4923 O.2       1 <0>         0.0000
     24 O3         -3.9378    0.1866   -0.8108 O.2       1 <0>         0.0000
     25 H1         -2.1260    2.9551    1.1234 H         1 <0>         0.0000
     26 H2          1.9696   -0.5299   -2.4165 H         1 <0>         0.0000
     27 H3          0.7689    0.7309   -2.2247 H         1 <0>         0.0000
     28 H4         -0.4305   -1.1457   -1.4320 H         1 <0>         0.0000
     29 H5          1.0116   -1.9415   -0.8271 H         1 <0>         0.0000
     30 H6         -0.6300   -1.3234    2.3526 H         1 <0>         0.0000
     31 H7         -0.4689   -2.5290    1.0743 H         1 <0>         0.0000
     32 H8          3.3078    0.9461   -1.2338 H         1 <0>         0.0000
     33 H9          1.9451    1.8301   -0.5789 H         1 <0>         0.0000
     34 H10        -2.4314   -1.7058   -0.1004 H         1 <0>         0.0000
     35 H11        -2.8985   -1.2436    1.5335 H         1 <0>         0.0000
     36 H12        -0.5203    1.2770    1.5467 H         1 <0>         0.0000
     37 H13        -0.3640    1.5006   -0.2056 H         1 <0>         0.0000
     38 H14        -4.7590    1.6524   -3.0341 H         1 <0>         0.0000
     39 H15        -3.2199    0.8321   -3.1613 H         1 <0>         0.0000
     40 H16        -3.5303    2.2720   -4.1662 H         1 <0>         0.0000
     41 H17         4.6730    0.2298    0.5372 H         1 <0>         0.0000
     42 H18         3.9154   -0.1102    2.1184 H         1 <0>         0.0000
     43 H19         3.9022    1.5417    1.4653 H         1 <0>         0.0000
     44 H20        -3.2775    4.3408   -3.3301 H         1 <0>         0.0000
@<TRIPOS>BOND
     1    1    3 1
     2    1   18 3
     3    2    3 2
     4    2    4 1
     5    2   25 1
     6    3    6 1
     7    4    5 2
     8    4    8 1
     9    5   16 1
    10    5   19 1
    11    6   19 am
    12    6   22 2
    13    7   15 1
    14    7   20 am
    15    7   23 2
    16    8   21 am
    17    8   24 2
    18    9   10 1
    19    9   12 1
    20    9   26 1
    21    9   27 1
    22   10   15 1
    23   10   28 1
    24   10   29 1
    25   11   13 1
    26   11   15 1
    27   11   30 1
    28   11   31 1
    29   12   20 1
    30   12   32 1
    31   12   33 1
    32   13   21 1
    33   13   34 1
    34   13   35 1
    35   14   15 1
    36   14   21 1
    37   14   36 1
    38   14   37 1
    39   16   38 1
    40   16   39 1
    41   16   40 1
    42   17   20 1
    43   17   41 1
    44   17   42 1
    45   17   43 1
    46   19   44 1
