@<TRIPOS>MOLECULE
*****
   27    29     0     0     0
SMALL
NO_CHARGES

@<TRIPOS>ATOM
      1 C1          2.1680    1.9754    1.9358 C.ar      1 <0>         0.0000
      2 C2          1.8268    2.4040    3.2324 C.ar      1 <0>         0.0000
      3 C3         -1.0020    2.8759   -1.8288 C.2       1 <0>         0.0000
      4 C4         -2.0741    3.6990   -1.3781 C.2       1 <0>         0.0000
      5 C5         -0.0762    1.0493    1.5885 C.ar      1 <0>         0.0000
      6 C6          1.2335    1.3200    1.1291 C.ar      1 <0>         0.0000
      7 C7          0.5453    2.1301    3.6722 C.ar      1 <0>         0.0000
      8 C8         -0.3808    1.4599    2.8705 C.ar      1 <0>         0.0000
      9 C9          0.1695    3.1298   -1.1575 C.2       1 <0>         0.0000
     10 C10        -1.6748    4.5467   -0.3724 C.2       1 <0>         0.0000
     11 C11        -1.4136    2.0878    4.7529 C.3       1 <0>         0.0000
     12 N1          1.6006    0.9648   -0.2081 N.pl3     1 <0>         0.0000
     13 O1          2.7637    3.1196   -0.9214 O.2       1 <0>         0.0000
     14 O2          1.6618    1.5660   -2.6494 O.2       1 <0>         0.0000
     15 O3         -0.0190    2.4003    4.9003 O.3       1 <0>         0.0000
     16 O4         -1.5589    1.2913    3.5626 O.3       1 <0>         0.0000
     17 S1          0.0040    4.3777    0.0421 S.3       1 <0>         0.0000
     18 S2          1.6878    2.2324   -1.3490 S.o2      1 <0>         0.0000
     19 Cl1        -2.6621    5.7062    0.4456 Cl        1 <0>         0.0000
     20 H1          3.1567    2.1696    1.5366 H         1 <0>         0.0000
     21 H2          2.5443    2.9174    3.8640 H         1 <0>         0.0000
     22 H3         -1.0761    2.1390   -2.6214 H         1 <0>         0.0000
     23 H4         -3.0820    3.6779   -1.7766 H         1 <0>         0.0000
     24 H5         -0.8141    0.5628    0.9576 H         1 <0>         0.0000
     25 H6         -1.7491    1.5109    5.6167 H         1 <0>         0.0000
     26 H7         -1.9853    3.0182    4.6360 H         1 <0>         0.0000
     27 H8          1.0378    0.2161   -0.6092 H         1 <0>         0.0000
@<TRIPOS>BOND
     1    1    2 ar
     2    1    6 ar
     3    1   20 1
     4    2    7 ar
     5    2   21 1
     6    3    4 1
     7    3    9 2
     8    3   22 1
     9    4   10 2
    10    4   23 1
    11    5    6 ar
    12    5    8 ar
    13    5   24 1
    14    6   12 1
    15    7    8 ar
    16    7   15 1
    17    8   16 1
    18    9   17 1
    19    9   18 1
    20   10   17 1
    21   10   19 1
    22   11   15 1
    23   11   16 1
    24   11   25 1
    25   11   26 1
    26   12   18 1
    27   12   27 1
    28   13   18 2
    29   14   18 2
