@<TRIPOS>MOLECULE
*****
   27    29     0     0     0
SMALL
NO_CHARGES

@<TRIPOS>ATOM
      1 C1          0.8228    1.2902    1.5066 C.ar      1 <0>         0.0000
      2 C2          0.5649    1.9850    2.7040 C.ar      1 <0>         0.0000
      3 C3         -1.3834    2.7710   -1.0650 C.2       1 <0>         0.0000
      4 C4         -0.9107    4.1140   -1.1363 C.2       1 <0>         0.0000
      5 C5         -1.3179    0.1029    1.6473 C.ar      1 <0>         0.0000
      6 C6         -0.0918    0.3624    0.9964 C.ar      1 <0>         0.0000
      7 C7         -0.6418    1.7299    3.3269 C.ar      1 <0>         0.0000
      8 C8         -1.5601    0.8158    2.8044 C.ar      1 <0>         0.0000
      9 C9         -0.5306    1.8833   -1.6716 C.2       1 <0>         0.0000
     10 C10         0.2980    4.1950   -1.7822 C.2       1 <0>         0.0000
     11 C11        -2.3349    1.5354    4.7772 C.3       1 <0>         0.0000
     12 N1          0.1950   -0.3387   -0.2169 N.pl3     1 <0>         0.0000
     13 O1          0.0776   -0.4519   -2.7258 O.2       1 <0>         0.0000
     14 O2         -2.0811   -0.1766   -1.3549 O.2       1 <0>         0.0000
     15 O3         -1.1557    2.2998    4.4716 O.3       1 <0>         0.0000
     16 O4         -2.6805    0.7793    3.6043 O.3       1 <0>         0.0000
     17 S1          0.8832    2.6518   -2.3380 S.3       1 <0>         0.0000
     18 S2         -0.6765    0.1196   -1.6120 S.o2      1 <0>         0.0000
     19 Cl1         1.2006    5.6331   -2.1009 Cl        1 <0>         0.0000
     20 H1          1.7465    1.4838    0.9677 H         1 <0>         0.0000
     21 H2          1.2723    2.7012    3.1087 H         1 <0>         0.0000
     22 H3         -2.3052    2.4603   -0.5863 H         1 <0>         0.0000
     23 H4         -1.4320    4.9761   -0.7362 H         1 <0>         0.0000
     24 H5         -2.0243   -0.6113    1.2411 H         1 <0>         0.0000
     25 H6         -2.1163    0.8448    5.6026 H         1 <0>         0.0000
     26 H7         -3.1527    2.2153    5.0235 H         1 <0>         0.0000
     27 H8          1.1855   -0.3707   -0.4529 H         1 <0>         0.0000
@<TRIPOS>BOND
     1    1    2 ar
     2    1    6 ar
     3    1   20 1
     4    2    7 ar
     5    2   21 1
     6    3    4 1
     7    3    9 2
     8    3   22 1
     9    4   10 2
    10    4   23 1
    11    5    6 ar
    12    5    8 ar
    13    5   24 1
    14    6   12 1
    15    7    8 ar
    16    7   15 1
    17    8   16 1
    18    9   17 1
    19    9   18 1
    20   10   17 1
    21   10   19 1
    22   11   15 1
    23   11   16 1
    24   11   25 1
    25   11   26 1
    26   12   18 1
    27   12   27 1
    28   13   18 2
    29   14   18 2
