@<TRIPOS>MOLECULE
*****
   27    28     0     0     0
SMALL
NO_CHARGES

@<TRIPOS>ATOM
      1 C1         -0.0026   -5.0485   -6.2799 C.1       1 <0>         0.0000
      2 C2          2.4945   -0.6968    0.3398 C.ar      1 <0>         0.0000
      3 C3          2.9499   -1.9742    2.3423 C.ar      1 <0>         0.0000
      4 C4          1.9552    0.3304    1.1153 C.ar      1 <0>         0.0000
      5 C5          2.4005   -0.9619    3.1270 C.ar      1 <0>         0.0000
      6 C6          0.6556   -4.5007   -5.1378 C.ar      1 <0>         0.0000
      7 C7          2.9909   -1.8712    0.9392 C.ar      1 <0>         0.0000
      8 C8          2.0583   -4.5862   -4.9776 C.ar      1 <0>         0.0000
      9 C9          2.6783   -4.0448   -3.8471 C.ar      1 <0>         0.0000
     10 C10         1.9021    0.1849    2.5033 C.ar      1 <0>         0.0000
     11 C11         1.8396   -3.4673   -2.8599 C.ar      1 <0>         0.0000
     12 C12        -0.0506   -3.8292   -4.1212 C.ar      1 <0>         0.0000
     13 C13         3.6102   -2.9746    0.1786 C.2       1 <0>         0.0000
     14 N1         -0.5430   -5.4953   -7.2104 N.1       1 <0>         0.0000
     15 N2          0.5127   -3.3519   -3.0337 N.ar      1 <0>         0.0000
     16 N3          3.3357   -3.4416   -0.9911 N.2       1 <0>         0.0000
     17 N4          2.2831   -2.8962   -1.6819 N.pl3     1 <0>         0.0000
     18 Cl1         2.9880   -5.3418   -6.2226 Cl        1 <0>         0.0000
     19 Cl2         4.4079   -4.0075   -3.7271 Cl        1 <0>         0.0000
     20 Cl3        -1.7736   -3.6141   -4.2703 Cl        1 <0>         0.0000
     21 Br1         1.1518    1.5837    3.5697 Br        1 <0>         0.0000
     22 H1          2.5676   -0.5576   -0.7341 H         1 <0>         0.0000
     23 H2          3.3475   -2.8635    2.8254 H         1 <0>         0.0000
     24 H3          1.5866    1.2358    0.6443 H         1 <0>         0.0000
     25 H4          2.3647   -1.0592    4.2071 H         1 <0>         0.0000
     26 H5          4.4163   -3.5124    0.6761 H         1 <0>         0.0000
     27 H6          1.5170   -2.4780   -1.1511 H         1 <0>         0.0000
@<TRIPOS>BOND
     1    1    6 1
     2    1   14 3
     3    2    4 ar
     4    2    7 ar
     5    2   22 1
     6    3    5 ar
     7    3    7 ar
     8    3   23 1
     9    4   10 ar
    10    4   24 1
    11    5   10 ar
    12    5   25 1
    13    6    8 ar
    14    6   12 ar
    15    7   13 1
    16    8    9 ar
    17    8   18 1
    18    9   11 ar
    19    9   19 1
    20   10   21 1
    21   11   15 ar
    22   11   17 1
    23   12   15 ar
    24   12   20 1
    25   13   16 2
    26   13   26 1
    27   16   17 1
    28   17   27 1
