@<TRIPOS>MOLECULE
*****
   22    22     0     0     0
SMALL
NO_CHARGES

@<TRIPOS>ATOM
      1 C1          1.8882   -1.0366   -0.1032 C.ar      1 <0>         0.0000
      2 C2          0.7715   -0.4396    0.4956 C.ar      1 <0>         0.0000
      3 C3          2.8871   -1.6138    0.6748 C.ar      1 <0>         0.0000
      4 C4          1.6789   -1.0127    2.6823 C.ar      1 <0>         0.0000
      5 C5          0.6809   -0.4353    1.8861 C.ar      1 <0>         0.0000
      6 C6          2.7933   -1.6083    2.0810 C.ar      1 <0>         0.0000
      7 C7          4.7281   -2.7872    5.6067 C.3       1 <0>         0.0000
      8 C8          3.6455   -2.1634    4.7246 C.3       1 <0>         0.0000
      9 C9         -0.4975    0.1927    2.5827 C.3       1 <0>         0.0000
     10 F1         -1.3966    0.7168    1.7183 F         1 <0>         0.0000
     11 F2         -1.1650   -0.7070    3.3556 F         1 <0>         0.0000
     12 F3         -0.1139    1.1973    3.4169 F         1 <0>         0.0000
     13 S1          4.1254   -2.3736    2.9700 S.3       1 <0>         0.0000
     14 H1          1.9780   -1.0506   -1.1858 H         1 <0>         0.0000
     15 H2         -0.0082    0.0109   -0.1083 H         1 <0>         0.0000
     16 H3          3.7480   -2.0734    0.1954 H         1 <0>         0.0000
     17 H4          1.5697   -0.9881    3.7602 H         1 <0>         0.0000
     18 H5          4.8460   -3.8546    5.3972 H         1 <0>         0.0000
     19 H6          5.6951   -2.2983    5.4553 H         1 <0>         0.0000
     20 H7          4.4532   -2.6768    6.6604 H         1 <0>         0.0000
     21 H8          3.5407   -1.0964    4.9423 H         1 <0>         0.0000
     22 H9          2.6822   -2.6534    4.8943 H         1 <0>         0.0000
@<TRIPOS>BOND
     1    1    2 ar
     2    1    3 ar
     3    1   14 1
     4    2    5 ar
     5    2   15 1
     6    3    6 ar
     7    3   16 1
     8    4    5 ar
     9    4    6 ar
    10    4   17 1
    11    5    9 1
    12    6   13 1
    13    7    8 1
    14    7   18 1
    15    7   19 1
    16    7   20 1
    17    8   13 1
    18    8   21 1
    19    8   22 1
    20    9   10 1
    21    9   11 1
    22    9   12 1
