@<TRIPOS>MOLECULE
*****
   30    31     0     0     0
SMALL
NO_CHARGES

@<TRIPOS>ATOM
      1 C1         -3.8960   -1.3719   -3.3288 C.ar      1 <0>         0.0000
      2 C2         -2.8757   -0.6477   -2.7161 C.ar      1 <0>         0.0000
      3 C3         -5.1582   -1.5128   -2.7380 C.ar      1 <0>         0.0000
      4 C4         -4.3788   -0.1696   -0.8581 C.ar      1 <0>         0.0000
      5 C5          3.5347    2.7669   -0.8653 C.2       1 <0>         0.0000
      6 C6          1.3139    1.7614   -1.1919 C.2       1 <0>         0.0000
      7 C7         -3.1197   -0.0415   -1.4700 C.ar      1 <0>         0.0000
      8 C8          2.1976    2.5118   -0.4355 C.2       1 <0>         0.0000
      9 C9         -5.3732   -0.9017   -1.5024 C.ar      1 <0>         0.0000
     10 C10         3.9503    2.2556   -2.0548 C.2       1 <0>         0.0000
     11 C11         1.7712    1.2191   -2.4658 C.2       1 <0>         0.0000
     12 C12        -0.0387    1.5299   -0.7090 C.2       1 <0>         0.0000
     13 C13         5.3088    2.4226   -2.6557 C.3       1 <0>         0.0000
     14 N1         -0.9119    0.8396   -1.3641 N.2       1 <0>         0.0000
     15 N2         -2.1311    0.6931   -0.8185 N.pl3     1 <0>         0.0000
     16 O1          1.1618    0.5484   -3.2633 O.2       1 <0>         0.0000
     17 O2          3.1242    1.5211   -2.8209 O.3       1 <0>         0.0000
     18 O3          1.7638    3.0172    0.7558 O.3       1 <0>         0.0000
     19 Cl1        -6.9455   -1.0539   -0.7244 Cl        1 <0>         0.0000
     20 H1         -3.7077   -1.8403   -4.2913 H         1 <0>         0.0000
     21 H2         -1.8994   -0.5396   -3.1743 H         1 <0>         0.0000
     22 H3         -5.9490   -2.0777   -3.2195 H         1 <0>         0.0000
     23 H4         -4.5804    0.2935    0.1041 H         1 <0>         0.0000
     24 H5          4.2172    3.3572   -0.2620 H         1 <0>         0.0000
     25 H6         -0.2820    1.9812    0.2594 H         1 <0>         0.0000
     26 H7          5.7736    1.4438   -2.8139 H         1 <0>         0.0000
     27 H8          5.9512    3.0226   -2.0084 H         1 <0>         0.0000
     28 H9          5.2309    2.9091   -3.6336 H         1 <0>         0.0000
     29 H10        -2.3457    1.1159    0.0847 H         1 <0>         0.0000
     30 H11         2.4807    3.5175    1.1770 H         1 <0>         0.0000
@<TRIPOS>BOND
     1    1    2 ar
     2    1    3 ar
     3    1   20 1
     4    2    7 ar
     5    2   21 1
     6    3    9 ar
     7    3   22 1
     8    4    7 ar
     9    4    9 ar
    10    4   23 1
    11    5    8 1
    12    5   10 2
    13    5   24 1
    14    6    8 2
    15    6   11 1
    16    6   12 1
    17    7   15 1
    18    8   18 1
    19    9   19 1
    20   10   13 1
    21   10   17 1
    22   11   16 2
    23   11   17 1
    24   12   14 2
    25   12   25 1
    26   13   26 1
    27   13   27 1
    28   13   28 1
    29   14   15 1
    30   15   29 1
    31   18   30 1
