@<TRIPOS>MOLECULE
*****
   35    37     0     0     0
SMALL
NO_CHARGES

@<TRIPOS>ATOM
      1 C1         -1.4077   -4.1042    2.4283 C.ar      1 <0>         0.0000
      2 C2         -0.4453   -2.0160    1.0517 C.ar      1 <0>         0.0000
      3 C3         -1.4607    1.0694    3.5788 C.2       1 <0>         0.0000
      4 C4          0.3249   -1.3246    0.0421 C.2       1 <0>         0.0000
      5 C5         -0.7293    0.4562    4.6542 C.2       1 <0>         0.0000
      6 C6         -2.0375    2.1673    4.1546 C.2       1 <0>         0.0000
      7 C7         -1.6057   -1.8630    1.8678 C.ar      1 <0>         0.0000
      8 C8          0.1490   -3.2859    1.0967 C.ar      1 <0>         0.0000
      9 C9          0.1526    0.0281   -0.5850 C.3       1 <0>         0.0000
     10 C10         0.0837   -0.8013    4.6181 C.3       1 <0>         0.0000
     11 C11        -2.9320    3.2464    3.6479 C.3       1 <0>         0.0000
     12 C12        -3.5829   -0.7307    2.7203 C.3       1 <0>         0.0000
     13 C13        -1.5572    0.5870    2.1609 C.3       1 <0>         0.0000
     14 N1         -2.0845   -2.9486    2.5080 N.ar      1 <0>         0.0000
     15 N2         -0.2647   -4.3514    1.7802 N.ar      1 <0>         0.0000
     16 N3          1.2889   -2.0921   -0.4116 N.2       1 <0>         0.0000
     17 N4         -0.8545    1.1379    5.7708 N.2       1 <0>         0.0000
     18 N5         -2.2887   -0.6856    2.0360 N.pl3     1 <0>         0.0000
     19 O1         -1.6876    2.2319    5.4589 O.3       1 <0>         0.0000
     20 O2          1.2074   -3.3334    0.2645 O.3       1 <0>         0.0000
     21 H1         -1.8401   -4.9407    2.9742 H         1 <0>         0.0000
     22 H2          0.5755    0.8232    0.0367 H         1 <0>         0.0000
     23 H3          0.6693    0.0447   -1.5466 H         1 <0>         0.0000
     24 H4         -0.9062    0.2482   -0.7453 H         1 <0>         0.0000
     25 H5          0.7913   -0.7875    3.7829 H         1 <0>         0.0000
     26 H6          0.6406   -0.9154    5.5501 H         1 <0>         0.0000
     27 H7         -0.5624   -1.6747    4.4875 H         1 <0>         0.0000
     28 H8         -3.8680    3.2692    4.2152 H         1 <0>         0.0000
     29 H9         -2.4561    4.2269    3.7504 H         1 <0>         0.0000
     30 H10        -3.1689    3.0857    2.5941 H         1 <0>         0.0000
     31 H11        -4.0922    0.2203    2.5420 H         1 <0>         0.0000
     32 H12        -3.4818   -0.8831    3.8001 H         1 <0>         0.0000
     33 H13        -4.1827   -1.5434    2.3123 H         1 <0>         0.0000
     34 H14        -2.0414    1.3458    1.5371 H         1 <0>         0.0000
     35 H15        -0.5553    0.4394    1.7678 H         1 <0>         0.0000
@<TRIPOS>BOND
     1    1   14 ar
     2    1   15 ar
     3    1   21 1
     4    2    4 1
     5    2    7 ar
     6    2    8 ar
     7    3    5 1
     8    3    6 2
     9    3   13 1
    10    4    9 1
    11    4   16 2
    12    5   10 1
    13    5   17 2
    14    6   11 1
    15    6   19 1
    16    7   14 ar
    17    7   18 1
    18    8   15 ar
    19    8   20 1
    20    9   22 1
    21    9   23 1
    22    9   24 1
    23   10   25 1
    24   10   26 1
    25   10   27 1
    26   11   28 1
    27   11   29 1
    28   11   30 1
    29   12   18 1
    30   12   31 1
    31   12   32 1
    32   12   33 1
    33   13   18 1
    34   13   34 1
    35   13   35 1
    36   16   20 1
    37   17   19 1
