@<TRIPOS>MOLECULE
*****
   29    30     0     0     0
SMALL
NO_CHARGES

@<TRIPOS>ATOM
      1 C1          2.4251   -3.7123    2.2360 C.1       1 <0>         0.0000
      2 C2         -4.6105    1.6493    2.6271 C.2       1 <0>         0.0000
      3 C3          1.4360   -3.5761    3.2398 C.2       1 <0>         0.0000
      4 C4         -2.6807    0.5203    1.6613 C.2       1 <0>         0.0000
      5 C5         -3.0667    1.6947    1.0344 C.2       1 <0>         0.0000
      6 C6          0.2951   -2.8054    3.1456 C.2       1 <0>         0.0000
      7 C7          0.3699   -3.7934    5.0861 C.2       1 <0>         0.0000
      8 C8         -1.5889   -0.4081    1.3678 C.2       1 <0>         0.0000
      9 C9         -2.4117    2.3800   -0.1352 C.3       1 <0>         0.0000
     10 C10        -0.1496   -4.1002    6.4433 C.3       1 <0>         0.0000
     11 C11        -1.0230   -0.5254   -0.0292 C.3       1 <0>         0.0000
     12 N1          3.1900   -3.7644    1.3541 N.1       1 <0>         0.0000
     13 N2         -4.1662    2.3155    1.5960 N.2       1 <0>         0.0000
     14 N3          1.4456   -4.1972    4.4979 N.2       1 <0>         0.0000
     15 N4         -1.1960   -1.1483    2.3584 N.2       1 <0>         0.0000
     16 N5         -0.2073   -2.0612    2.1173 N.pl3     1 <0>         0.0000
     17 O1         -0.3967   -2.9259    4.3000 O.3       1 <0>         0.0000
     18 S1         -3.7338    0.2080    3.0257 S.3       1 <0>         0.0000
     19 H1         -5.4650    1.9637    3.2178 H         1 <0>         0.0000
     20 H2         -2.8197    2.0270   -1.0898 H         1 <0>         0.0000
     21 H3         -2.6166    3.4507   -0.0701 H         1 <0>         0.0000
     22 H4         -1.3299    2.2343   -0.1505 H         1 <0>         0.0000
     23 H5         -0.2440   -3.1872    7.0402 H         1 <0>         0.0000
     24 H6         -1.1375   -4.5687    6.3880 H         1 <0>         0.0000
     25 H7          0.5441   -4.7815    6.9368 H         1 <0>         0.0000
     26 H8         -0.0112   -0.1056   -0.0979 H         1 <0>         0.0000
     27 H9         -0.9690   -1.5808   -0.3219 H         1 <0>         0.0000
     28 H10        -1.6460   -0.0178   -0.7616 H         1 <0>         0.0000
     29 H11         0.4022   -1.9763    1.3065 H         1 <0>         0.0000
@<TRIPOS>BOND
     1    1    3 1
     2    1   12 3
     3    2   13 2
     4    2   18 1
     5    2   19 1
     6    3    6 2
     7    3   14 1
     8    4    5 2
     9    4    8 1
    10    4   18 1
    11    5    9 1
    12    5   13 1
    13    6   16 1
    14    6   17 1
    15    7   10 1
    16    7   14 2
    17    7   17 1
    18    8   11 1
    19    8   15 2
    20    9   20 1
    21    9   21 1
    22    9   22 1
    23   10   23 1
    24   10   24 1
    25   10   25 1
    26   11   26 1
    27   11   27 1
    28   11   28 1
    29   15   16 1
    30   16   29 1
