@<TRIPOS>MOLECULE
*****
   22    22     0     0     0
SMALL
NO_CHARGES

@<TRIPOS>ATOM
      1 C1          1.8375   -0.9828    0.1444 C.ar      1 <0>         0.0000
      2 C2          0.8535   -0.3742    0.9273 C.ar      1 <0>         0.0000
      3 C3          2.0267   -1.0880    2.9226 C.ar      1 <0>         0.0000
      4 C4          3.0238   -1.7017    2.1510 C.ar      1 <0>         0.0000
      5 C5          2.9196   -1.6406    0.7420 C.ar      1 <0>         0.0000
      6 C6          0.9615   -0.4305    2.3142 C.ar      1 <0>         0.0000
      7 C7          4.1455   -2.3775    2.8606 C.2       1 <0>         0.0000
      8 C8          3.8818   -2.1326   -1.4109 C.3       1 <0>         0.0000
      9 N1          4.4729   -1.8741    4.0118 N.2       1 <0>         0.0000
     10 N2          4.6998   -3.5273    2.3365 N.pl3     1 <0>         0.0000
     11 O1          5.5195   -2.6538    4.5914 O.3       1 <0>         0.0000
     12 O2          3.9227   -2.2336    0.0120 O.3       1 <0>         0.0000
     13 Br1        -0.3828    0.3978    3.4043 Br        1 <0>         0.0000
     14 H1          1.7475   -0.9312   -0.9339 H         1 <0>         0.0000
     15 H2          0.0177    0.1315    0.4550 H         1 <0>         0.0000
     16 H3          2.1074   -1.1382    4.0016 H         1 <0>         0.0000
     17 H4          4.7810   -2.6357   -1.7686 H         1 <0>         0.0000
     18 H5          3.8993   -1.0852   -1.7324 H         1 <0>         0.0000
     19 H6          2.9969   -2.6331   -1.8209 H         1 <0>         0.0000
     20 H7          4.6869   -3.5876    1.3267 H         1 <0>         0.0000
     21 H8          5.5741   -3.7929    2.7757 H         1 <0>         0.0000
     22 H9          5.7256   -2.1502    5.3939 H         1 <0>         0.0000
@<TRIPOS>BOND
     1    1    2 ar
     2    1    5 ar
     3    1   14 1
     4    2    6 ar
     5    2   15 1
     6    3    4 ar
     7    3    6 ar
     8    3   16 1
     9    4    5 ar
    10    4    7 1
    11    5   12 1
    12    6   13 1
    13    7    9 2
    14    7   10 1
    15    8   12 1
    16    8   17 1
    17    8   18 1
    18    8   19 1
    19    9   11 1
    20   10   20 1
    21   10   21 1
    22   11   22 1
