@<TRIPOS>MOLECULE
*****
   22    23     0     0     0
SMALL
NO_CHARGES

@<TRIPOS>ATOM
      1 C1          0.1242    3.4927    2.0114 C.ar      1 <0>         0.0000
      2 C2         -0.7136    1.9505    3.6841 C.ar      1 <0>         0.0000
      3 C3          0.0339    1.0843    1.4938 C.ar      1 <0>         0.0000
      4 C4          0.3360    2.4199    1.1428 C.ar      1 <0>         0.0000
      5 C5         -0.4007    3.2426    3.2776 C.ar      1 <0>         0.0000
      6 C6         -0.4904    0.9028    2.7850 C.ar      1 <0>         0.0000
      7 C7          1.7059   -0.2491   -0.0428 C.3       1 <0>         0.0000
      8 C8          1.0857   -0.0491   -1.4479 C.3       1 <0>         0.0000
      9 C9          0.2687   -0.0613    0.5371 C.3       1 <0>         0.0000
     10 N1         -0.2835    0.0545   -0.8545 N.3       1 <0>         0.0000
     11 O1          0.8558    2.6385   -0.1110 O.3       1 <0>         0.0000
     12 Cl1        -0.6689    4.5830    4.3740 Cl        1 <0>         0.0000
     13 Cl2        -0.8977   -0.7056    3.3739 Cl        1 <0>         0.0000
     14 H1          0.3648    4.5087    1.7089 H         1 <0>         0.0000
     15 H2         -1.1186    1.7571    4.6702 H         1 <0>         0.0000
     16 H3          2.1297   -1.2375    0.1498 H         1 <0>         0.0000
     17 H4          2.4254    0.5152    0.2534 H         1 <0>         0.0000
     18 H5          1.4257    0.8584   -1.9564 H         1 <0>         0.0000
     19 H6          1.1768   -0.8991   -2.1322 H         1 <0>         0.0000
     20 H7         -0.1074   -0.9706    1.0039 H         1 <0>         0.0000
     21 H8         -0.7068    0.9617   -1.0302 H         1 <0>         0.0000
     22 H9          1.0372    3.5859   -0.2186 H         1 <0>         0.0000
@<TRIPOS>BOND
     1    1    4 ar
     2    1    5 ar
     3    1   14 1
     4    2    5 ar
     5    2    6 ar
     6    2   15 1
     7    3    4 ar
     8    3    6 ar
     9    3    9 1
    10    4   11 1
    11    5   12 1
    12    6   13 1
    13    7    8 1
    14    7    9 1
    15    7   16 1
    16    7   17 1
    17    8   10 1
    18    8   18 1
    19    8   19 1
    20    9   10 1
    21    9   20 1
    22   10   21 1
    23   11   22 1
