@<TRIPOS>MOLECULE
*****
   27    29     0     0     0
SMALL
NO_CHARGES

@<TRIPOS>ATOM
      1 C1          0.2450    1.7342    1.2198 C.ar      1 <0>         0.0000
      2 C2         -0.1005    2.4967    2.3526 C.ar      1 <0>         0.0000
      3 C3          2.1272   -2.4710   -2.4604 C.2       1 <0>         0.0000
      4 C4          1.6886   -3.4173   -3.4318 C.2       1 <0>         0.0000
      5 C5         -0.8920   -0.2440    2.1161 C.ar      1 <0>         0.0000
      6 C6         -0.1516    0.3988    1.1016 C.ar      1 <0>         0.0000
      7 C7         -0.8136    1.8524    3.3454 C.ar      1 <0>         0.0000
      8 C8         -1.1930    0.5128    3.2294 C.ar      1 <0>         0.0000
      9 C9          1.2792   -2.3971   -1.3830 C.2       1 <0>         0.0000
     10 C10         0.5208   -4.0317   -3.0505 C.2       1 <0>         0.0000
     11 C11        -1.7834    1.2319    5.2639 C.3       1 <0>         0.0000
     12 N1          0.1663   -0.3593   -0.0815 N.pl3     1 <0>         0.0000
     13 O1          2.7847   -0.6380   -0.2037 O.2       1 <0>         0.0000
     14 O2          1.3596   -2.1626    1.2617 O.2       1 <0>         0.0000
     15 O3         -1.2901    2.3669    4.5315 O.3       1 <0>         0.0000
     16 O4         -1.9226    0.1421    4.3378 O.3       1 <0>         0.0000
     17 S1         -0.0744   -3.4821   -1.5112 S.3       1 <0>         0.0000
     18 S2          1.5447   -1.3821    0.0415 S.o2      1 <0>         0.0000
     19 Cl1        -0.3449   -5.2339   -3.9385 Cl        1 <0>         0.0000
     20 H1          0.8413    2.1875    0.4328 H         1 <0>         0.0000
     21 H2          0.1910    3.5374    2.4476 H         1 <0>         0.0000
     22 H3          3.0285   -1.8724   -2.5335 H         1 <0>         0.0000
     23 H4          2.2038   -3.6373   -4.3598 H         1 <0>         0.0000
     24 H5         -1.1929   -1.2801    2.0169 H         1 <0>         0.0000
     25 H6         -1.0568    0.9582    6.0408 H         1 <0>         0.0000
     26 H7         -2.7599    1.4725    5.6887 H         1 <0>         0.0000
     27 H8          0.3133    0.2486   -0.8884 H         1 <0>         0.0000
@<TRIPOS>BOND
     1    1    2 ar
     2    1    6 ar
     3    1   20 1
     4    2    7 ar
     5    2   21 1
     6    3    4 1
     7    3    9 2
     8    3   22 1
     9    4   10 2
    10    4   23 1
    11    5    6 ar
    12    5    8 ar
    13    5   24 1
    14    6   12 1
    15    7    8 ar
    16    7   15 1
    17    8   16 1
    18    9   17 1
    19    9   18 1
    20   10   17 1
    21   10   19 1
    22   11   15 1
    23   11   16 1
    24   11   25 1
    25   11   26 1
    26   12   18 1
    27   12   27 1
    28   13   18 2
    29   14   18 2
