@<TRIPOS>MOLECULE
*****
   50    52     0     0     0
SMALL
NO_CHARGES

@<TRIPOS>ATOM
      1 C1          1.5276    0.2172   -2.0914 C.2       1 <0>         0.0000
      2 C2         -1.9064    1.2490   -3.7136 C.2       1 <0>         0.0000
      3 C3          3.1590   -1.4937    1.6215 C.3       1 <0>         0.0000
      4 C4          1.8001   -2.0286    1.1626 C.3       1 <0>         0.0000
      5 C5          3.2352    0.0205    1.4025 C.3       1 <0>         0.0000
      6 C6          1.4835   -1.6515   -0.2948 C.3       1 <0>         0.0000
      7 C7          2.9496    0.3863   -0.0588 C.3       1 <0>         0.0000
      8 C8         -2.7977   -1.6665   -4.0102 C.3       1 <0>         0.0000
      9 C9         -3.2763   -1.5209   -5.4639 C.3       1 <0>         0.0000
     10 C10        -0.5648   -1.2265   -2.6293 C.3       1 <0>         0.0000
     11 C11         0.3652    0.3741   -4.2250 C.3       1 <0>         0.0000
     12 C12        -1.5857    0.1603   -5.9787 C.3       1 <0>         0.0000
     13 C13        -1.3396   -1.2322   -3.9502 C.3       1 <0>         0.0000
     14 C14         1.5837   -0.1303   -0.5812 C.3       1 <0>         0.0000
     15 C15        -1.1330    0.1824   -4.5162 C.3       1 <0>         0.0000
     16 C16         0.4306    0.6533    0.0909 C.3       1 <0>         0.0000
     17 C17        -3.5606   -0.0429   -7.3567 C.3       1 <0>         0.0000
     18 N1          0.5144   -0.2493   -2.8959 N.am      1 <0>         0.0000
     19 N2         -3.0073   -0.1835   -6.0149 N.3       1 <0>         0.0000
     20 O1          2.3544    0.9965   -2.5794 O.2       1 <0>         0.0000
     21 O2         -2.4506    1.0625   -2.6491 O.2       1 <0>         0.0000
     22 O3         -1.8904    2.5081   -4.2348 O.3       1 <0>         0.0000
     23 H1          3.9562   -1.9829    1.0443 H         1 <0>         0.0000
     24 H2          3.3313   -1.7444    2.6750 H         1 <0>         0.0000
     25 H3          1.7639   -3.1204    1.2592 H         1 <0>         0.0000
     26 H4          1.0150   -1.6376    1.8221 H         1 <0>         0.0000
     27 H5          2.5257    0.5236    2.0720 H         1 <0>         0.0000
     28 H6          4.2290    0.3953    1.6744 H         1 <0>         0.0000
     29 H7          2.1822   -2.1802   -0.9578 H         1 <0>         0.0000
     30 H8          0.4847   -2.0236   -0.5240 H         1 <0>         0.0000
     31 H9          3.0011    1.4682   -0.2006 H         1 <0>         0.0000
     32 H10         3.7406   -0.0344   -0.6897 H         1 <0>         0.0000
     33 H11        -3.4080   -1.0531   -3.3453 H         1 <0>         0.0000
     34 H12        -2.9074   -2.7133   -3.7041 H         1 <0>         0.0000
     35 H13        -2.7920   -2.3004   -6.0863 H         1 <0>         0.0000
     36 H14        -4.3558   -1.6920   -5.5184 H         1 <0>         0.0000
     37 H15        -1.1962   -0.9130   -1.7969 H         1 <0>         0.0000
     38 H16        -0.1584   -2.2183   -2.4229 H         1 <0>         0.0000
     39 H17         0.9750   -0.1378   -4.9817 H         1 <0>         0.0000
     40 H18         0.7012    1.4107   -4.1778 H         1 <0>         0.0000
     41 H19        -1.4529    1.1240   -6.4871 H         1 <0>         0.0000
     42 H20        -0.9588   -0.5641   -6.5347 H         1 <0>         0.0000
     43 H21        -0.7799   -1.8877   -4.6332 H         1 <0>         0.0000
     44 H22         0.4402    0.5146    1.1747 H         1 <0>         0.0000
     45 H23        -0.5517    0.3434   -0.2737 H         1 <0>         0.0000
     46 H24         0.5346    1.7242   -0.1092 H         1 <0>         0.0000
     47 H25        -3.4094    0.9805   -7.7148 H         1 <0>         0.0000
     48 H26        -4.6374   -0.2345   -7.3320 H         1 <0>         0.0000
     49 H27        -3.1042   -0.7367   -8.0876 H         1 <0>         0.0000
     50 H28        -1.4235    2.5140   -5.0865 H         1 <0>         0.0000
@<TRIPOS>BOND
     1    1   14 1
     2    1   18 am
     3    1   20 2
     4    2   15 1
     5    2   21 2
     6    2   22 1
     7    3    5 1
     8    3    4 1
     9    3   23 1
    10    3   24 1
    11    4    6 1
    12    4   25 1
    13    4   26 1
    14    5    7 1
    15    5   27 1
    16    5   28 1
    17    6   14 1
    18    6   29 1
    19    6   30 1
    20    7   14 1
    21    7   31 1
    22    7   32 1
    23    8    9 1
    24    8   13 1
    25    8   33 1
    26    8   34 1
    27    9   19 1
    28    9   35 1
    29    9   36 1
    30   10   13 1
    31   10   18 1
    32   10   37 1
    33   10   38 1
    34   11   15 1
    35   11   18 1
    36   11   39 1
    37   11   40 1
    38   12   15 1
    39   12   19 1
    40   12   41 1
    41   12   42 1
    42   13   15 1
    43   13   43 1
    44   14   16 1
    45   16   44 1
    46   16   45 1
    47   16   46 1
    48   17   19 1
    49   17   47 1
    50   17   48 1
    51   17   49 1
    52   22   50 1
