@<TRIPOS>MOLECULE
*****
   29    31     0     0     0
SMALL
NO_CHARGES

@<TRIPOS>ATOM
      1 C1          4.4836   -3.7743   -7.9182 C.ar      1 <0>         0.0000
      2 C2          2.6419    1.5200   -4.9925 C.ar      1 <0>         0.0000
      3 C3          3.0818    0.6028   -4.0202 C.ar      1 <0>         0.0000
      4 C4          5.3832   -3.9115   -6.8557 C.ar      1 <0>         0.0000
      5 C5          3.1516   -4.1497   -7.7551 C.ar      1 <0>         0.0000
      6 C6          1.8661    1.1210   -6.0887 C.ar      1 <0>         0.0000
      7 C7          2.7596   -0.7610   -4.1050 C.ar      1 <0>         0.0000
      8 C8          4.9492   -4.4287   -5.6328 C.ar      1 <0>         0.0000
      9 C9          2.6895   -4.6720   -6.5334 C.ar      1 <0>         0.0000
     10 C10         1.5387   -0.2344   -6.1851 C.ar      1 <0>         0.0000
     11 C11         1.9880   -1.1235   -5.1948 C.ar      1 <0>         0.0000
     12 C12         3.6142   -4.8051   -5.4872 C.ar      1 <0>         0.0000
     13 C13         0.8500   -2.1789   -6.7085 C.2       1 <0>         0.0000
     14 C14         1.2846   -5.1201   -6.3961 C.2       1 <0>         0.0000
     15 N1          0.8158   -0.9536   -7.1485 N.2       1 <0>         0.0000
     16 N2          0.1950   -4.5494   -6.7775 N.2       1 <0>         0.0000
     17 N3          0.2603   -3.2656   -7.3212 N.pl3     1 <0>         0.0000
     18 O1          1.5210   -2.3863   -5.5329 O.3       1 <0>         0.0000
     19 Br1         3.0357   -5.4475   -3.7735 Br        1 <0>         0.0000
     20 H1          4.8183   -3.3720   -8.8700 H         1 <0>         0.0000
     21 H2          2.9135    2.5671   -4.8890 H         1 <0>         0.0000
     22 H3          3.6819    0.9551   -3.1862 H         1 <0>         0.0000
     23 H4          6.4215   -3.6138   -6.9725 H         1 <0>         0.0000
     24 H5          2.4494   -4.0377   -8.5750 H         1 <0>         0.0000
     25 H6          1.5318    1.8316   -6.8386 H         1 <0>         0.0000
     26 H7          3.0895   -1.4845   -3.3661 H         1 <0>         0.0000
     27 H8          5.6364   -4.5308   -4.7993 H         1 <0>         0.0000
     28 H9          1.1220   -6.0997   -5.9496 H         1 <0>         0.0000
     29 H10        -0.6115   -3.0188   -7.7752 H         1 <0>         0.0000
@<TRIPOS>BOND
     1    1    4 ar
     2    1    5 ar
     3    1   20 1
     4    2    3 ar
     5    2    6 ar
     6    2   21 1
     7    3    7 ar
     8    3   22 1
     9    4    8 ar
    10    4   23 1
    11    5    9 ar
    12    5   24 1
    13    6   10 ar
    14    6   25 1
    15    7   11 ar
    16    7   26 1
    17    8   12 ar
    18    8   27 1
    19    9   12 ar
    20    9   14 1
    21   10   11 ar
    22   10   15 1
    23   11   18 1
    24   12   19 1
    25   13   15 2
    26   13   17 1
    27   13   18 1
    28   14   16 2
    29   14   28 1
    30   16   17 1
    31   17   29 1
