@<TRIPOS>MOLECULE
*****
   27    29     0     0     0
SMALL
NO_CHARGES

@<TRIPOS>ATOM
      1 C1          0.1082    2.2579    0.8957 C.ar      1 <0>         0.0000
      2 C2         -0.3956    2.9035    2.0405 C.ar      1 <0>         0.0000
      3 C3         -2.6830   -1.2393   -1.3414 C.2       1 <0>         0.0000
      4 C4         -3.9768   -1.2856   -0.7464 C.2       1 <0>         0.0000
      5 C5         -0.5587    0.0650    1.7671 C.ar      1 <0>         0.0000
      6 C6          0.0205    0.8697    0.7588 C.ar      1 <0>         0.0000
      7 C7         -0.9557    2.1061    3.0209 C.ar      1 <0>         0.0000
      8 C8         -1.0266    0.7179    2.8895 C.ar      1 <0>         0.0000
      9 C9         -2.1362    0.0205   -1.3058 C.2       1 <0>         0.0000
     10 C10        -4.3624   -0.0536   -0.2742 C.2       1 <0>         0.0000
     11 C11        -2.0939    1.2956    4.7687 C.3       1 <0>         0.0000
     12 N1          0.4813    0.2620   -0.4526 N.pl3     1 <0>         0.0000
     13 O1         -0.5192    1.8791   -2.1523 O.2       1 <0>         0.0000
     14 O2         -0.0363   -0.5705   -2.7687 O.2       1 <0>         0.0000
     15 O3         -1.4751    2.4801    4.2416 O.3       1 <0>         0.0000
     16 O4         -1.5972    0.1725    4.0174 O.3       1 <0>         0.0000
     17 S1         -3.1788    1.1883   -0.5487 S.3       1 <0>         0.0000
     18 S2         -0.5002    0.4552   -1.8367 S.o2      1 <0>         0.0000
     19 Cl1        -5.8558    0.3236    0.5105 Cl        1 <0>         0.0000
     20 H1          0.5518    2.8343    0.0921 H         1 <0>         0.0000
     21 H2         -0.3358    3.9810    2.1533 H         1 <0>         0.0000
     22 H3         -2.1765   -2.0862   -1.7920 H         1 <0>         0.0000
     23 H4         -4.5961   -2.1726   -0.6770 H         1 <0>         0.0000
     24 H5         -0.6523   -1.0111    1.6558 H         1 <0>         0.0000
     25 H6         -1.8178    1.1786    5.8182 H         1 <0>         0.0000
     26 H7         -3.1823    1.3638    4.6378 H         1 <0>         0.0000
     27 H8          0.7082   -0.7272   -0.3613 H         1 <0>         0.0000
@<TRIPOS>BOND
     1    1    2 ar
     2    1    6 ar
     3    1   20 1
     4    2    7 ar
     5    2   21 1
     6    3    4 1
     7    3    9 2
     8    3   22 1
     9    4   10 2
    10    4   23 1
    11    5    6 ar
    12    5    8 ar
    13    5   24 1
    14    6   12 1
    15    7    8 ar
    16    7   15 1
    17    8   16 1
    18    9   17 1
    19    9   18 1
    20   10   17 1
    21   10   19 1
    22   11   15 1
    23   11   16 1
    24   11   25 1
    25   11   26 1
    26   12   18 1
    27   12   27 1
    28   13   18 2
    29   14   18 2
