@<TRIPOS>MOLECULE
*****
   27    28     0     0     0
SMALL
NO_CHARGES

@<TRIPOS>ATOM
      1 C1          2.7116   -0.3999    2.2868 C.ar      1 <0>         0.0000
      2 C2          3.0372   -0.2279   -0.1000 C.ar      1 <0>         0.0000
      3 C3          1.7583    0.6186    2.2403 C.ar      1 <0>         0.0000
      4 C4          2.0867    0.7903   -0.1678 C.ar      1 <0>         0.0000
      5 C5          3.3638   -0.8367    1.1231 C.ar      1 <0>         0.0000
      6 C6          1.4604    1.2057    1.0094 C.ar      1 <0>         0.0000
      7 C7          2.3268    6.5532    3.0552 C.2       1 <0>         0.0000
      8 C8          1.3465    4.6437    1.9929 C.2       1 <0>         0.0000
      9 C9          1.3831    6.0863    4.1510 C.3       1 <0>         0.0000
     10 C10         4.3684   -1.9628    1.1781 C.3       1 <0>         0.0000
     11 N1          1.2897    3.8722    0.9645 N.2       1 <0>         0.0000
     12 N2          2.2198    5.7172    1.9566 N.am      1 <0>         0.0000
     13 O1          3.0721    7.5111    3.1218 O.2       1 <0>         0.0000
     14 O2         -0.3826    2.5239   -0.3690 O.2       1 <0>         0.0000
     15 O3         -0.5440    2.4835    2.1748 O.2       1 <0>         0.0000
     16 S1          0.4761    4.6059    3.5528 S.3       1 <0>         0.0000
     17 S2          0.2607    2.5269    0.9414 S.o2      1 <0>         0.0000
     18 H1          2.9474   -0.8654    3.2409 H         1 <0>         0.0000
     19 H2          3.5304   -0.5575   -1.0114 H         1 <0>         0.0000
     20 H3          1.2417    0.9474    3.1366 H         1 <0>         0.0000
     21 H4          1.8245    1.2534   -1.1139 H         1 <0>         0.0000
     22 H5          1.9636    5.8501    5.0455 H         1 <0>         0.0000
     23 H6          0.6844    6.8911    4.3890 H         1 <0>         0.0000
     24 H7          3.8749   -2.9275    1.0100 H         1 <0>         0.0000
     25 H8          5.1380   -1.8499    0.4093 H         1 <0>         0.0000
     26 H9          4.8622   -2.0115    2.1527 H         1 <0>         0.0000
     27 H10         2.7805    5.8710    1.1236 H         1 <0>         0.0000
@<TRIPOS>BOND
     1    1    3 ar
     2    1    5 ar
     3    1   18 1
     4    2    4 ar
     5    2    5 ar
     6    2   19 1
     7    3    6 ar
     8    3   20 1
     9    4    6 ar
    10    4   21 1
    11    5   10 1
    12    6   17 1
    13    7    9 1
    14    7   12 am
    15    7   13 2
    16    8   11 2
    17    8   12 1
    18    8   16 1
    19    9   16 1
    20    9   22 1
    21    9   23 1
    22   10   24 1
    23   10   25 1
    24   10   26 1
    25   11   17 1
    26   12   27 1
    27   14   17 2
    28   15   17 2
