@<TRIPOS>MOLECULE
*****
   25    26     0     0     0
SMALL
NO_CHARGES

@<TRIPOS>ATOM
      1 C1         -0.6729   -2.0517   -1.9400 C.ar      1 <0>         0.0000
      2 C2         -0.6894   -2.8861   -0.8212 C.ar      1 <0>         0.0000
      3 C3         -2.0694   -1.2662    0.3438 C.ar      1 <0>         0.0000
      4 C4         -1.3452   -0.8251   -1.9495 C.ar      1 <0>         0.0000
      5 C5         -2.0482   -0.4677   -0.7916 C.ar      1 <0>         0.0000
      6 C6         -1.3841   -2.4817    0.3188 C.ar      1 <0>         0.0000
      7 C7          0.8893    3.6198   -1.5366 C.3       1 <0>         0.0000
      8 C8          0.3271    2.6195   -0.5300 C.3       1 <0>         0.0000
      9 C9          0.3348    1.6344   -2.5910 C.3       1 <0>         0.0000
     10 C10        -1.0809    1.3145   -3.0695 C.3       1 <0>         0.0000
     11 O1          0.5533    3.0295   -2.8017 O.3       1 <0>         0.0000
     12 O2          0.5234    1.3724   -1.2080 O.3       1 <0>         0.0000
     13 O3         -1.3333   -0.1003   -3.1138 O.3       1 <0>         0.0000
     14 F1         -2.7366    0.7057   -0.7551 F         1 <0>         0.0000
     15 Cl1        -1.4067   -3.5092    1.7422 Cl        1 <0>         0.0000
     16 H1         -0.1300   -2.3392   -2.8354 H         1 <0>         0.0000
     17 H2         -0.1609   -3.8334   -0.8330 H         1 <0>         0.0000
     18 H3         -2.6237   -0.9391    1.2171 H         1 <0>         0.0000
     19 H4          0.4268    4.6084   -1.4832 H         1 <0>         0.0000
     20 H5          1.9783    3.7142   -1.4446 H         1 <0>         0.0000
     21 H6          0.8739    2.5789    0.4137 H         1 <0>         0.0000
     22 H7         -0.7385    2.7922   -0.3320 H         1 <0>         0.0000
     23 H8          1.0739    1.0361   -3.1371 H         1 <0>         0.0000
     24 H9         -1.1852    1.6483   -4.1036 H         1 <0>         0.0000
     25 H10        -1.8143    1.8366   -2.4525 H         1 <0>         0.0000
@<TRIPOS>BOND
     1    1    2 ar
     2    1    4 ar
     3    1   16 1
     4    2    6 ar
     5    2   17 1
     6    3    5 ar
     7    3    6 ar
     8    3   18 1
     9    4    5 ar
    10    4   13 1
    11    5   14 1
    12    6   15 1
    13    7    8 1
    14    7   11 1
    15    7   19 1
    16    7   20 1
    17    8   12 1
    18    8   21 1
    19    8   22 1
    20    9   10 1
    21    9   12 1
    22    9   11 1
    23    9   23 1
    24   10   13 1
    25   10   24 1
    26   10   25 1
