@<TRIPOS>MOLECULE
*****
   31    33     0     0     0
SMALL
NO_CHARGES

@<TRIPOS>ATOM
      1 C1         -0.0815   -1.4319    1.7020 C.ar      1 <0>         0.0000
      2 C2         -0.0643   -1.1494    0.3300 C.ar      1 <0>         0.0000
      3 C3         -3.0314   -4.9152    4.7737 C.ar      1 <0>         0.0000
      4 C4         -1.7736   -5.3536    4.3547 C.ar      1 <0>         0.0000
      5 C5          0.1727   -2.7287    2.1414 C.ar      1 <0>         0.0000
      6 C6         -3.9486   -4.4039    3.8499 C.ar      1 <0>         0.0000
      7 C7          0.2125   -2.1609   -0.5879 C.ar      1 <0>         0.0000
      8 C8         -2.3202   -4.7510    2.0667 C.ar      1 <0>         0.0000
      9 C9         -1.4091   -5.2544    3.0058 C.ar      1 <0>         0.0000
     10 C10         0.3995   -3.7623    1.2223 C.ar      1 <0>         0.0000
     11 C11        -3.5717   -4.3452    2.5112 C.ar      1 <0>         0.0000
     12 C12         0.4396   -3.4782   -0.1557 C.ar      1 <0>         0.0000
     13 C13        -0.0704   -5.7969    2.5929 C.2       1 <0>         0.0000
     14 C14         1.7609   -5.7676    0.9637 C.3       1 <0>         0.0000
     15 C15         1.3159   -6.1575   -0.4407 C.3       1 <0>         0.0000
     16 N1          0.6643   -5.0882    1.6582 N.am      1 <0>         0.0000
     17 O1          0.3358   -6.8634    3.0555 O.2       1 <0>         0.0000
     18 F1         -4.4618   -3.8694    1.6026 F         1 <0>         0.0000
     19 S1          0.7250   -4.7047   -1.4111 S.3       1 <0>         0.0000
     20 H1         -0.2757   -0.6443    2.4242 H         1 <0>         0.0000
     21 H2         -0.2501   -0.1394   -0.0247 H         1 <0>         0.0000
     22 H3         -3.3069   -4.9791    5.8227 H         1 <0>         0.0000
     23 H4         -1.0685   -5.7807    5.0606 H         1 <0>         0.0000
     24 H5          0.1824   -2.9592    3.2021 H         1 <0>         0.0000
     25 H6         -4.9361   -4.0648    4.1476 H         1 <0>         0.0000
     26 H7          0.2463   -1.9360   -1.6510 H         1 <0>         0.0000
     27 H8         -2.0774   -4.6727    1.0125 H         1 <0>         0.0000
     28 H9          2.0199   -6.6586    1.5362 H         1 <0>         0.0000
     29 H10         2.6260   -5.0993    0.9300 H         1 <0>         0.0000
     30 H11         2.1479   -6.5895   -1.0035 H         1 <0>         0.0000
     31 H12         0.5097   -6.8921   -0.3835 H         1 <0>         0.0000
@<TRIPOS>BOND
     1    1    2 ar
     2    1    5 ar
     3    1   20 1
     4    2    7 ar
     5    2   21 1
     6    3    4 ar
     7    3    6 ar
     8    3   22 1
     9    4    9 ar
    10    4   23 1
    11    5   10 ar
    12    5   24 1
    13    6   11 ar
    14    6   25 1
    15    7   12 ar
    16    7   26 1
    17    8    9 ar
    18    8   11 ar
    19    8   27 1
    20    9   13 1
    21   10   12 ar
    22   10   16 1
    23   11   18 1
    24   12   19 1
    25   13   16 am
    26   13   17 2
    27   14   15 1
    28   14   16 1
    29   14   28 1
    30   14   29 1
    31   15   19 1
    32   15   30 1
    33   15   31 1
