@<TRIPOS>MOLECULE
*****
   40    43     0     0     0
SMALL
NO_CHARGES

@<TRIPOS>ATOM
      1 C1         -2.4202    0.0420    4.6919 C.1       1 <0>         0.0000
      2 C2         -2.1567   -8.6584    0.5390 C.ar      1 <0>         0.0000
      3 C3         -2.1509   -8.0045   -0.6982 C.ar      1 <0>         0.0000
      4 C4         -1.7997   -7.9598    1.6966 C.ar      1 <0>         0.0000
      5 C5         -1.8057   -6.6547   -0.7804 C.ar      1 <0>         0.0000
      6 C6         -1.4392   -6.6122    1.6245 C.ar      1 <0>         0.0000
      7 C7         -1.3748   -0.9121    4.5267 C.2       1 <0>         0.0000
      8 C8         -0.8882   -2.3866    0.5246 C.2       1 <0>         0.0000
      9 C9         -0.8247   -1.6991    5.5893 C.2       1 <0>         0.0000
     10 C10        -1.4590   -5.9644    0.3855 C.ar      1 <0>         0.0000
     11 C11         0.1876   -2.5168    5.1815 C.2       1 <0>         0.0000
     12 C12        -0.1420   -2.8690   -0.5953 C.2       1 <0>         0.0000
     13 C13        -0.7815   -1.1830    3.2947 C.2       1 <0>         0.0000
     14 C14        -1.4989   -3.5298    1.0377 C.2       1 <0>         0.0000
     15 C15        -1.0230   -0.9939    0.9477 C.2       1 <0>         0.0000
     16 C16        -1.0978   -1.8592    7.0626 C.3       1 <0>         0.0000
     17 C17         0.7652   -3.3522    6.2913 C.3       1 <0>         0.0000
     18 C18         0.1536   -2.6543    7.5471 C.3       1 <0>         0.0000
     19 C19         0.7235   -2.0759   -1.5241 C.3       1 <0>         0.0000
     20 N1         -3.2791    0.8108    4.8719 N.1       1 <0>         0.0000
     21 N2         -0.2588   -4.1867   -0.7251 N.2       1 <0>         0.0000
     22 N3         -1.0568   -0.4992    2.1367 N.2       1 <0>         0.0000
     23 N4         -1.0957   -4.5904    0.2847 N.pl3     1 <0>         0.0000
     24 S1          0.4913   -2.4102    3.4754 S.3       1 <0>         0.0000
     25 Cl1        -2.6829   -3.6469    2.2762 Cl        1 <0>         0.0000
     26 H1         -2.4314   -9.7079    0.5994 H         1 <0>         0.0000
     27 H2         -2.4210   -8.5444   -1.6015 H         1 <0>         0.0000
     28 H3         -1.7869   -8.4659    2.6579 H         1 <0>         0.0000
     29 H4         -1.7936   -6.1321   -1.7309 H         1 <0>         0.0000
     30 H5         -1.1335   -6.0751    2.5159 H         1 <0>         0.0000
     31 H6         -1.1234   -0.2655    0.1394 H         1 <0>         0.0000
     32 H7         -1.2104   -0.9041    7.5846 H         1 <0>         0.0000
     33 H8         -2.0258   -2.4224    7.2231 H         1 <0>         0.0000
     34 H9          0.4380   -4.3969    6.2060 H         1 <0>         0.0000
     35 H10         1.8598   -3.3580    6.3128 H         1 <0>         0.0000
     36 H11         0.8874   -1.9503    7.9503 H         1 <0>         0.0000
     37 H12        -0.0868   -3.3687    8.3388 H         1 <0>         0.0000
     38 H13         1.5445   -1.5932   -0.9840 H         1 <0>         0.0000
     39 H14         1.1459   -2.7333   -2.2867 H         1 <0>         0.0000
     40 H15         0.1490   -1.2871   -2.0223 H         1 <0>         0.0000
@<TRIPOS>BOND
     1    1    7 1
     2    1   20 3
     3    2    4 ar
     4    2    3 ar
     5    2   26 1
     6    3    5 ar
     7    3   27 1
     8    4    6 ar
     9    4   28 1
    10    5   10 ar
    11    5   29 1
    12    6   10 ar
    13    6   30 1
    14    7    9 1
    15    7   13 2
    16    8   12 1
    17    8   14 2
    18    8   15 1
    19    9   11 2
    20    9   16 1
    21   10   23 1
    22   11   17 1
    23   11   24 1
    24   12   19 1
    25   12   21 2
    26   13   22 1
    27   13   24 1
    28   14   23 1
    29   14   25 1
    30   15   22 2
    31   15   31 1
    32   16   18 1
    33   16   32 1
    34   16   33 1
    35   17   18 1
    36   17   34 1
    37   17   35 1
    38   18   36 1
    39   18   37 1
    40   19   38 1
    41   19   39 1
    42   19   40 1
    43   21   23 1
