@<TRIPOS>MOLECULE
*****
   48    51     0     0     0
SMALL
NO_CHARGES

@<TRIPOS>ATOM
      1 C1         -6.5015   -3.8168    2.4657 C.2       1 <0>         0.0000
      2 C2         -6.4360   -2.7794    1.5763 C.2       1 <0>         0.0000
      3 C3         -4.3218   -3.4528    2.5867 C.2       1 <0>         0.0000
      4 C4          0.4487   -0.3990    2.1864 C.2       1 <0>         0.0000
      5 C5          2.1446   -1.8827    4.0171 C.3       1 <0>         0.0000
      6 C6          0.8519   -1.2761    4.5518 C.3       1 <0>         0.0000
      7 C7         -1.4410   -0.3606    3.8951 C.3       1 <0>         0.0000
      8 C8          3.5034    1.1770    1.0639 C.3       1 <0>         0.0000
      9 C9          2.8290   -0.8913   -0.1999 C.3       1 <0>         0.0000
     10 C10         2.7723   -0.9176    3.0210 C.3       1 <0>         0.0000
     11 C11        -2.4735   -1.4728    4.0803 C.3       1 <0>         0.0000
     12 C12        -0.7120   -2.4890    2.9412 C.3       1 <0>         0.0000
     13 C13         4.0150    1.7268   -0.2716 C.3       1 <0>         0.0000
     14 C14         3.4010   -0.2222   -1.4529 C.3       1 <0>         0.0000
     15 C15         2.3677    0.1799    0.7997 C.3       1 <0>         0.0000
     16 C16        -0.1621   -1.1000    3.4137 C.3       1 <0>         0.0000
     17 C17        -2.8742   -3.6291    2.9539 C.3       1 <0>         0.0000
     18 N1         -5.3002   -4.1899    3.0357 N.2       1 <0>         0.0000
     19 N2          1.8151   -0.4181    2.0276 N.am      1 <0>         0.0000
     20 N3         -2.1678   -2.3613    2.9587 N.3       1 <0>         0.0000
     21 O1         -0.2915    0.1038    1.3359 O.2       1 <0>         0.0000
     22 O2          4.4582    0.6836   -1.1370 O.3       1 <0>         0.0000
     23 S1         -4.7988   -2.2232    1.4285 S.3       1 <0>         0.0000
     24 H1         -7.4083   -4.3408    2.7487 H         1 <0>         0.0000
     25 H2         -7.2441   -2.3133    1.0274 H         1 <0>         0.0000
     26 H3          2.8617   -2.0705    4.8233 H         1 <0>         0.0000
     27 H4          1.9424   -2.8451    3.5333 H         1 <0>         0.0000
     28 H5          0.4135   -1.8982    5.3402 H         1 <0>         0.0000
     29 H6          1.0714   -0.2995    5.0028 H         1 <0>         0.0000
     30 H7         -1.7776    0.3213    3.1135 H         1 <0>         0.0000
     31 H8         -1.2610    0.2053    4.8136 H         1 <0>         0.0000
     32 H9          4.3417    0.6960    1.5794 H         1 <0>         0.0000
     33 H10         3.1480    2.0011    1.6940 H         1 <0>         0.0000
     34 H11         1.9809   -1.5289   -0.4731 H         1 <0>         0.0000
     35 H12         3.6012   -1.5287    0.2472 H         1 <0>         0.0000
     36 H13         3.2063   -0.0690    3.5679 H         1 <0>         0.0000
     37 H14         3.5954   -1.4070    2.4909 H         1 <0>         0.0000
     38 H15        -2.3446   -1.9861    5.0534 H         1 <0>         0.0000
     39 H16        -3.5051   -1.1152    4.0260 H         1 <0>         0.0000
     40 H17        -0.3705   -2.7719    1.9405 H         1 <0>         0.0000
     41 H18        -0.3660   -3.2680    3.6460 H         1 <0>         0.0000
     42 H19         3.2225    2.3106   -0.7678 H         1 <0>         0.0000
     43 H20         4.8766    2.3824   -0.1210 H         1 <0>         0.0000
     44 H21         3.8288   -0.9607   -2.1357 H         1 <0>         0.0000
     45 H22         2.6009    0.3155   -1.9872 H         1 <0>         0.0000
     46 H23         1.5358    0.7233    0.3480 H         1 <0>         0.0000
     47 H24        -2.8311   -4.1606    3.9210 H         1 <0>         0.0000
     48 H25        -2.4025   -4.2805    2.2075 H         1 <0>         0.0000
@<TRIPOS>BOND
     1    1    2 2
     2    1   18 1
     3    1   24 1
     4    2   23 1
     5    2   25 1
     6    3   17 1
     7    3   18 2
     8    3   23 1
     9    4   16 1
    10    4   19 am
    11    4   21 2
    12    5    6 1
    13    5   10 1
    14    5   26 1
    15    5   27 1
    16    6   16 1
    17    6   28 1
    18    6   29 1
    19    7   11 1
    20    7   16 1
    21    7   30 1
    22    7   31 1
    23    8   13 1
    24    8   15 1
    25    8   32 1
    26    8   33 1
    27    9   14 1
    28    9   15 1
    29    9   34 1
    30    9   35 1
    31   10   19 1
    32   10   36 1
    33   10   37 1
    34   11   20 1
    35   11   38 1
    36   11   39 1
    37   12   16 1
    38   12   20 1
    39   12   40 1
    40   12   41 1
    41   13   22 1
    42   13   42 1
    43   13   43 1
    44   14   22 1
    45   14   44 1
    46   14   45 1
    47   15   19 1
    48   15   46 1
    49   17   20 1
    50   17   47 1
    51   17   48 1
