@<TRIPOS>MOLECULE
*****
   34    36     0     0     0
SMALL
NO_CHARGES

@<TRIPOS>ATOM
      1 C1         -0.6362    0.4652   -2.2386 C.ar      1 <0>         0.0000
      2 C2         -0.0607   -0.3436   -1.2495 C.ar      1 <0>         0.0000
      3 C3         -5.1630   -2.3251   -7.7349 C.ar      1 <0>         0.0000
      4 C4         -4.3295   -1.9809   -6.6685 C.ar      1 <0>         0.0000
      5 C5         -6.5344   -2.4979   -7.5286 C.ar      1 <0>         0.0000
      6 C6         -1.5536   -0.0828   -3.1287 C.ar      1 <0>         0.0000
      7 C7         -0.4153   -1.6859   -1.1619 C.ar      1 <0>         0.0000
      8 C8         -6.2592   -1.9400   -5.2029 C.ar      1 <0>         0.0000
      9 C9         -4.8796   -1.7927   -5.3931 C.ar      1 <0>         0.0000
     10 C10        -7.1015   -2.3098   -6.2580 C.ar      1 <0>         0.0000
     11 C11        -1.9268   -1.4329   -3.0437 C.ar      1 <0>         0.0000
     12 C12        -1.3547   -2.2447   -2.0469 C.ar      1 <0>         0.0000
     13 C13        -4.0494   -1.3156   -4.2353 C.2       1 <0>         0.0000
     14 C14        -2.6458   -3.3805   -4.3502 C.3       1 <0>         0.0000
     15 C15        -2.9203   -4.2756   -3.1440 C.3       1 <0>         0.0000
     16 C16        -8.5825   -2.5118   -6.0342 C.3       1 <0>         0.0000
     17 N1         -2.8375   -1.9682   -4.0082 N.am      1 <0>         0.0000
     18 O1         -4.4220   -0.3590   -3.5626 O.2       1 <0>         0.0000
     19 S1         -1.7181   -3.9701   -1.8021 S.3       1 <0>         0.0000
     20 H1         -0.3672    1.5146   -2.3182 H         1 <0>         0.0000
     21 H2          0.6621    0.0691   -0.5510 H         1 <0>         0.0000
     22 H3         -4.7442   -2.4528   -8.7298 H         1 <0>         0.0000
     23 H4         -3.2642   -1.8361   -6.8286 H         1 <0>         0.0000
     24 H5         -7.1742   -2.7703   -8.3654 H         1 <0>         0.0000
     25 H6         -2.0055    0.5341   -3.8975 H         1 <0>         0.0000
     26 H7          0.0301   -2.3161   -0.3957 H         1 <0>         0.0000
     27 H8         -6.6715   -1.7479   -4.2156 H         1 <0>         0.0000
     28 H9         -1.6213   -3.5247   -4.7070 H         1 <0>         0.0000
     29 H10        -3.3275   -3.6504   -5.1536 H         1 <0>         0.0000
     30 H11        -3.9381   -4.1096   -2.7811 H         1 <0>         0.0000
     31 H12        -2.8123   -5.3294   -3.4156 H         1 <0>         0.0000
     32 H13        -8.8137   -3.5728   -5.8804 H         1 <0>         0.0000
     33 H14        -8.9302   -1.9673   -5.1520 H         1 <0>         0.0000
     34 H15        -9.1657   -2.1719   -6.8955 H         1 <0>         0.0000
@<TRIPOS>BOND
     1    1    2 ar
     2    1    6 ar
     3    1   20 1
     4    2    7 ar
     5    2   21 1
     6    3    4 ar
     7    3    5 ar
     8    3   22 1
     9    4    9 ar
    10    4   23 1
    11    5   10 ar
    12    5   24 1
    13    6   11 ar
    14    6   25 1
    15    7   12 ar
    16    7   26 1
    17    8    9 ar
    18    8   10 ar
    19    8   27 1
    20    9   13 1
    21   10   16 1
    22   11   12 ar
    23   11   17 1
    24   12   19 1
    25   13   17 am
    26   13   18 2
    27   14   15 1
    28   14   17 1
    29   14   28 1
    30   14   29 1
    31   15   19 1
    32   15   30 1
    33   15   31 1
    34   16   32 1
    35   16   33 1
    36   16   34 1
