@<TRIPOS>MOLECULE
*****
   48    51     0     0     0
SMALL
NO_CHARGES

@<TRIPOS>ATOM
      1 C1          6.0508   -6.8111    3.5797 C.2       1 <0>         0.0000
      2 C2          6.6289   -6.0491    4.5596 C.2       1 <0>         0.0000
      3 C3          4.1957   -6.3040    4.6806 C.2       1 <0>         0.0000
      4 C4          1.7157   -2.0959    3.0260 C.2       1 <0>         0.0000
      5 C5         -0.1715   -0.8413    4.8809 C.3       1 <0>         0.0000
      6 C6          0.8281   -1.9193    5.3664 C.3       1 <0>         0.0000
      7 C7          0.1238   -3.9070    3.8781 C.3       1 <0>         0.0000
      8 C8          0.0862   -0.5051    0.3434 C.3       1 <0>         0.0000
      9 C9          1.3371    1.1781    1.7395 C.3       1 <0>         0.0000
     10 C10        -0.4033   -0.8955    3.3646 C.3       1 <0>         0.0000
     11 C11         0.5824   -5.2325    4.4890 C.3       1 <0>         0.0000
     12 C12         2.4042   -3.8215    4.7538 C.3       1 <0>         0.0000
     13 C13         0.4306    0.3642   -0.8695 C.3       1 <0>         0.0000
     14 C14         1.6005    1.9419    0.4383 C.3       1 <0>         0.0000
     15 C15         1.1455   -0.3153    1.4386 C.3       1 <0>         0.0000
     16 C16         1.2643   -2.9006    4.2571 C.3       1 <0>         0.0000
     17 C17         2.7314   -6.2442    5.0247 C.3       1 <0>         0.0000
     18 N1          4.6834   -6.9525    3.6585 N.2       1 <0>         0.0000
     19 N2          0.8541   -1.0972    2.6450 N.am      1 <0>         0.0000
     20 N3          2.0313   -5.1731    4.3281 N.3       1 <0>         0.0000
     21 O1          2.7730   -2.3217    2.4341 O.2       1 <0>         0.0000
     22 O2          0.5581    1.7405   -0.5150 O.3       1 <0>         0.0000
     23 S1          5.4083   -5.4717    5.6427 S.3       1 <0>         0.0000
     24 H1          6.5901   -7.2970    2.7736 H         1 <0>         0.0000
     25 H2          7.6742   -5.8060    4.6988 H         1 <0>         0.0000
     26 H3         -1.1385   -0.9459    5.3838 H         1 <0>         0.0000
     27 H4          0.2108    0.1517    5.1367 H         1 <0>         0.0000
     28 H5          1.7273   -1.4349    5.7617 H         1 <0>         0.0000
     29 H6          0.4036   -2.4973    6.1943 H         1 <0>         0.0000
     30 H7          0.0470   -4.0101    2.7921 H         1 <0>         0.0000
     31 H8         -0.8519   -3.5985    4.2617 H         1 <0>         0.0000
     32 H9         -0.9056   -0.2168    0.7111 H         1 <0>         0.0000
     33 H10         0.0406   -1.5593    0.0465 H         1 <0>         0.0000
     34 H11         2.1779    1.3128    2.4293 H         1 <0>         0.0000
     35 H12         0.4424    1.5966    2.2155 H         1 <0>         0.0000
     36 H13        -1.1211   -1.6832    3.1083 H         1 <0>         0.0000
     37 H14        -0.8461    0.0437    3.0288 H         1 <0>         0.0000
     38 H15         0.2837   -5.2891    5.5559 H         1 <0>         0.0000
     39 H16         0.1676   -6.1075    3.9779 H         1 <0>         0.0000
     40 H17         3.3661   -3.5318    4.3319 H         1 <0>         0.0000
     41 H18         2.4667   -3.7590    5.8582 H         1 <0>         0.0000
     42 H19         1.3678    0.0117   -1.3303 H         1 <0>         0.0000
     43 H20        -0.3580    0.3174   -1.6249 H         1 <0>         0.0000
     44 H21         1.6457    3.0196    0.6155 H         1 <0>         0.0000
     45 H22         2.5638    1.6253    0.0061 H         1 <0>         0.0000
     46 H23         2.0941   -0.7129    1.0710 H         1 <0>         0.0000
     47 H24         2.2930   -7.1975    4.7158 H         1 <0>         0.0000
     48 H25         2.6134   -6.1597    6.1232 H         1 <0>         0.0000
@<TRIPOS>BOND
     1    1    2 2
     2    1   18 1
     3    1   24 1
     4    2   23 1
     5    2   25 1
     6    3   17 1
     7    3   18 2
     8    3   23 1
     9    4   16 1
    10    4   19 am
    11    4   21 2
    12    5    6 1
    13    5   10 1
    14    5   26 1
    15    5   27 1
    16    6   16 1
    17    6   28 1
    18    6   29 1
    19    7   11 1
    20    7   16 1
    21    7   30 1
    22    7   31 1
    23    8   13 1
    24    8   15 1
    25    8   32 1
    26    8   33 1
    27    9   14 1
    28    9   15 1
    29    9   34 1
    30    9   35 1
    31   10   19 1
    32   10   36 1
    33   10   37 1
    34   11   20 1
    35   11   38 1
    36   11   39 1
    37   12   16 1
    38   12   20 1
    39   12   40 1
    40   12   41 1
    41   13   22 1
    42   13   42 1
    43   13   43 1
    44   14   22 1
    45   14   44 1
    46   14   45 1
    47   15   19 1
    48   15   46 1
    49   17   20 1
    50   17   47 1
    51   17   48 1
