@<TRIPOS>MOLECULE
*****
   29    30     0     0     0
SMALL
NO_CHARGES

@<TRIPOS>ATOM
      1 C1          2.3637   -3.7059    2.4280 C.1       1 <0>         0.0000
      2 C2         -4.6451    2.0100    1.6454 C.2       1 <0>         0.0000
      3 C3          2.1611   -2.3043    2.4703 C.2       1 <0>         0.0000
      4 C4         -2.7796    0.4467    1.4750 C.2       1 <0>         0.0000
      5 C5         -3.6757    0.2089    2.5119 C.2       1 <0>         0.0000
      6 C6          1.0333   -1.6324    2.0452 C.2       1 <0>         0.0000
      7 C7          2.5040   -0.2192    2.8374 C.2       1 <0>         0.0000
      8 C8         -1.5611   -0.2780    1.1091 C.2       1 <0>         0.0000
      9 C9         -3.6056   -0.8894    3.5296 C.3       1 <0>         0.0000
     10 C10         2.9797    1.1377    3.2104 C.3       1 <0>         0.0000
     11 C11        -0.6699    0.3056    0.0392 C.3       1 <0>         0.0000
     12 N1          2.4613   -4.8681    2.3666 N.1       1 <0>         0.0000
     13 N2         -4.7209    1.1049    2.5834 N.2       1 <0>         0.0000
     14 N3          3.0813   -1.3658    2.9627 N.2       1 <0>         0.0000
     15 N4         -1.3451   -1.3897    1.7419 N.2       1 <0>         0.0000
     16 N5         -0.1186   -2.0483    1.4166 N.pl3     1 <0>         0.0000
     17 O1          1.2277   -0.3078    2.2708 O.3       1 <0>         0.0000
     18 S1         -3.2884    1.8643    0.5792 S.3       1 <0>         0.0000
     19 H1         -5.3674    2.8097    1.5189 H         1 <0>         0.0000
     20 H2         -2.6087   -0.9506    3.9737 H         1 <0>         0.0000
     21 H3         -4.3533   -0.7055    4.3034 H         1 <0>         0.0000
     22 H4         -3.7943   -1.8635    3.0683 H         1 <0>         0.0000
     23 H5          3.0236    1.7944    2.3353 H         1 <0>         0.0000
     24 H6          2.3109    1.5987    3.9446 H         1 <0>         0.0000
     25 H7          3.9775    1.0505    3.6414 H         1 <0>         0.0000
     26 H8         -0.1154    1.1633    0.4306 H         1 <0>         0.0000
     27 H9          0.0437   -0.4379   -0.3150 H         1 <0>         0.0000
     28 H10        -1.2689    0.6510   -0.8082 H         1 <0>         0.0000
     29 H11        -0.2497   -3.0482    1.5504 H         1 <0>         0.0000
@<TRIPOS>BOND
     1    1    3 1
     2    1   12 3
     3    2   13 2
     4    2   18 1
     5    2   19 1
     6    3    6 2
     7    3   14 1
     8    4    5 2
     9    4    8 1
    10    4   18 1
    11    5    9 1
    12    5   13 1
    13    6   16 1
    14    6   17 1
    15    7   10 1
    16    7   14 2
    17    7   17 1
    18    8   11 1
    19    8   15 2
    20    9   20 1
    21    9   21 1
    22    9   22 1
    23   10   23 1
    24   10   24 1
    25   10   25 1
    26   11   26 1
    27   11   27 1
    28   11   28 1
    29   15   16 1
    30   16   29 1
