@<TRIPOS>MOLECULE
*****
   42    45     0     0     0
SMALL
NO_CHARGES

@<TRIPOS>ATOM
      1 C1         -0.6236    3.6844  -11.4310 C.ar      1 <0>         0.0000
      2 C2         -1.3868    4.7220  -10.8851 C.ar      1 <0>         0.0000
      3 C3          0.0491    2.8004  -10.5802 C.ar      1 <0>         0.0000
      4 C4          2.7690    0.7002   -1.0697 C.ar      1 <0>         0.0000
      5 C5         -1.4817    4.8829   -9.5016 C.ar      1 <0>         0.0000
      6 C6         -0.0348    2.9460   -9.1946 C.ar      1 <0>         0.0000
      7 C7          1.7472   -0.0111   -0.4463 C.ar      1 <0>         0.0000
      8 C8          0.1711    0.9639   -2.0287 C.ar      1 <0>         0.0000
      9 C9          2.5338    1.5497   -2.1598 C.ar      1 <0>         0.0000
     10 C10        -0.8016    3.9905   -8.6655 C.ar      1 <0>         0.0000
     11 C11         1.2143    1.6844   -2.6378 C.ar      1 <0>         0.0000
     12 C12         0.4598    0.1414   -0.9542 C.ar      1 <0>         0.0000
     13 C13        -0.5976    3.8216   -5.1951 C.2       1 <0>         0.0000
     14 C14        -1.4845    4.9205   -5.3722 C.2       1 <0>         0.0000
     15 C15        -0.2395    3.1978   -3.8909 C.2       1 <0>         0.0000
     16 C16         3.7070    2.2626   -2.8041 C.3       1 <0>         0.0000
     17 C17         3.2599    3.3116   -3.8208 C.3       1 <0>         0.0000
     18 C18         2.1069    2.7595   -4.6571 C.3       1 <0>         0.0000
     19 C19        -2.1754    5.7709   -4.3567 C.3       1 <0>         0.0000
     20 N1         -0.2484    3.3549   -6.4027 N.2       1 <0>         0.0000
     21 N2         -1.6424    5.1091   -6.6838 N.2       1 <0>         0.0000
     22 N3         -0.8926    4.1484   -7.2561 N.pl3     1 <0>         0.0000
     23 N4          0.9495    2.4952   -3.7847 N.am      1 <0>         0.0000
     24 O1         -1.0455    3.3086   -2.9647 O.2       1 <0>         0.0000
     25 F1         -0.5585   -0.5504   -0.3764 F         1 <0>         0.0000
     26 H1         -0.5547    3.5648  -12.5087 H         1 <0>         0.0000
     27 H2         -1.9138    5.4127  -11.5377 H         1 <0>         0.0000
     28 H3          0.6419    1.9896  -10.9947 H         1 <0>         0.0000
     29 H4          3.7871    0.5999   -0.6998 H         1 <0>         0.0000
     30 H5         -2.0700    5.6814   -9.0652 H         1 <0>         0.0000
     31 H6          0.4775    2.2648   -8.5253 H         1 <0>         0.0000
     32 H7          1.9294   -0.6628    0.4021 H         1 <0>         0.0000
     33 H8         -0.8504    1.0482   -2.3731 H         1 <0>         0.0000
     34 H9          4.3322    2.7191   -2.0293 H         1 <0>         0.0000
     35 H10         4.3369    1.5175   -3.3079 H         1 <0>         0.0000
     36 H11         2.9196    4.2215   -3.3135 H         1 <0>         0.0000
     37 H12         4.0912    3.5917   -4.4764 H         1 <0>         0.0000
     38 H13         1.8167    3.4621   -5.4302 H         1 <0>         0.0000
     39 H14         2.3997    1.8259   -5.1520 H         1 <0>         0.0000
     40 H15        -1.4656    6.1499   -3.6163 H         1 <0>         0.0000
     41 H16        -2.6686    6.6113   -4.8496 H         1 <0>         0.0000
     42 H17        -2.9152    5.1817   -3.8089 H         1 <0>         0.0000
@<TRIPOS>BOND
     1    1    3 ar
     2    1    2 ar
     3    1   26 1
     4    2    5 ar
     5    2   27 1
     6    3    6 ar
     7    3   28 1
     8    4    7 ar
     9    4    9 ar
    10    4   29 1
    11    5   10 ar
    12    5   30 1
    13    6   10 ar
    14    6   31 1
    15    7   12 ar
    16    7   32 1
    17    8   11 ar
    18    8   12 ar
    19    8   33 1
    20    9   11 ar
    21    9   16 1
    22   10   22 1
    23   11   23 1
    24   12   25 1
    25   13   14 1
    26   13   15 1
    27   13   20 2
    28   14   19 1
    29   14   21 2
    30   15   23 am
    31   15   24 2
    32   16   17 1
    33   16   34 1
    34   16   35 1
    35   17   18 1
    36   17   36 1
    37   17   37 1
    38   18   23 1
    39   18   38 1
    40   18   39 1
    41   19   40 1
    42   19   41 1
    43   19   42 1
    44   20   22 1
    45   21   22 1
