@<TRIPOS>MOLECULE
*****
   27    28     0     0     0
SMALL
NO_CHARGES

@<TRIPOS>ATOM
      1 C1         -0.9500   -1.9647   -4.5092 C.1       1 <0>         0.0000
      2 C2          2.5507   -0.0981    0.5135 C.ar      1 <0>         0.0000
      3 C3          1.4109   -2.2103    0.8129 C.ar      1 <0>         0.0000
      4 C4          1.3991    0.5910    0.8938 C.ar      1 <0>         0.0000
      5 C5          0.2620   -1.5361    1.2187 C.ar      1 <0>         0.0000
      6 C6          0.0522   -2.5356   -3.6697 C.ar      1 <0>         0.0000
      7 C7          2.5653   -1.4995    0.4372 C.ar      1 <0>         0.0000
      8 C8          0.1158   -3.9331   -3.4340 C.ar      1 <0>         0.0000
      9 C9          1.0909   -4.4469   -2.5883 C.ar      1 <0>         0.0000
     10 C10         0.2595   -0.1376    1.2371 C.ar      1 <0>         0.0000
     11 C11         2.0073   -3.5439   -1.9816 C.ar      1 <0>         0.0000
     12 C12         1.0288   -1.7519   -3.0276 C.ar      1 <0>         0.0000
     13 C13         3.8090   -2.1541   -0.0051 C.2       1 <0>         0.0000
     14 N1         -1.7690   -1.4990   -5.1948 N.1       1 <0>         0.0000
     15 N2          1.9622   -2.2321   -2.2361 N.ar      1 <0>         0.0000
     16 N3          4.0332   -3.2598   -0.6288 N.2       1 <0>         0.0000
     17 N4          2.9389   -4.0109   -1.0815 N.pl3     1 <0>         0.0000
     18 Cl1        -1.0382   -4.9692   -4.1964 Cl        1 <0>         0.0000
     19 Cl2         1.2078   -6.1516   -2.2450 Cl        1 <0>         0.0000
     20 Cl3         1.0323   -0.0238   -3.2629 Cl        1 <0>         0.0000
     21 Br1        -1.3345    0.7903    1.7438 Br        1 <0>         0.0000
     22 H1          3.4400    0.4644    0.2404 H         1 <0>         0.0000
     23 H2          1.4100   -3.2945    0.7930 H         1 <0>         0.0000
     24 H3          1.3880    1.6755    0.9212 H         1 <0>         0.0000
     25 H4         -0.6254   -2.0886    1.5095 H         1 <0>         0.0000
     26 H5          4.7324   -1.6298    0.2445 H         1 <0>         0.0000
     27 H6          3.2081   -4.9792   -1.2159 H         1 <0>         0.0000
@<TRIPOS>BOND
     1    1    6 1
     2    1   14 3
     3    2    4 ar
     4    2    7 ar
     5    2   22 1
     6    3    5 ar
     7    3    7 ar
     8    3   23 1
     9    4   10 ar
    10    4   24 1
    11    5   10 ar
    12    5   25 1
    13    6    8 ar
    14    6   12 ar
    15    7   13 1
    16    8    9 ar
    17    8   18 1
    18    9   11 ar
    19    9   19 1
    20   10   21 1
    21   11   15 ar
    22   11   17 1
    23   12   15 ar
    24   12   20 1
    25   13   16 2
    26   13   26 1
    27   16   17 1
    28   17   27 1
