@<TRIPOS>MOLECULE
*****
   16    16     0     0     0
SMALL
NO_CHARGES

@<TRIPOS>ATOM
      1 C1          3.9804   -2.3185   -0.0456 C.1       1 <0>         0.0000
      2 C2          1.9238   -0.9636   -0.1216 C.ar      1 <0>         0.0000
      3 C3          0.8633   -0.3499    0.5327 C.ar      1 <0>         0.0000
      4 C4          2.7571   -1.7606    2.0105 C.ar      1 <0>         0.0000
      5 C5          2.8810   -1.6770    0.6200 C.ar      1 <0>         0.0000
      6 C6          1.6963   -1.1378    2.6866 C.ar      1 <0>         0.0000
      7 C7          0.7413   -0.4283    1.9265 C.ar      1 <0>         0.0000
      8 C8          1.6400   -1.2392    4.1782 C.2       1 <0>         0.0000
      9 N1          4.8701   -2.8367   -0.5909 N.1       1 <0>         0.0000
     10 O1          0.9194   -0.6001    4.9159 O.2       1 <0>         0.0000
     11 O2          2.5298   -2.1550    4.6557 O.3       1 <0>         0.0000
     12 Cl1        -0.6390    0.3626    2.6298 Cl        1 <0>         0.0000
     13 H1          2.0130   -0.8955   -1.2014 H         1 <0>         0.0000
     14 H2          0.1155    0.1973   -0.0314 H         1 <0>         0.0000
     15 H3          3.4927   -2.3117    2.5832 H         1 <0>         0.0000
     16 H4          2.4358   -2.1347    5.6273 H         1 <0>         0.0000
@<TRIPOS>BOND
     1    1    5 1
     2    1    9 3
     3    2    3 ar
     4    2    5 ar
     5    2   13 1
     6    3    7 ar
     7    3   14 1
     8    4    5 ar
     9    4    6 ar
    10    4   15 1
    11    6    7 ar
    12    6    8 1
    13    7   12 1
    14    8   10 2
    15    8   11 1
    16   11   16 1
