@<TRIPOS>MOLECULE
*****
   34    36     0     0     0
SMALL
NO_CHARGES

@<TRIPOS>ATOM
      1 C1         -0.0688   -1.4055    1.6769 C.ar      1 <0>         0.0000
      2 C2         -0.0366   -1.1336    0.3030 C.ar      1 <0>         0.0000
      3 C3         -3.5835   -4.3083    2.5041 C.ar      1 <0>         0.0000
      4 C4         -2.3205   -4.7237    2.0813 C.ar      1 <0>         0.0000
      5 C5         -3.9304   -4.3693    3.8572 C.ar      1 <0>         0.0000
      6 C6          0.1739   -2.7000    2.1293 C.ar      1 <0>         0.0000
      7 C7          0.2421   -2.1547   -0.6037 C.ar      1 <0>         0.0000
      8 C8         -1.7751   -5.3075    4.3707 C.ar      1 <0>         0.0000
      9 C9         -1.4071   -5.2181    3.0226 C.ar      1 <0>         0.0000
     10 C10        -3.0314   -4.8733    4.8097 C.ar      1 <0>         0.0000
     11 C11         0.4048   -3.7430    1.2216 C.ar      1 <0>         0.0000
     12 C12         0.4570   -3.4696   -0.1585 C.ar      1 <0>         0.0000
     13 C13        -0.0662   -5.7587    2.6241 C.2       1 <0>         0.0000
     14 C14         1.7600   -5.7534    0.9865 C.3       1 <0>         0.0000
     15 C15         1.3192   -6.1557   -0.4159 C.3       1 <0>         0.0000
     16 C16        -3.4240   -4.9849    6.2653 C.3       1 <0>         0.0000
     17 N1          0.6641   -5.0644    1.6709 N.am      1 <0>         0.0000
     18 O1          0.3553   -6.8114    3.1058 O.2       1 <0>         0.0000
     19 S1          0.7421   -4.7085   -1.4023 S.3       1 <0>         0.0000
     20 H1         -0.2656   -0.6113    2.3912 H         1 <0>         0.0000
     21 H2         -0.2111   -0.1249   -0.0615 H         1 <0>         0.0000
     22 H3         -4.2975   -3.9282    1.7782 H         1 <0>         0.0000
     23 H4         -2.0529   -4.6651    1.0311 H         1 <0>         0.0000
     24 H5         -4.9128   -4.0274    4.1766 H         1 <0>         0.0000
     25 H6          0.1697   -2.9218    3.1917 H         1 <0>         0.0000
     26 H7          0.2881   -1.9391   -1.6683 H         1 <0>         0.0000
     27 H8         -1.0631   -5.7273    5.0766 H         1 <0>         0.0000
     28 H9          2.0132   -6.6395    1.5690 H         1 <0>         0.0000
     29 H10         2.6289   -5.0898    0.9486 H         1 <0>         0.0000
     30 H11         2.1507   -6.5988   -0.9709 H         1 <0>         0.0000
     31 H12         0.5077   -6.8840   -0.3542 H         1 <0>         0.0000
     32 H13        -3.8984   -5.9529    6.4669 H         1 <0>         0.0000
     33 H14        -2.5528   -4.9047    6.9219 H         1 <0>         0.0000
     34 H15        -4.1369   -4.2046    6.5482 H         1 <0>         0.0000
@<TRIPOS>BOND
     1    1    2 ar
     2    1    6 ar
     3    1   20 1
     4    2    7 ar
     5    2   21 1
     6    3    4 ar
     7    3    5 ar
     8    3   22 1
     9    4    9 ar
    10    4   23 1
    11    5   10 ar
    12    5   24 1
    13    6   11 ar
    14    6   25 1
    15    7   12 ar
    16    7   26 1
    17    8    9 ar
    18    8   10 ar
    19    8   27 1
    20    9   13 1
    21   10   16 1
    22   11   12 ar
    23   11   17 1
    24   12   19 1
    25   13   17 am
    26   13   18 2
    27   14   15 1
    28   14   17 1
    29   14   28 1
    30   14   29 1
    31   15   19 1
    32   15   30 1
    33   15   31 1
    34   16   32 1
    35   16   33 1
    36   16   34 1
