@<TRIPOS>MOLECULE
*****
   22    22     0     0     0
SMALL
NO_CHARGES

@<TRIPOS>ATOM
      1 C1          1.8207   -0.8951    0.2403 C.ar      1 <0>         0.0000
      2 C2          0.8445   -0.3525    1.0812 C.ar      1 <0>         0.0000
      3 C3          2.0575   -1.1842    3.0028 C.ar      1 <0>         0.0000
      4 C4          3.0337   -1.7445    2.1699 C.ar      1 <0>         0.0000
      5 C5          2.9216   -1.5860    0.7680 C.ar      1 <0>         0.0000
      6 C6          0.9735   -0.4965    2.4591 C.ar      1 <0>         0.0000
      7 C7          4.1677   -2.4665    2.8068 C.2       1 <0>         0.0000
      8 C8          3.8334   -1.9630   -1.4099 C.3       1 <0>         0.0000
      9 N1          4.4635   -3.6521    2.3875 N.2       1 <0>         0.0000
     10 N2          4.7595   -1.8470    3.9012 N.pl3     1 <0>         0.0000
     11 O1          5.5620   -4.1639    3.1489 O.3       1 <0>         0.0000
     12 O2          3.9251   -2.0951    0.0046 O.3       1 <0>         0.0000
     13 Br1        -0.3536    0.2521    3.6261 Br        1 <0>         0.0000
     14 H1          1.7129   -0.7629   -0.8297 H         1 <0>         0.0000
     15 H2         -0.0013    0.1794    0.6577 H         1 <0>         0.0000
     16 H3          2.1474   -1.3099    4.0764 H         1 <0>         0.0000
     17 H4          4.7252   -2.4483   -1.8079 H         1 <0>         0.0000
     18 H5          3.8252   -0.9095   -1.7167 H         1 <0>         0.0000
     19 H6          2.9411   -2.4668   -1.8008 H         1 <0>         0.0000
     20 H7          4.8169   -0.8376    3.8410 H         1 <0>         0.0000
     21 H8          5.6197   -2.2920    4.2036 H         1 <0>         0.0000
     22 H9          5.7091   -5.0272    2.7331 H         1 <0>         0.0000
@<TRIPOS>BOND
     1    1    2 ar
     2    1    5 ar
     3    1   14 1
     4    2    6 ar
     5    2   15 1
     6    3    4 ar
     7    3    6 ar
     8    3   16 1
     9    4    5 ar
    10    4    7 1
    11    5   12 1
    12    6   13 1
    13    7    9 2
    14    7   10 1
    15    8   12 1
    16    8   17 1
    17    8   18 1
    18    8   19 1
    19    9   11 1
    20   10   20 1
    21   10   21 1
    22   11   22 1
