@<TRIPOS>MOLECULE
*****
   27    28     0     0     0
SMALL
NO_CHARGES

@<TRIPOS>ATOM
      1 C1         -0.3464    3.1568   -2.0105 C.1       1 <0>         0.0000
      2 C2          1.8389   -1.6484    0.1055 C.ar      1 <0>         0.0000
      3 C3          0.8641   -0.8231    0.6697 C.ar      1 <0>         0.0000
      4 C4          3.0308   -1.9147    0.7838 C.ar      1 <0>         0.0000
      5 C5          2.2595   -0.5369    2.6334 C.ar      1 <0>         0.0000
      6 C6         -1.2618    3.4647   -0.9745 C.2       1 <0>         0.0000
      7 C7          1.0714   -0.2467    1.9380 C.ar      1 <0>         0.0000
      8 C8          3.2235   -1.3552    2.0498 C.ar      1 <0>         0.0000
      9 C9         -1.3358    2.8376    0.2518 C.2       1 <0>         0.0000
     10 C10        -2.8589    4.3892    0.1151 C.2       1 <0>         0.0000
     11 C11         0.0792    0.6223    2.6057 C.2       1 <0>         0.0000
     12 C12        -3.9866    5.1970    0.6463 C.3       1 <0>         0.0000
     13 N1          0.4388    2.8384   -2.8147 N.1       1 <0>         0.0000
     14 N2         -2.2566    4.4534   -1.0248 N.2       1 <0>         0.0000
     15 N3         -0.6972    1.5248    2.1080 N.2       1 <0>         0.0000
     16 N4         -0.6404    1.7780    0.7661 N.pl3     1 <0>         0.0000
     17 O1         -2.3389    3.4023    0.9589 O.3       1 <0>         0.0000
     18 Cl1         4.7051   -1.6942    2.9244 Cl        1 <0>         0.0000
     19 H1          1.6693   -2.0931   -0.8709 H         1 <0>         0.0000
     20 H2         -0.0735   -0.6716    0.1442 H         1 <0>         0.0000
     21 H3          3.7932   -2.5509    0.3458 H         1 <0>         0.0000
     22 H4          2.4311   -0.1164    3.6200 H         1 <0>         0.0000
     23 H5         -0.0075    0.5280    3.6870 H         1 <0>         0.0000
     24 H6         -4.8387    4.5590    0.9016 H         1 <0>         0.0000
     25 H7         -3.6878    5.7363    1.5511 H         1 <0>         0.0000
     26 H8         -4.2907    5.9153   -0.1156 H         1 <0>         0.0000
     27 H9          0.1690    1.4805    0.2203 H         1 <0>         0.0000
@<TRIPOS>BOND
     1    1    6 1
     2    1   13 3
     3    2    3 ar
     4    2    4 ar
     5    2   19 1
     6    3    7 ar
     7    3   20 1
     8    4    8 ar
     9    4   21 1
    10    5    7 ar
    11    5    8 ar
    12    5   22 1
    13    6    9 2
    14    6   14 1
    15    7   11 1
    16    8   18 1
    17    9   16 1
    18    9   17 1
    19   10   12 1
    20   10   14 2
    21   10   17 1
    22   11   15 2
    23   11   23 1
    24   12   24 1
    25   12   25 1
    26   12   26 1
    27   15   16 1
    28   16   27 1
