@<TRIPOS>MOLECULE
*****
   40    42     0     0     0
SMALL
NO_CHARGES

@<TRIPOS>ATOM
      1 C1          2.5317    2.9235    3.2462 C.1       1 <0>         0.0000
      2 C2          6.7885   -1.0030    7.3231 C.ar      1 <0>         0.0000
      3 C3          6.9708    1.3927    7.3796 C.ar      1 <0>         0.0000
      4 C4          5.7529   -0.9070    6.3930 C.ar      1 <0>         0.0000
      5 C5          5.9380    1.5117    6.4516 C.ar      1 <0>         0.0000
      6 C6          7.4192    0.1409    7.8329 C.ar      1 <0>         0.0000
      7 C7          5.3255    0.3532    5.9532 C.ar      1 <0>         0.0000
      8 C8          2.1442    0.4314    3.1571 C.2       1 <0>         0.0000
      9 C9          0.8198   -0.9649    2.1168 C.2       1 <0>         0.0000
     10 C10         2.8517    1.5969    3.6847 C.2       1 <0>         0.0000
     11 C11        -0.2360   -1.5086    1.2126 C.3       1 <0>         0.0000
     12 C12        -0.0761   -1.0683   -0.2573 C.3       1 <0>         0.0000
     13 C13        -0.4810    0.3860   -0.5405 C.3       1 <0>         0.0000
     14 C14         0.3389    1.4692    0.1762 C.3       1 <0>         0.0000
     15 C15         0.2407    1.4440    1.7055 C.3       1 <0>         0.0000
     16 C16         8.5626    0.0331    8.8147 C.3       1 <0>         0.0000
     17 N1          2.2615    3.9944    2.8681 N.1       1 <0>         0.0000
     18 N2          2.5134   -0.8144    3.4572 N.2       1 <0>         0.0000
     19 N3          1.6851   -1.6878    2.8001 N.2       1 <0>         0.0000
     20 N4          3.8446    1.5519    4.5556 N.2       1 <0>         0.0000
     21 N5          1.0536    0.3780    2.3080 N.pl3     1 <0>         0.0000
     22 N6          4.2775    0.4040    5.0174 N.pl3     1 <0>         0.0000
     23 H1          7.1082   -1.9874    7.6573 H         1 <0>         0.0000
     24 H2          7.4388    2.2970    7.7631 H         1 <0>         0.0000
     25 H3          5.2744   -1.8057    6.0105 H         1 <0>         0.0000
     26 H4          5.5994    2.4840    6.1117 H         1 <0>         0.0000
     27 H5         -0.1698   -2.5963    1.2905 H         1 <0>         0.0000
     28 H6         -1.2315   -1.2208    1.5769 H         1 <0>         0.0000
     29 H7          0.9613   -1.2388   -0.5694 H         1 <0>         0.0000
     30 H8         -0.6995   -1.7242   -0.8751 H         1 <0>         0.0000
     31 H9         -0.4139    0.5612   -1.6204 H         1 <0>         0.0000
     32 H10        -1.5399    0.5161   -0.2765 H         1 <0>         0.0000
     33 H11         1.3957    1.4094   -0.1096 H         1 <0>         0.0000
     34 H12        -0.0176    2.4513   -0.1541 H         1 <0>         0.0000
     35 H13         0.5657    2.3937    2.1181 H         1 <0>         0.0000
     36 H14        -0.7972    1.2919    2.0224 H         1 <0>         0.0000
     37 H15         9.5299    0.0648    8.2981 H         1 <0>         0.0000
     38 H16         8.5504    0.8575    9.5343 H         1 <0>         0.0000
     39 H17         8.5210   -0.9053    9.3755 H         1 <0>         0.0000
     40 H18         3.8448   -0.4661    4.6640 H         1 <0>         0.0000
@<TRIPOS>BOND
     1    1   10 1
     2    1   17 3
     3    2    4 ar
     4    2    6 ar
     5    2   23 1
     6    3    5 ar
     7    3    6 ar
     8    3   24 1
     9    4    7 ar
    10    4   25 1
    11    5    7 ar
    12    5   26 1
    13    6   16 1
    14    7   22 1
    15    8   10 1
    16    8   18 2
    17    8   21 1
    18    9   11 1
    19    9   19 2
    20    9   21 1
    21   10   20 2
    22   11   12 1
    23   11   27 1
    24   11   28 1
    25   12   13 1
    26   12   29 1
    27   12   30 1
    28   13   14 1
    29   13   31 1
    30   13   32 1
    31   14   15 1
    32   14   33 1
    33   14   34 1
    34   15   21 1
    35   15   35 1
    36   15   36 1
    37   16   37 1
    38   16   38 1
    39   16   39 1
    40   18   19 1
    41   20   22 1
    42   22   40 1
