@<TRIPOS>MOLECULE
*****
   51    54     0     0     0
SMALL
NO_CHARGES

@<TRIPOS>ATOM
      1 C1         -0.4150   -3.2846    4.1208 C.1       1 <0>         0.0000
      2 C2          1.9164   -0.9018    5.7230 C.ar      1 <0>         0.0000
      3 C3          0.5467   -2.2375    4.2609 C.ar      1 <0>         0.0000
      4 C4          1.0769   -2.0012    5.5473 C.ar      1 <0>         0.0000
      5 C5          2.1777   -0.0565    4.6362 C.ar      1 <0>         0.0000
      6 C6          0.9228   -1.3676    3.1864 C.ar      1 <0>         0.0000
      7 C7          0.9810   -0.6607   -1.6668 C.2       1 <0>         0.0000
      8 C8         -1.3558    0.9121   -0.6871 C.3       1 <0>         0.0000
      9 C9          2.6865    3.2358   -2.4887 C.3       1 <0>         0.0000
     10 C10         3.3055    2.8094   -3.8046 C.3       1 <0>         0.0000
     11 C11        -1.2390   -0.6124   -0.5045 C.3       1 <0>         0.0000
     12 C12         0.2989   -2.6163   -0.1986 C.3       1 <0>         0.0000
     13 C13        -0.1017    1.5281   -1.3414 C.3       1 <0>         0.0000
     14 C14         0.0458   -2.8068    1.3020 C.3       1 <0>         0.0000
     15 C15         0.9228   -0.5768    0.8671 C.3       1 <0>         0.0000
     16 C16         2.6882    1.7763   -2.8912 C.3       1 <0>         0.0000
     17 C17         0.2203   -1.0940   -0.4078 C.3       1 <0>         0.0000
     18 C18         0.7161   -2.9003    6.7010 C.3       1 <0>         0.0000
     19 C19         3.0259    1.1804    4.7910 C.3       1 <0>         0.0000
     20 C20         1.4039    1.0865   -3.3044 C.3       1 <0>         0.0000
     21 N1         -1.2173   -4.1322    4.0783 N.1       1 <0>         0.0000
     22 N2          1.7010   -0.2882    3.4091 N.ar      1 <0>         0.0000
     23 N3          0.5215   -1.5446    1.8959 N.pl3     1 <0>         0.0000
     24 N4          0.6339    0.5668   -2.1699 N.am      1 <0>         0.0000
     25 O1          1.8298   -1.3784   -2.2018 O.2       1 <0>         0.0000
     26 H1          2.3433   -0.6872    6.6976 H         1 <0>         0.0000
     27 H2         -2.2367    1.1314   -1.2975 H         1 <0>         0.0000
     28 H3         -1.5148    1.4047    0.2770 H         1 <0>         0.0000
     29 H4          3.3474    3.5499   -1.6860 H         1 <0>         0.0000
     30 H5          1.7448    3.7771   -2.5303 H         1 <0>         0.0000
     31 H6          2.7718    3.0618   -4.7176 H         1 <0>         0.0000
     32 H7          4.3869    2.8309   -3.8988 H         1 <0>         0.0000
     33 H8         -1.7980   -0.9285    0.3819 H         1 <0>         0.0000
     34 H9         -1.6959   -1.1204   -1.3602 H         1 <0>         0.0000
     35 H10         1.2977   -2.9588   -0.4749 H         1 <0>         0.0000
     36 H11        -0.4251   -3.1601   -0.8107 H         1 <0>         0.0000
     37 H12        -0.3873    2.3629   -1.9862 H         1 <0>         0.0000
     38 H13         0.5648    1.9464   -0.5774 H         1 <0>         0.0000
     39 H14        -1.0133   -2.9675    1.5208 H         1 <0>         0.0000
     40 H15         0.5989   -3.6593    1.7060 H         1 <0>         0.0000
     41 H16         2.0125   -0.5702    0.7409 H         1 <0>         0.0000
     42 H17         0.6228    0.4289    1.1634 H         1 <0>         0.0000
     43 H18         3.3798    1.1264   -2.3614 H         1 <0>         0.0000
     44 H19        -0.3610   -2.8697    6.8963 H         1 <0>         0.0000
     45 H20         0.9664   -3.9429    6.4811 H         1 <0>         0.0000
     46 H21         1.2419   -2.5989    7.6097 H         1 <0>         0.0000
     47 H22         3.8494    1.1643    4.0705 H         1 <0>         0.0000
     48 H23         2.4274    2.0725    4.5774 H         1 <0>         0.0000
     49 H24         3.4373    1.2684    5.7994 H         1 <0>         0.0000
     50 H25         1.6317    0.2422   -3.9573 H         1 <0>         0.0000
     51 H26         0.7605    1.7824   -3.8554 H         1 <0>         0.0000
@<TRIPOS>BOND
     1    1    3 1
     2    1   21 3
     3    2    4 ar
     4    2    5 ar
     5    2   26 1
     6    3    4 ar
     7    3    6 ar
     8    4   18 1
     9    5   19 1
    10    5   22 ar
    11    6   22 ar
    12    6   23 1
    13    7   17 1
    14    7   24 am
    15    7   25 2
    16    8   11 1
    17    8   13 1
    18    8   27 1
    19    8   28 1
    20    9   10 1
    21    9   16 1
    22    9   29 1
    23    9   30 1
    24   10   16 1
    25   10   31 1
    26   10   32 1
    27   11   17 1
    28   11   33 1
    29   11   34 1
    30   12   14 1
    31   12   17 1
    32   12   35 1
    33   12   36 1
    34   13   24 1
    35   13   37 1
    36   13   38 1
    37   14   23 1
    38   14   39 1
    39   14   40 1
    40   15   17 1
    41   15   23 1
    42   15   41 1
    43   15   42 1
    44   16   20 1
    45   16   43 1
    46   18   44 1
    47   18   45 1
    48   18   46 1
    49   19   47 1
    50   19   48 1
    51   19   49 1
    52   20   24 1
    53   20   50 1
    54   20   51 1
