@<TRIPOS>MOLECULE
*****
   10     9     0     0     0
SMALL
NO_CHARGES

@<TRIPOS>ATOM
      1 C1          2.2490   -1.2850   -0.0800 C.3       1 <0>         0.0000
      2 C2          3.5560   -0.4770   -0.1300 C.3       1 <0>         0.0000
      3 O1          1.1440   -0.4220   -0.2460 O.3       1 <0>         0.0000
      4 O2          3.5860    0.4860    0.9110 O.3       1 <0>         0.0000
      5 H1          2.2490   -2.0310   -0.8750 H         1 <0>         0.0000
      6 H2          2.1740   -1.7890    0.8840 H         1 <0>         0.0000
      7 H3          3.6280    0.0310   -1.0930 H         1 <0>         0.0000
      8 H4          4.4050   -1.1520   -0.0200 H         1 <0>         0.0000
      9 H5          1.3630    0.3920    0.2240 H         1 <0>         0.0000
     10 H6          3.8600    0.0500    1.7240 H         1 <0>         0.0000
@<TRIPOS>BOND
     1    1    2 1
     2    1    3 1
     3    1    5 1
     4    1    6 1
     5    2    4 1
     6    2    7 1
     7    2    8 1
     8    3    9 1
     9    4   10 1
