@<TRIPOS>MOLECULE
*****
   46    48     0     0     0
SMALL
NO_CHARGES

@<TRIPOS>ATOM
      1 C1          3.3377    2.6514   -2.1735 C.ar      1 <0>         0.0000
      2 C2          2.8239    1.6395   -1.3579 C.ar      1 <0>         0.0000
      3 C3          1.9064    0.4169   -3.2769 C.ar      1 <0>         0.0000
      4 C4          3.1317    2.5472   -3.5483 C.ar      1 <0>         0.0000
      5 C5          2.1184    0.5332   -1.8884 C.ar      1 <0>         0.0000
      6 C6          2.4258    1.4416   -4.0456 C.ar      1 <0>         0.0000
      7 C7          3.0354    2.7578   -5.6671 C.2       1 <0>         0.0000
      8 C8          0.6877   -1.4183   -1.2872 C.2       1 <0>         0.0000
      9 C9          1.9459   -5.0261   -0.1350 C.2       1 <0>         0.0000
     10 C10         4.3345    5.3830   -8.4540 C.2       1 <0>         0.0000
     11 C11         1.9708   -0.4568    0.4225 C.3       1 <0>         0.0000
     12 C12         1.4133   -1.8189    0.8629 C.3       1 <0>         0.0000
     13 C13         1.1151   -6.2904   -0.0215 C.3       1 <0>         0.0000
     14 C14         6.1550    8.4682   -9.1405 C.3       1 <0>         0.0000
     15 C15         4.0836    4.7427   -7.1035 C.3       1 <0>         0.0000
     16 C16         2.5100   -2.8907    0.9425 C.3       1 <0>         0.0000
     17 C17         5.3573    7.2383   -9.5293 C.3       1 <0>         0.0000
     18 N1          3.5061    3.3696   -4.6211 N.2       1 <0>         0.0000
     19 N2          1.6530   -0.4636   -0.9987 N.am      1 <0>         0.0000
     20 N3          1.9819   -4.2384    0.9991 N.am      1 <0>         0.0000
     21 O1          0.0968   -1.6118   -2.3242 O.2       1 <0>         0.0000
     22 O2          2.5503   -4.7277   -1.1597 O.2       1 <0>         0.0000
     23 O3          3.9521    4.9447   -9.5206 O.2       1 <0>         0.0000
     24 O4          2.3622    1.5777   -5.4212 O.3       1 <0>         0.0000
     25 O5          0.4554   -2.1600   -0.1551 O.3       1 <0>         0.0000
     26 O6          5.0467    6.5161   -8.3027 O.3       1 <0>         0.0000
     27 S1          3.1270    3.2039   -7.3534 S.3       1 <0>         0.0000
     28 H1          3.8769    3.4915   -1.7471 H         1 <0>         0.0000
     29 H2          2.9733    1.7197   -0.2876 H         1 <0>         0.0000
     30 H3          1.3642   -0.4156   -3.7032 H         1 <0>         0.0000
     31 H4          1.4825    0.3804    0.9369 H         1 <0>         0.0000
     32 H5          3.0503   -0.3887    0.5889 H         1 <0>         0.0000
     33 H6          0.8633   -1.7538    1.8054 H         1 <0>         0.0000
     34 H7          0.1846   -6.1404   -0.5778 H         1 <0>         0.0000
     35 H8          1.6567   -7.1129   -0.4924 H         1 <0>         0.0000
     36 H9          0.8689   -6.5593    1.0100 H         1 <0>         0.0000
     37 H10         5.5782    9.1144   -8.4726 H         1 <0>         0.0000
     38 H11         7.0849    8.1890   -8.6367 H         1 <0>         0.0000
     39 H12         6.4078    9.0392  -10.0396 H         1 <0>         0.0000
     40 H13         3.5331    5.4303   -6.4579 H         1 <0>         0.0000
     41 H14         5.0320    4.5228   -6.6089 H         1 <0>         0.0000
     42 H15         3.1379   -2.6849    1.8185 H         1 <0>         0.0000
     43 H16         3.1388   -2.8419    0.0506 H         1 <0>         0.0000
     44 H17         5.9188    6.5718  -10.1893 H         1 <0>         0.0000
     45 H18         4.4178    7.4939  -10.0264 H         1 <0>         0.0000
     46 H19         1.3508   -4.4737    1.7542 H         1 <0>         0.0000
@<TRIPOS>BOND
     1    1    2 ar
     2    1    4 ar
     3    1   28 1
     4    2    5 ar
     5    2   29 1
     6    3    5 ar
     7    3    6 ar
     8    3   30 1
     9    4    6 ar
    10    4   18 1
    11    5   19 1
    12    6   24 1
    13    7   18 2
    14    7   24 1
    15    7   27 1
    16    8   19 am
    17    8   21 2
    18    8   25 1
    19    9   13 1
    20    9   20 am
    21    9   22 2
    22   10   15 1
    23   10   23 2
    24   10   26 1
    25   11   12 1
    26   11   19 1
    27   11   31 1
    28   11   32 1
    29   12   16 1
    30   12   25 1
    31   12   33 1
    32   13   34 1
    33   13   35 1
    34   13   36 1
    35   14   17 1
    36   14   37 1
    37   14   38 1
    38   14   39 1
    39   15   27 1
    40   15   40 1
    41   15   41 1
    42   16   20 1
    43   16   42 1
    44   16   43 1
    45   17   26 1
    46   17   44 1
    47   17   45 1
    48   20   46 1
