@<TRIPOS>MOLECULE
*****
   42    42     0     0     0
SMALL
NO_CHARGES

@<TRIPOS>ATOM
      1 C1         -1.8323   -1.4083    1.1990 C.1       1 <0>         0.0000
      2 C2          3.6437    2.8151    0.5741 C.ar      1 <0>         0.0000
      3 C3          2.4236    2.8470   -0.0998 C.ar      1 <0>         0.0000
      4 C4          3.7214    2.2522    1.8499 C.ar      1 <0>         0.0000
      5 C5          1.2653    2.3116    0.4814 C.ar      1 <0>         0.0000
      6 C6          2.5894    1.7090    2.4685 C.ar      1 <0>         0.0000
      7 C7          1.3663    1.7417    1.7666 C.ar      1 <0>         0.0000
      8 C8         -3.0081   -1.9849    1.2707 C.2       1 <0>         0.0000
      9 C9         -0.6590   -0.8234    1.1483 C.2       1 <0>         0.0000
     10 C10        -0.8791    1.8904    2.7565 C.2       1 <0>         0.0000
     11 C11        -0.0509    2.4174   -0.2562 C.3       1 <0>         0.0000
     12 C12         2.6799    1.1338    3.8608 C.3       1 <0>         0.0000
     13 C13        -0.3533   -0.9262    3.6932 C.3       1 <0>         0.0000
     14 C14        -2.3305    3.5559    5.2703 C.3       1 <0>         0.0000
     15 C15        -0.6695    3.3905    2.9213 C.3       1 <0>         0.0000
     16 C16         0.1216   -0.3421    2.3623 C.3       1 <0>         0.0000
     17 N1          0.2027    1.1507    2.3755 N.am      1 <0>         0.0000
     18 O1         -1.9817    1.4088    3.0278 O.2       1 <0>         0.0000
     19 O2          0.2406    2.8776    5.3868 O.2       1 <0>         0.0000
     20 O3         -0.3627    5.2791    4.7607 O.2       1 <0>         0.0000
     21 S1         -0.6432    3.8358    4.6980 S.o2      1 <0>         0.0000
     22 H1          4.5326    3.2340    0.1096 H         1 <0>         0.0000
     23 H2          2.3618    3.2923   -1.0900 H         1 <0>         0.0000
     24 H3          4.6697    2.2436    2.3812 H         1 <0>         0.0000
     25 H4         -3.1077   -3.0659    1.3513 H         1 <0>         0.0000
     26 H5         -3.9208   -1.3918    1.2557 H         1 <0>         0.0000
     27 H6         -0.1887   -0.6603    0.1787 H         1 <0>         0.0000
     28 H7          0.1113    2.3863   -1.3371 H         1 <0>         0.0000
     29 H8         -0.7488    1.6222    0.0083 H         1 <0>         0.0000
     30 H9         -0.5454    3.3715   -0.0345 H         1 <0>         0.0000
     31 H10         3.6430    1.3819    4.3138 H         1 <0>         0.0000
     32 H11         1.8858    1.5247    4.5018 H         1 <0>         0.0000
     33 H12         2.5934    0.0413    3.8521 H         1 <0>         0.0000
     34 H13        -1.4210   -0.7755    3.8417 H         1 <0>         0.0000
     35 H14        -0.1450   -2.0005    3.6997 H         1 <0>         0.0000
     36 H15         0.1854   -0.4592    4.5212 H         1 <0>         0.0000
     37 H16        -2.3079    3.7552    6.3435 H         1 <0>         0.0000
     38 H17        -2.9902    4.2601    4.7619 H         1 <0>         0.0000
     39 H18        -2.6069    2.5246    5.0554 H         1 <0>         0.0000
     40 H19        -1.4986    3.9376    2.4695 H         1 <0>         0.0000
     41 H20         0.2806    3.7772    2.5532 H         1 <0>         0.0000
     42 H21         1.1577   -0.6534    2.2073 H         1 <0>         0.0000
@<TRIPOS>BOND
     1    1    8 2
     2    1    9 2
     3    2    4 ar
     4    2    3 ar
     5    2   22 1
     6    3    5 ar
     7    3   23 1
     8    4    6 ar
     9    4   24 1
    10    5    7 ar
    11    5   11 1
    12    6    7 ar
    13    6   12 1
    14    7   17 1
    15    8   25 1
    16    8   26 1
    17    9   16 1
    18    9   27 1
    19   10   15 1
    20   10   17 am
    21   10   18 2
    22   11   28 1
    23   11   29 1
    24   11   30 1
    25   12   31 1
    26   12   32 1
    27   12   33 1
    28   13   16 1
    29   13   34 1
    30   13   35 1
    31   13   36 1
    32   14   21 1
    33   14   37 1
    34   14   38 1
    35   14   39 1
    36   15   21 1
    37   15   40 1
    38   15   41 1
    39   16   17 1
    40   16   42 1
    41   19   21 2
    42   20   21 2
