@<TRIPOS>MOLECULE
*****
   16    16     0     0     0
SMALL
NO_CHARGES

@<TRIPOS>ATOM
      1 C1          2.4850   -1.3160   -0.4460 C.2       1 <0>         0.0000
      2 C2          4.7420   -0.2870   -1.2550 C.3       1 <0>         0.0000
      3 C3          4.9590   -0.7620    0.1720 C.3       1 <0>         0.0000
      4 C4          3.6120   -0.2840   -0.2730 C.3       1 <0>         0.0000
      5 C5          0.0610   -1.8220   -0.2440 C.3       1 <0>         0.0000
      6 N1          1.2160   -0.9370   -0.1230 N.am      1 <0>         0.0000
      7 O1          2.6660   -2.4510   -0.8540 O.2       1 <0>         0.0000
      8 F1          3.2220    0.9420    0.1950 F         1 <0>         0.0000
      9 H1          5.1530    0.6780   -1.5160 H         1 <0>         0.0000
     10 H2          4.7240   -1.0560   -2.0170 H         1 <0>         0.0000
     11 H3          5.0780   -1.8300    0.3060 H         1 <0>         0.0000
     12 H4          5.5100   -0.1020    0.8270 H         1 <0>         0.0000
     13 H5          0.2040   -2.7040    0.3840 H         1 <0>         0.0000
     14 H6         -0.8470   -1.3040    0.0680 H         1 <0>         0.0000
     15 H7         -0.0500   -2.1470   -1.2800 H         1 <0>         0.0000
     16 H8          1.0800    0.0050    0.2130 H         1 <0>         0.0000
@<TRIPOS>BOND
     1    1    4 1
     2    1    6 am
     3    1    7 2
     4    2    3 1
     5    2    4 1
     6    2    9 1
     7    2   10 1
     8    3    4 1
     9    3   11 1
    10    3   12 1
    11    4    8 1
    12    5    6 1
    13    5   13 1
    14    5   14 1
    15    5   15 1
    16    6   16 1
