@<TRIPOS>MOLECULE
*****
   29    30     0     0     0
SMALL
NO_CHARGES

@<TRIPOS>ATOM
      1 C1          4.4826    3.9682   -1.4368 C.ar      1 <0>         0.0000
      2 C2          4.9284    5.3161    0.3514 C.ar      1 <0>         0.0000
      3 C3          3.5189    3.2874   -0.6880 C.ar      1 <0>         0.0000
      4 C4          3.9562    4.6228    1.0931 C.ar      1 <0>         0.0000
      5 C5          2.7423    2.1492   -1.3055 C.2       1 <0>         0.0000
      6 C6          0.9253   -0.7591    0.0872 C.3       1 <0>         0.0000
      7 C7         -0.5351    0.6049   -0.5958 C.3       1 <0>         0.0000
      8 C8          0.9895    0.4795   -0.8423 C.3       1 <0>         0.0000
      9 C9         -1.3829   -1.1726    0.9755 C.3       1 <0>         0.0000
     10 C10        -2.8356   -1.2500    0.5280 C.3       1 <0>         0.0000
     11 N1          5.1862    4.9832   -0.9133 N.ar      1 <0>         0.0000
     12 N2          3.2591    3.6235    0.5878 N.ar      1 <0>         0.0000
     13 N3         -0.5363   -0.8097   -0.1476 N.3       1 <0>         0.0000
     14 N4          1.8392    1.5773   -0.4646 N.am      1 <0>         0.0000
     15 O1          2.9445    1.8066   -2.4705 O.2       1 <0>         0.0000
     16 F1         -3.6464   -1.5661    1.6299 F         1 <0>         0.0000
     17 Cl1         3.6433    5.0872    2.7511 Cl        1 <0>         0.0000
     18 H1          4.6782    3.6824   -2.4653 H         1 <0>         0.0000
     19 H2          5.4897    6.1366    0.7912 H         1 <0>         0.0000
     20 H3          1.4774   -1.6569   -0.2078 H         1 <0>         0.0000
     21 H4          1.1855   -0.4925    1.1258 H         1 <0>         0.0000
     22 H5         -0.7542    1.3134    0.2220 H         1 <0>         0.0000
     23 H6         -1.1759    0.8304   -1.4538 H         1 <0>         0.0000
     24 H7          1.2234    0.2157   -1.8721 H         1 <0>         0.0000
     25 H8         -1.0717   -2.1554    1.3462 H         1 <0>         0.0000
     26 H9         -1.2987   -0.4574    1.8154 H         1 <0>         0.0000
     27 H10        -2.9723   -2.0281   -0.2280 H         1 <0>         0.0000
     28 H11        -3.1863   -0.2918    0.1299 H         1 <0>         0.0000
     29 H12         1.7804    1.9671    0.4707 H         1 <0>         0.0000
@<TRIPOS>BOND
     1    1    3 ar
     2    1   11 ar
     3    1   18 1
     4    2    4 ar
     5    2   11 ar
     6    2   19 1
     7    3    5 1
     8    3   12 ar
     9    4   12 ar
    10    4   17 1
    11    5   14 am
    12    5   15 2
    13    6    8 1
    14    6   13 1
    15    6   20 1
    16    6   21 1
    17    7    8 1
    18    7   13 1
    19    7   22 1
    20    7   23 1
    21    8   14 1
    22    8   24 1
    23    9   10 1
    24    9   13 1
    25    9   25 1
    26    9   26 1
    27   10   16 1
    28   10   27 1
    29   10   28 1
    30   14   29 1
