@<TRIPOS>MOLECULE
*****
   24    24     0     0     0
SMALL
NO_CHARGES

@<TRIPOS>ATOM
      1 C1          1.7146   -1.0310   -0.1479 C.ar      1 <0>         0.0000
      2 C2          0.6590   -0.4739    0.5779 C.ar      1 <0>         0.0000
      3 C3          2.7988   -1.6308    1.9290 C.ar      1 <0>         0.0000
      4 C4          2.7868   -1.6141    0.5293 C.ar      1 <0>         0.0000
      5 C5          0.6675   -0.4938    1.9736 C.ar      1 <0>         0.0000
      6 C6          1.7464   -1.0791    2.6685 C.ar      1 <0>         0.0000
      7 C7          0.8480   -2.2467    4.7731 C.2       1 <0>         0.0000
      8 C8          1.7644   -1.1663    4.1795 C.3       1 <0>         0.0000
      9 C9          3.9573   -2.1766   -0.2399 C.3       1 <0>         0.0000
     10 C10        -0.4773    0.1217    2.7462 C.3       1 <0>         0.0000
     11 O1          0.3362   -2.1477    5.8628 O.2       1 <0>         0.0000
     12 O2          0.6542   -3.3582    4.0143 O.3       1 <0>         0.0000
     13 F1          3.5470   -2.6731   -1.4532 F         1 <0>         0.0000
     14 F2          4.5445   -3.2075    0.4567 F         1 <0>         0.0000
     15 F3         -1.5088    0.4620    1.9111 F         1 <0>         0.0000
     16 F4         -0.0568    1.2845    3.3637 F         1 <0>         0.0000
     17 H1          1.6948   -1.0229   -1.2331 H         1 <0>         0.0000
     18 H2         -0.1821   -0.0300    0.0568 H         1 <0>         0.0000
     19 H3          3.6360   -2.0880    2.4493 H         1 <0>         0.0000
     20 H4          1.4847   -0.2245    4.6524 H         1 <0>         0.0000
     21 H5          2.7769   -1.4035    4.5230 H         1 <0>         0.0000
     22 H6          4.7398   -1.4377   -0.4407 H         1 <0>         0.0000
     23 H7         -0.8882   -0.5259    3.5256 H         1 <0>         0.0000
     24 H8          1.1086   -3.2620    3.1570 H         1 <0>         0.0000
@<TRIPOS>BOND
     1    1    2 ar
     2    1    4 ar
     3    1   17 1
     4    2    5 ar
     5    2   18 1
     6    3    4 ar
     7    3    6 ar
     8    3   19 1
     9    4    9 1
    10    5    6 ar
    11    5   10 1
    12    6    8 1
    13    7    8 1
    14    7   11 2
    15    7   12 1
    16    8   20 1
    17    8   21 1
    18    9   13 1
    19    9   14 1
    20    9   22 1
    21   10   15 1
    22   10   16 1
    23   10   23 1
    24   12   24 1
