@<TRIPOS>MOLECULE
*****
   25    26     0     0     0
SMALL
NO_CHARGES

@<TRIPOS>ATOM
      1 C1         -1.1969   -6.5480   -2.2871 C.ar      1 <0>         0.0000
      2 C2          0.9150   -7.4714   -3.0826 C.ar      1 <0>         0.0000
      3 C3         -0.5028   -5.6664   -1.4502 C.ar      1 <0>         0.0000
      4 C4          1.5838   -6.5919   -2.2372 C.ar      1 <0>         0.0000
      5 C5          0.8948   -5.6933   -1.4263 C.ar      1 <0>         0.0000
      6 C6         -0.4798   -7.4308   -3.0923 C.ar      1 <0>         0.0000
      7 C7         -0.6882   -2.4078   -3.9132 C.3       1 <0>         0.0000
      8 C8         -1.2970   -1.1183   -3.3719 C.3       1 <0>         0.0000
      9 C9         -0.9323   -2.6045   -1.6423 C.3       1 <0>         0.0000
     10 C10        -1.8762   -3.7275   -1.2142 C.3       1 <0>         0.0000
     11 O1         -0.1046   -2.9804   -2.7368 O.3       1 <0>         0.0000
     12 O2         -1.7346   -1.5027   -2.0603 O.3       1 <0>         0.0000
     13 O3         -1.1570   -4.8098   -0.6023 O.3       1 <0>         0.0000
     14 F1          2.9318   -6.5934   -2.2046 F         1 <0>         0.0000
     15 F2          1.5753   -4.8428   -0.6420 F         1 <0>         0.0000
     16 Br1        -1.4337   -8.6426   -4.2302 Br        1 <0>         0.0000
     17 H1         -2.2814   -6.5435   -2.2870 H         1 <0>         0.0000
     18 H2          1.4805   -8.1585   -3.7015 H         1 <0>         0.0000
     19 H3         -1.4539   -3.0730   -4.3346 H         1 <0>         0.0000
     20 H4          0.1074   -2.2560   -4.6449 H         1 <0>         0.0000
     21 H5         -0.5487   -0.3189   -3.3024 H         1 <0>         0.0000
     22 H6         -2.1653   -0.7653   -3.9328 H         1 <0>         0.0000
     23 H7         -0.2687   -2.3254   -0.8155 H         1 <0>         0.0000
     24 H8         -2.4574   -4.0746   -2.0759 H         1 <0>         0.0000
     25 H9         -2.5604   -3.3534   -0.4500 H         1 <0>         0.0000
@<TRIPOS>BOND
     1    1    3 ar
     2    1    6 ar
     3    1   17 1
     4    2    4 ar
     5    2    6 ar
     6    2   18 1
     7    3    5 ar
     8    3   13 1
     9    4    5 ar
    10    4   14 1
    11    5   15 1
    12    6   16 1
    13    7    8 1
    14    7   11 1
    15    7   19 1
    16    7   20 1
    17    8   12 1
    18    8   21 1
    19    8   22 1
    20    9   10 1
    21    9   12 1
    22    9   11 1
    23    9   23 1
    24   10   13 1
    25   10   24 1
    26   10   25 1
