@<TRIPOS>MOLECULE
*****
   25    26     0     0     0
SMALL
NO_CHARGES

@<TRIPOS>ATOM
      1 C1          4.4645   -1.5347   -2.4470 C.ar      1 <0>         0.0000
      2 C2          3.4496   -0.8783   -3.1478 C.ar      1 <0>         0.0000
      3 C3          4.6807   -1.1955   -1.1119 C.ar      1 <0>         0.0000
      4 C4          1.8160   -0.4854    3.0303 C.ar      1 <0>         0.0000
      5 C5          0.6397    0.5192    1.1954 C.ar      1 <0>         0.0000
      6 C6          2.6946    0.0944   -2.4815 C.ar      1 <0>         0.0000
      7 C7          0.6428   -1.1673    3.3454 C.ar      1 <0>         0.0000
      8 C8          1.8199    0.3865    1.9306 C.ar      1 <0>         0.0000
      9 C9          3.8695   -0.2105   -0.5337 C.ar      1 <0>         0.0000
     10 C10        -0.4729   -0.2156    1.6158 C.ar      1 <0>         0.0000
     11 C11         4.0759    0.1621    0.9093 C.2       1 <0>         0.0000
     12 C12         3.0798    1.1324    1.5389 C.3       1 <0>         0.0000
     13 N1          2.8940    0.4287   -1.2026 N.ar      1 <0>         0.0000
     14 N2         -0.4999   -1.0367    2.6478 N.ar      1 <0>         0.0000
     15 O1          4.9879   -0.3279    1.5603 O.2       1 <0>         0.0000
     16 Br1        -2.1127   -0.0262    0.6120 Br        1 <0>         0.0000
     17 H1          5.0715   -2.2950   -2.9312 H         1 <0>         0.0000
     18 H2          3.2413   -1.1100   -4.1883 H         1 <0>         0.0000
     19 H3          5.4495   -1.6677   -0.5094 H         1 <0>         0.0000
     20 H4          2.7129   -0.6320    3.6254 H         1 <0>         0.0000
     21 H5          0.5936    1.1582    0.3219 H         1 <0>         0.0000
     22 H6          1.8969    0.6237   -2.9996 H         1 <0>         0.0000
     23 H7          0.6066   -1.8495    4.1925 H         1 <0>         0.0000
     24 H8          2.8371    1.9290    0.8348 H         1 <0>         0.0000
     25 H9          3.5608    1.5511    2.4255 H         1 <0>         0.0000
@<TRIPOS>BOND
     1    1    2 ar
     2    1    3 ar
     3    1   17 1
     4    2    6 ar
     5    2   18 1
     6    3    9 ar
     7    3   19 1
     8    4    7 ar
     9    4    8 ar
    10    4   20 1
    11    5    8 ar
    12    5   10 ar
    13    5   21 1
    14    6   13 ar
    15    6   22 1
    16    7   14 ar
    17    7   23 1
    18    8   12 1
    19    9   11 1
    20    9   13 ar
    21   10   14 ar
    22   10   16 1
    23   11   12 1
    24   11   15 2
    25   12   24 1
    26   12   25 1
