@<TRIPOS>MOLECULE
*****
   22    22     0     0     0
SMALL
NO_CHARGES

@<TRIPOS>ATOM
      1 C1          1.7030   -1.1283    2.4588 C.ar      1 <0>         0.0000
      2 C2          1.2204   -0.9361    3.7494 C.ar      1 <0>         0.0000
      3 C3          3.7118   -2.1963    3.3698 C.ar      1 <0>         0.0000
      4 C4          2.9419   -1.7553    2.2652 C.ar      1 <0>         0.0000
      5 C5          3.1968   -1.9878    4.6610 C.ar      1 <0>         0.0000
      6 C6          1.9565   -1.3606    4.8536 C.ar      1 <0>         0.0000
      7 C7          2.9364   -1.6557   -0.2574 C.2       1 <0>         0.0000
      8 C8          5.0447   -2.8686    3.1293 C.3       1 <0>         0.0000
      9 C9          3.8062   -2.0518   -1.4409 C.3       1 <0>         0.0000
     10 N1          3.4753   -1.9742    0.9761 N.am      1 <0>         0.0000
     11 O1          1.8546   -1.1020   -0.4163 O.2       1 <0>         0.0000
     12 Cl1         4.1154   -2.5186    6.0586 Cl        1 <0>         0.0000
     13 Br1         1.2273   -1.0619    6.5947 Br        1 <0>         0.0000
     14 H1          1.1312   -0.7993    1.6030 H         1 <0>         0.0000
     15 H2          0.2617   -0.4511    3.9001 H         1 <0>         0.0000
     16 H3          5.7342   -2.2022    2.5956 H         1 <0>         0.0000
     17 H4          5.5307   -3.1519    4.0601 H         1 <0>         0.0000
     18 H5          4.9255   -3.7839    2.5358 H         1 <0>         0.0000
     19 H6          3.2309   -2.7224   -2.0846 H         1 <0>         0.0000
     20 H7          4.7445   -2.5418   -1.1657 H         1 <0>         0.0000
     21 H8          4.0319   -1.1532   -2.0212 H         1 <0>         0.0000
     22 H9          4.3750   -2.4302    0.9477 H         1 <0>         0.0000
@<TRIPOS>BOND
     1    1    2 ar
     2    1    4 ar
     3    1   14 1
     4    2    6 ar
     5    2   15 1
     6    3    4 ar
     7    3    5 ar
     8    3    8 1
     9    4   10 1
    10    5    6 ar
    11    5   12 1
    12    6   13 1
    13    7    9 1
    14    7   10 am
    15    7   11 2
    16    8   16 1
    17    8   17 1
    18    8   18 1
    19    9   19 1
    20    9   20 1
    21    9   21 1
    22   10   22 1
