@<TRIPOS>MOLECULE
*****
   50    52     0     0     0
SMALL
NO_CHARGES

@<TRIPOS>ATOM
      1 C1         -0.0764   -5.6728    0.5491 C.ar      1 <0>         0.0000
      2 C2          0.9282   -5.7265    1.5177 C.ar      1 <0>         0.0000
      3 C3         -0.0169   -4.7053   -0.4597 C.ar      1 <0>         0.0000
      4 C4          1.9881   -4.8177    1.4609 C.ar      1 <0>         0.0000
      5 C5          4.3893   -1.1772    0.8478 C.2       1 <0>         0.0000
      6 C6          1.0289   -3.7786   -0.5270 C.ar      1 <0>         0.0000
      7 C7          2.0387   -3.8532    0.4523 C.ar      1 <0>         0.0000
      8 C8          4.7055   -1.7632   -0.4077 C.2       1 <0>         0.0000
      9 C9          3.3581   -1.9406    1.3674 C.2       1 <0>         0.0000
     10 C10         1.9461    0.9249   -1.3502 C.3       1 <0>         0.0000
     11 C11         1.6578   -0.4076   -2.0429 C.3       1 <0>         0.0000
     12 C12        -0.0322   -0.9262   -0.3915 C.3       1 <0>         0.0000
     13 C13         0.1942    0.3949    0.3543 C.3       1 <0>         0.0000
     14 C14         0.7280    1.4874   -0.5966 C.3       1 <0>         0.0000
     15 C15         5.7380   -1.3313   -1.4051 C.3       1 <0>         0.0000
     16 C16         2.5565   -1.7753    2.6192 C.3       1 <0>         0.0000
     17 C17        -1.0591    0.8089    1.1322 C.3       1 <0>         0.0000
     18 C18        -0.3358    2.0223   -1.5650 C.3       1 <0>         0.0000
     19 C19         1.0593   -2.7242   -1.6147 C.3       1 <0>         0.0000
     20 N1          3.9255   -2.8173   -0.6516 N.2       1 <0>         0.0000
     21 N2          3.1205   -2.9270    0.4473 N.pl3     1 <0>         0.0000
     22 N3          1.1773   -1.3780   -1.0674 N.3       1 <0>         0.0000
     23 O1          1.1578    2.5641    0.2673 O.3       1 <0>         0.0000
     24 H1         -0.9049   -6.3756    0.5794 H         1 <0>         0.0000
     25 H2          0.8961   -6.4746    2.3051 H         1 <0>         0.0000
     26 H3         -0.8083   -4.6551   -1.2042 H         1 <0>         0.0000
     27 H4          2.7932   -4.8600    2.1889 H         1 <0>         0.0000
     28 H5          4.8399   -0.3069    1.3075 H         1 <0>         0.0000
     29 H6          2.7486    0.7679   -0.6233 H         1 <0>         0.0000
     30 H7          2.2956    1.6576   -2.0905 H         1 <0>         0.0000
     31 H8          0.9378   -0.2650   -2.8738 H         1 <0>         0.0000
     32 H9          2.5825   -0.7953   -2.4811 H         1 <0>         0.0000
     33 H10        -0.3300   -1.6915    0.3330 H         1 <0>         0.0000
     34 H11        -0.8803   -0.8221   -1.0994 H         1 <0>         0.0000
     35 H12         1.0039    0.2240    1.0723 H         1 <0>         0.0000
     36 H13         6.7459   -1.3573   -0.9763 H         1 <0>         0.0000
     37 H14         5.7163   -1.9921   -2.2751 H         1 <0>         0.0000
     38 H15         5.5532   -0.3051   -1.7437 H         1 <0>         0.0000
     39 H16         1.4843   -1.8532    2.4143 H         1 <0>         0.0000
     40 H17         2.8020   -2.5306    3.3738 H         1 <0>         0.0000
     41 H18         2.7519   -0.7914    3.0514 H         1 <0>         0.0000
     42 H19        -1.9401    0.8718    0.4840 H         1 <0>         0.0000
     43 H20        -0.9149    1.7809    1.6105 H         1 <0>         0.0000
     44 H21        -1.2806    0.0736    1.9141 H         1 <0>         0.0000
     45 H22        -1.1415    2.5155   -1.0162 H         1 <0>         0.0000
     46 H23        -0.7716    1.2312   -2.1815 H         1 <0>         0.0000
     47 H24         0.1099    2.7584   -2.2455 H         1 <0>         0.0000
     48 H25         1.9340   -2.9017   -2.2457 H         1 <0>         0.0000
     49 H26         0.1619   -2.8388   -2.2517 H         1 <0>         0.0000
     50 H27         1.5296    3.2618   -0.2963 H         1 <0>         0.0000
@<TRIPOS>BOND
     1    1    2 ar
     2    1    3 ar
     3    1   24 1
     4    2    4 ar
     5    2   25 1
     6    3    6 ar
     7    3   26 1
     8    4    7 ar
     9    4   27 1
    10    5    8 1
    11    5    9 2
    12    5   28 1
    13    6    7 ar
    14    6   19 1
    15    7   21 1
    16    8   15 1
    17    8   20 2
    18    9   16 1
    19    9   21 1
    20   10   11 1
    21   10   14 1
    22   10   29 1
    23   10   30 1
    24   11   22 1
    25   11   31 1
    26   11   32 1
    27   12   13 1
    28   12   22 1
    29   12   33 1
    30   12   34 1
    31   13   14 1
    32   13   17 1
    33   13   35 1
    34   14   18 1
    35   14   23 1
    36   15   36 1
    37   15   37 1
    38   15   38 1
    39   16   39 1
    40   16   40 1
    41   16   41 1
    42   17   42 1
    43   17   43 1
    44   17   44 1
    45   18   45 1
    46   18   46 1
    47   18   47 1
    48   19   22 1
    49   19   48 1
    50   19   49 1
    51   20   21 1
    52   23   50 1
