@<TRIPOS>MOLECULE
*****
   27    29     0     0     0
SMALL
NO_CHARGES

@<TRIPOS>ATOM
      1 C1          9.3609   -4.4512   -1.5987 C.ar      1 <0>         0.0000
      2 C2          9.1867   -5.8338   -1.4874 C.ar      1 <0>         0.0000
      3 C3          8.2655   -3.6039   -1.4450 C.ar      1 <0>         0.0000
      4 C4          2.6338   -0.3225    0.2681 C.ar      1 <0>         0.0000
      5 C5          1.5473    0.2469    0.9200 C.ar      1 <0>         0.0000
      6 C6          7.9184   -6.3625   -1.2379 C.ar      1 <0>         0.0000
      7 C7          1.1870   -1.8530    2.0891 C.ar      1 <0>         0.0000
      8 C8          3.0315   -1.6543    0.5040 C.ar      1 <0>         0.0000
      9 C9          6.9815   -4.1133   -1.1794 C.ar      1 <0>         0.0000
     10 C10         0.8305   -0.5304    1.8336 C.ar      1 <0>         0.0000
     11 C11         2.2822   -2.4150    1.4271 C.ar      1 <0>         0.0000
     12 C12         6.8240   -5.5072   -1.0895 C.ar      1 <0>         0.0000
     13 C13         5.8747   -3.1547   -1.0108 C.2       1 <0>         0.0000
     14 C14         4.1941   -2.1660   -0.2220 C.2       1 <0>         0.0000
     15 N1          4.9183   -3.2331   -0.0192 N.2       1 <0>         0.0000
     16 N2          5.7610   -2.0973   -1.7896 N.2       1 <0>         0.0000
     17 O1          4.6413   -1.4278   -1.2719 O.3       1 <0>         0.0000
     18 Cl1        -0.5399    0.1608    2.6710 Cl        1 <0>         0.0000
     19 Cl2         2.6405   -4.0826    1.7824 Cl        1 <0>         0.0000
     20 Br1         5.1067   -6.3175   -0.8385 Br        1 <0>         0.0000
     21 H1         10.3443   -4.0352   -1.7976 H         1 <0>         0.0000
     22 H2         10.0331   -6.5061   -1.5990 H         1 <0>         0.0000
     23 H3          8.3871   -2.5277   -1.5185 H         1 <0>         0.0000
     24 H4          3.2005    0.2709   -0.4410 H         1 <0>         0.0000
     25 H5          1.2602    1.2751    0.7277 H         1 <0>         0.0000
     26 H6          7.7730   -7.4354   -1.1682 H         1 <0>         0.0000
     27 H7          0.6193   -2.4504    2.7936 H         1 <0>         0.0000
@<TRIPOS>BOND
     1    1    2 ar
     2    1    3 ar
     3    1   21 1
     4    2    6 ar
     5    2   22 1
     6    3    9 ar
     7    3   23 1
     8    4    5 ar
     9    4    8 ar
    10    4   24 1
    11    5   10 ar
    12    5   25 1
    13    6   12 ar
    14    6   26 1
    15    7   10 ar
    16    7   11 ar
    17    7   27 1
    18    8   11 ar
    19    8   14 1
    20    9   12 ar
    21    9   13 1
    22   10   18 1
    23   11   19 1
    24   12   20 1
    25   13   15 1
    26   13   16 2
    27   14   15 2
    28   14   17 1
    29   16   17 1
