@<TRIPOS>MOLECULE
*****
   25    26     0     0     0
SMALL
NO_CHARGES

@<TRIPOS>ATOM
      1 C1          3.0753   -2.0591   -2.4785 C.ar      1 <0>         0.0000
      2 C2          4.1085   -2.9797   -2.3133 C.ar      1 <0>         0.0000
      3 C3          2.9244   -1.0482   -1.5265 C.ar      1 <0>         0.0000
      4 C4          1.4383   -1.0043    2.2587 C.ar      1 <0>         0.0000
      5 C5          0.0833   -0.1989    0.4524 C.ar      1 <0>         0.0000
      6 C6          4.9510   -2.8410   -1.2007 C.ar      1 <0>         0.0000
      7 C7          0.4059   -1.8835    2.5749 C.ar      1 <0>         0.0000
      8 C8          1.2810   -0.1353    1.1674 C.ar      1 <0>         0.0000
      9 C9          3.8242   -0.9875   -0.4531 C.ar      1 <0>         0.0000
     10 C10        -0.8769   -1.1298    0.8631 C.ar      1 <0>         0.0000
     11 C11         3.7304    0.0929    0.6009 C.2       1 <0>         0.0000
     12 C12         2.3892    0.8180    0.7764 C.3       1 <0>         0.0000
     13 N1          4.8240   -1.8719   -0.2935 N.ar      1 <0>         0.0000
     14 N2         -0.7461   -1.9542    1.8833 N.ar      1 <0>         0.0000
     15 O1          4.6772    0.3660    1.3156 O.2       1 <0>         0.0000
     16 Br1        -2.5204   -1.2389   -0.1428 Br        1 <0>         0.0000
     17 H1          2.3963   -2.1264   -3.3241 H         1 <0>         0.0000
     18 H2          4.2640   -3.7893   -3.0206 H         1 <0>         0.0000
     19 H3          2.1245   -0.3243   -1.6294 H         1 <0>         0.0000
     20 H4          2.3517   -1.0008    2.8469 H         1 <0>         0.0000
     21 H5         -0.1053    0.4478   -0.3982 H         1 <0>         0.0000
     22 H6          5.7642   -3.5468   -1.0367 H         1 <0>         0.0000
     23 H7          0.4979   -2.5693    3.4144 H         1 <0>         0.0000
     24 H8          2.1228    1.3536   -0.1405 H         1 <0>         0.0000
     25 H9          2.5468    1.5629    1.5605 H         1 <0>         0.0000
@<TRIPOS>BOND
     1    1    2 ar
     2    1    3 ar
     3    1   17 1
     4    2    6 ar
     5    2   18 1
     6    3    9 ar
     7    3   19 1
     8    4    7 ar
     9    4    8 ar
    10    4   20 1
    11    5    8 ar
    12    5   10 ar
    13    5   21 1
    14    6   13 ar
    15    6   22 1
    16    7   14 ar
    17    7   23 1
    18    8   12 1
    19    9   11 1
    20    9   13 ar
    21   10   14 ar
    22   10   16 1
    23   11   12 1
    24   11   15 2
    25   12   24 1
    26   12   25 1
