@<TRIPOS>MOLECULE
*****
   40    43     0     0     0
SMALL
NO_CHARGES

@<TRIPOS>ATOM
      1 C1          2.2974    3.5980   -2.7078 C.ar      1 <0>         0.0000
      2 C2          1.4865    2.4699   -2.7647 C.ar      1 <0>         0.0000
      3 C3          3.0502    1.3141   -1.3229 C.ar      1 <0>         0.0000
      4 C4          5.4378    6.5756   -2.5014 C.2       1 <0>         0.0000
      5 C5          4.4423    5.7406   -2.9473 C.2       1 <0>         0.0000
      6 C6          3.5012    3.5994   -1.9948 C.ar      1 <0>         0.0000
      7 C7          1.8671    1.3035   -2.0762 C.ar      1 <0>         0.0000
      8 C8          3.8716    2.4459   -1.2793 C.ar      1 <0>         0.0000
      9 C9          5.2977    5.0117   -1.0335 C.2       1 <0>         0.0000
     10 C10         0.0650   -0.1449   -3.0027 C.2       1 <0>         0.0000
     11 C11        -3.1802   -1.3873   -1.1303 C.2       1 <0>         0.0000
     12 C12         5.4588    4.1283    0.1543 C.3       1 <0>         0.0000
     13 C13         1.3852   -1.0311   -1.2782 C.3       1 <0>         0.0000
     14 C14         0.1409   -1.9010   -1.5120 C.3       1 <0>         0.0000
     15 C15        -4.4110   -2.0365   -1.7337 C.3       1 <0>         0.0000
     16 C16        -0.8764   -1.7668   -0.3690 C.3       1 <0>         0.0000
     17 N1          5.9665    6.1131   -1.3089 N.2       1 <0>         0.0000
     18 N2          4.3505    4.7302   -1.9958 N.pl3     1 <0>         0.0000
     19 N3          1.0687    0.1404   -2.0838 N.am      1 <0>         0.0000
     20 N4         -2.1923   -2.2604   -0.7186 N.am      1 <0>         0.0000
     21 O1         -0.3455    0.5366   -3.9124 O.2       1 <0>         0.0000
     22 O2         -3.0705   -0.1715   -1.0098 O.2       1 <0>         0.0000
     23 O3         -0.4198   -1.4006   -2.7397 O.3       1 <0>         0.0000
     24 S1          5.3931    2.3645   -0.3599 S.3       1 <0>         0.0000
     25 H1          1.9800    4.4994   -3.2227 H         1 <0>         0.0000
     26 H2          0.5664    2.4892   -3.3315 H         1 <0>         0.0000
     27 H3          3.3551    0.4431   -0.7542 H         1 <0>         0.0000
     28 H4          5.8122    7.4744   -2.9736 H         1 <0>         0.0000
     29 H5          3.8403    5.7449   -3.8430 H         1 <0>         0.0000
     30 H6          6.4359    4.3032    0.6060 H         1 <0>         0.0000
     31 H7          4.6820    4.3048    0.9056 H         1 <0>         0.0000
     32 H8          1.5016   -0.7688   -0.2220 H         1 <0>         0.0000
     33 H9          2.3071   -1.5154   -1.6238 H         1 <0>         0.0000
     34 H10         0.3964   -2.9493   -1.6862 H         1 <0>         0.0000
     35 H11        -5.2991   -1.5150   -1.3722 H         1 <0>         0.0000
     36 H12        -4.3678   -1.9112   -2.8202 H         1 <0>         0.0000
     37 H13        -4.4963   -3.1032   -1.5060 H         1 <0>         0.0000
     38 H14        -0.9998   -0.7132   -0.1089 H         1 <0>         0.0000
     39 H15        -0.4879   -2.2959    0.5099 H         1 <0>         0.0000
     40 H16        -2.2883   -3.2351   -0.9723 H         1 <0>         0.0000
@<TRIPOS>BOND
     1    1    2 ar
     2    1    6 ar
     3    1   25 1
     4    2    7 ar
     5    2   26 1
     6    3    7 ar
     7    3    8 ar
     8    3   27 1
     9    4    5 2
    10    4   17 1
    11    4   28 1
    12    5   18 1
    13    5   29 1
    14    6    8 ar
    15    6   18 1
    16    7   19 1
    17    8   24 1
    18    9   12 1
    19    9   17 2
    20    9   18 1
    21   10   19 am
    22   10   21 2
    23   10   23 1
    24   11   15 1
    25   11   20 am
    26   11   22 2
    27   12   24 1
    28   12   30 1
    29   12   31 1
    30   13   14 1
    31   13   19 1
    32   13   32 1
    33   13   33 1
    34   14   16 1
    35   14   23 1
    36   14   34 1
    37   15   35 1
    38   15   36 1
    39   15   37 1
    40   16   20 1
    41   16   38 1
    42   16   39 1
    43   20   40 1
