@<TRIPOS>MOLECULE
*****
   39    41     0     0     0
SMALL
NO_CHARGES

@<TRIPOS>ATOM
      1 C1          2.6696   -1.3080    5.6422 C.1       1 <0>         0.0000
      2 C2         -0.3264   -4.8450    3.5854 C.ar      1 <0>         0.0000
      3 C3         -0.4570   -3.6860    2.8153 C.ar      1 <0>         0.0000
      4 C4          0.3895   -4.8018    4.7859 C.ar      1 <0>         0.0000
      5 C5          0.1217   -2.4873    3.2405 C.ar      1 <0>         0.0000
      6 C6          0.9642   -3.6045    5.2156 C.ar      1 <0>         0.0000
      7 C7         -2.9256   -1.1784    5.2131 C.2       1 <0>         0.0000
      8 C8         -1.5416    0.2846    4.6042 C.2       1 <0>         0.0000
      9 C9          0.8331   -2.4451    4.4435 C.ar      1 <0>         0.0000
     10 C10         3.3670    0.6682    1.7458 C.3       1 <0>         0.0000
     11 C11         2.1203    1.5974    1.6470 C.3       1 <0>         0.0000
     12 C12         3.6987    0.5573    3.2536 C.3       1 <0>         0.0000
     13 C13         1.8158    2.0334    3.0979 C.3       1 <0>         0.0000
     14 C14         2.3824    0.9047    3.9606 C.3       1 <0>         0.0000
     15 C15         0.3919   -0.5205    6.0353 C.3       1 <0>         0.0000
     16 C16         1.3657   -1.1087    4.9590 C.3       1 <0>         0.0000
     17 N1          3.6618   -1.4427    6.2320 N.1       1 <0>         0.0000
     18 N2         -2.7833   -0.1123    4.3673 N.2       1 <0>         0.0000
     19 N3         -1.8584   -1.4567    5.9503 N.2       1 <0>         0.0000
     20 N4         -0.9706   -0.4964    5.5550 N.pl3     1 <0>         0.0000
     21 O1          1.4578   -0.2105    3.8658 O.3       1 <0>         0.0000
     22 H1         -0.7776   -5.7761    3.2526 H         1 <0>         0.0000
     23 H2         -1.0131   -3.7108    1.8819 H         1 <0>         0.0000
     24 H3          0.4996   -5.6986    5.3896 H         1 <0>         0.0000
     25 H4          0.0211   -1.5883    2.6443 H         1 <0>         0.0000
     26 H5          1.5177   -3.5815    6.1509 H         1 <0>         0.0000
     27 H6         -3.8358   -1.7586    5.2916 H         1 <0>         0.0000
     28 H7         -1.0239    1.1041    4.1270 H         1 <0>         0.0000
     29 H8          3.1369   -0.3188    1.3367 H         1 <0>         0.0000
     30 H9          4.2178    1.0593    1.1813 H         1 <0>         0.0000
     31 H10         2.2917    2.4598    0.9970 H         1 <0>         0.0000
     32 H11         1.2694    1.0483    1.2349 H         1 <0>         0.0000
     33 H12         4.0821   -0.4229    3.5418 H         1 <0>         0.0000
     34 H13         4.4505    1.2993    3.5468 H         1 <0>         0.0000
     35 H14         2.3558    2.9538    3.3471 H         1 <0>         0.0000
     36 H15         0.7540    2.2132    3.2858 H         1 <0>         0.0000
     37 H16         2.5162    1.1943    5.0083 H         1 <0>         0.0000
     38 H17         0.4053   -1.1334    6.9363 H         1 <0>         0.0000
     39 H18         0.7137    0.4922    6.2913 H         1 <0>         0.0000
@<TRIPOS>BOND
     1    1   16 1
     2    1   17 3
     3    2    4 ar
     4    2    3 ar
     5    2   22 1
     6    3    5 ar
     7    3   23 1
     8    4    6 ar
     9    4   24 1
    10    5    9 ar
    11    5   25 1
    12    6    9 ar
    13    6   26 1
    14    7   18 1
    15    7   19 2
    16    7   27 1
    17    8   18 2
    18    8   20 1
    19    8   28 1
    20    9   16 1
    21   10   11 1
    22   10   12 1
    23   10   29 1
    24   10   30 1
    25   11   13 1
    26   11   31 1
    27   11   32 1
    28   12   14 1
    29   12   33 1
    30   12   34 1
    31   13   14 1
    32   13   35 1
    33   13   36 1
    34   14   21 1
    35   14   37 1
    36   15   16 1
    37   15   20 1
    38   15   38 1
    39   15   39 1
    40   16   21 1
    41   19   20 1
