@<TRIPOS>MOLECULE
*****
   34    37     0     0     0
SMALL
NO_CHARGES

@<TRIPOS>ATOM
      1 C1          5.2325   -6.4747    1.6545 C.ar      1 <0>         0.0000
      2 C2          5.8492   -5.3579    2.2346 C.ar      1 <0>         0.0000
      3 C3          4.0652   -6.3373    0.8929 C.ar      1 <0>         0.0000
      4 C4          5.3101   -4.0748    2.0651 C.ar      1 <0>         0.0000
      5 C5         -1.8746   -4.5142   -2.8136 C.ar      1 <0>         0.0000
      6 C6         -3.3115   -6.6320   -4.0829 C.ar      1 <0>         0.0000
      7 C7          3.5266   -5.0595    0.7230 C.ar      1 <0>         0.0000
      8 C8         -1.4162   -5.8577   -2.7034 C.ar      1 <0>         0.0000
      9 C9         -3.0146   -4.2811   -3.5407 C.ar      1 <0>         0.0000
     10 C10        -3.7213   -5.3165   -4.1637 C.ar      1 <0>         0.0000
     11 C11         4.1553   -3.9633    1.3080 C.ar      1 <0>         0.0000
     12 C12        -2.1433   -6.8802   -3.3389 C.ar      1 <0>         0.0000
     13 C13         2.3142   -4.6039   -0.0215 C.2       1 <0>         0.0000
     14 C14        -0.2059   -6.1368   -1.9347 C.2       1 <0>         0.0000
     15 C15        -4.8030   -3.3896   -4.5742 C.3       1 <0>         0.0000
     16 N1          2.0305   -3.3351   -0.0224 N.2       1 <0>         0.0000
     17 N2          0.4408   -5.1817   -1.3625 N.2       1 <0>         0.0000
     18 N3          1.5578   -5.5346   -0.6670 N.pl3     1 <0>         0.0000
     19 O1          2.5743   -1.9343    2.0853 O.2       1 <0>         0.0000
     20 O2          3.9722   -1.6232   -0.0000 O.2       1 <0>         0.0000
     21 O3         -3.6402   -3.0827   -3.7904 O.3       1 <0>         0.0000
     22 O4         -4.8090   -4.8124   -4.8213 O.3       1 <0>         0.0000
     23 S1          3.1943   -2.4908    0.8835 S.o2      1 <0>         0.0000
     24 Cl1        -1.6252   -8.5619   -3.2380 Cl        1 <0>         0.0000
     25 H1          5.6652   -7.4607    1.7971 H         1 <0>         0.0000
     26 H2          6.7540   -5.4879    2.8215 H         1 <0>         0.0000
     27 H3          3.6077   -7.2207    0.4541 H         1 <0>         0.0000
     28 H4          5.7783   -3.2015    2.5092 H         1 <0>         0.0000
     29 H5         -1.3200   -3.7188   -2.3281 H         1 <0>         0.0000
     30 H6         -3.8569   -7.4348   -4.5653 H         1 <0>         0.0000
     31 H7          0.1232   -7.1791   -1.8667 H         1 <0>         0.0000
     32 H8         -5.7043   -3.1210   -4.0136 H         1 <0>         0.0000
     33 H9         -4.7488   -2.8615   -5.5308 H         1 <0>         0.0000
     34 H10         1.8387   -6.5124   -0.6223 H         1 <0>         0.0000
@<TRIPOS>BOND
     1    1    2 ar
     2    1    3 ar
     3    1   25 1
     4    2    4 ar
     5    2   26 1
     6    3    7 ar
     7    3   27 1
     8    4   11 ar
     9    4   28 1
    10    5    8 ar
    11    5    9 ar
    12    5   29 1
    13    6   10 ar
    14    6   12 ar
    15    6   30 1
    16    7   11 ar
    17    7   13 1
    18    8   12 ar
    19    8   14 1
    20    9   10 ar
    21    9   21 1
    22   10   22 1
    23   11   23 1
    24   12   24 1
    25   13   16 2
    26   13   18 1
    27   14   17 2
    28   14   31 1
    29   15   21 1
    30   15   22 1
    31   15   32 1
    32   15   33 1
    33   16   23 1
    34   17   18 1
    35   18   34 1
    36   19   23 2
    37   20   23 2
