@<TRIPOS>MOLECULE
*****
   23    24     0     0     0
SMALL
NO_CHARGES

@<TRIPOS>ATOM
      1 C1         -0.6037    0.1613   -2.2487 C.2       1 <0>         0.0000
      2 C2         -0.7122   -1.0127   -1.4466 C.2       1 <0>         0.0000
      3 C3         -1.7951    0.8352   -2.3552 C.2       1 <0>         0.0000
      4 C4         -1.9873   -1.2145   -0.9546 C.2       1 <0>         0.0000
      5 C5         -5.3069   -3.7889    1.2136 C.2       1 <0>         0.0000
      6 C6         -7.4615   -3.6303    1.4564 C.2       1 <0>         0.0000
      7 C7         -2.4257   -2.3047   -0.1118 C.2       1 <0>         0.0000
      8 N1         -5.7784   -5.0086    1.2573 N.2       1 <0>         0.0000
      9 N2         -7.1663   -4.9078    1.4296 N.2       1 <0>         0.0000
     10 N3         -3.6479   -2.4045    0.2826 N.2       1 <0>         0.0000
     11 N4         -6.3210   -2.8640    1.3354 N.pl3     1 <0>         0.0000
     12 N5         -6.2853   -1.4614    1.3931 N.3       1 <0>         0.0000
     13 N6         -3.9623   -3.4405    1.1367 N.pl3     1 <0>         0.0000
     14 S1         -3.0708    0.0499   -1.4827 S.3       1 <0>         0.0000
     15 S2         -9.0466   -2.8835    1.6128 S.3       1 <0>         0.0000
     16 H1          0.3135    0.4912   -2.7248 H         1 <0>         0.0000
     17 H2          0.1135   -1.6858   -1.2366 H         1 <0>         0.0000
     18 H3         -1.9988    1.7486   -2.8999 H         1 <0>         0.0000
     19 H4         -1.6611   -3.0381    0.1745 H         1 <0>         0.0000
     20 H5         -5.7228   -1.1393    0.6059 H         1 <0>         0.0000
     21 H6         -5.7960   -1.1923    2.2475 H         1 <0>         0.0000
     22 H7         -3.3586   -4.2644    1.1185 H         1 <0>         0.0000
     23 H8         -9.6632   -4.0824    1.6591 H         1 <0>         0.0000
@<TRIPOS>BOND
     1    1    2 1
     2    1    3 2
     3    1   16 1
     4    2    4 2
     5    2   17 1
     6    3   14 1
     7    3   18 1
     8    4    7 1
     9    4   14 1
    10    5    8 2
    11    5   11 1
    12    5   13 1
    13    6    9 2
    14    6   11 1
    15    6   15 1
    16    7   10 2
    17    7   19 1
    18    8    9 1
    19   10   13 1
    20   11   12 1
    21   12   20 1
    22   12   21 1
    23   13   22 1
    24   15   23 1
