@<TRIPOS>MOLECULE
*****
   34    36     0     0     0
SMALL
NO_CHARGES

@<TRIPOS>ATOM
      1 C1          1.6636   -0.3127    1.8261 C.2       1 <0>         0.0000
      2 C2          4.7463   -1.5278    2.7216 C.3       1 <0>         0.0000
      3 C3          4.2452   -2.5999    3.6714 C.3       1 <0>         0.0000
      4 C4          0.5318    0.6732   -1.2263 C.3       1 <0>         0.0000
      5 C5          0.3617   -1.8263   -0.9949 C.3       1 <0>         0.0000
      6 C6          0.1524    0.8061    0.2544 C.3       1 <0>         0.0000
      7 C7         -0.0144   -1.6234    0.4801 C.3       1 <0>         0.0000
      8 C8         -1.5523   -0.5501   -2.1893 C.3       1 <0>         0.0000
      9 C9          0.1542   -0.7748   -3.3580 C.3       1 <0>         0.0000
     10 C10         3.3707   -1.4134    3.3285 C.3       1 <0>         0.0000
     11 C11        -0.0421   -0.6098   -1.8338 C.3       1 <0>         0.0000
     12 C12         2.1475   -1.6192    2.4651 C.3       1 <0>         0.0000
     13 N1          0.5669   -0.3866    0.9959 N.am      1 <0>         0.0000
     14 O1          2.2142    0.7608    2.0749 O.2       1 <0>         0.0000
     15 O2         -1.2773   -0.7448   -3.5996 O.3       1 <0>         0.0000
     16 H1          5.5167   -0.8464    3.0688 H         1 <0>         0.0000
     17 H2          4.8136   -1.7774    1.6656 H         1 <0>         0.0000
     18 H3          3.9830   -3.5681    3.2515 H         1 <0>         0.0000
     19 H4          4.6784   -2.6492    4.6663 H         1 <0>         0.0000
     20 H5          0.1712    1.5471   -1.7818 H         1 <0>         0.0000
     21 H6          1.6258    0.6632   -1.3098 H         1 <0>         0.0000
     22 H7          1.4467   -1.9774   -1.0698 H         1 <0>         0.0000
     23 H8         -0.1224   -2.7309   -1.3823 H         1 <0>         0.0000
     24 H9          0.6315    1.6706    0.7114 H         1 <0>         0.0000
     25 H10        -0.9355    0.9182    0.3584 H         1 <0>         0.0000
     26 H11        -1.1071   -1.5543    0.5752 H         1 <0>         0.0000
     27 H12         0.2980   -2.4735    1.0836 H         1 <0>         0.0000
     28 H13        -2.1754   -1.3584   -1.7853 H         1 <0>         0.0000
     29 H14        -2.0441    0.4134   -2.0036 H         1 <0>         0.0000
     30 H15         0.6660    0.0579   -3.8570 H         1 <0>         0.0000
     31 H16         0.5990   -1.7247   -3.6809 H         1 <0>         0.0000
     32 H17         3.2557   -0.6541    4.0957 H         1 <0>         0.0000
     33 H18         1.3299   -2.0491    3.0589 H         1 <0>         0.0000
     34 H19         2.3738   -2.3528    1.6818 H         1 <0>         0.0000
@<TRIPOS>BOND
     1    1   12 1
     2    1   13 am
     3    1   14 2
     4    2    3 1
     5    2   10 1
     6    2   16 1
     7    2   17 1
     8    3   10 1
     9    3   18 1
    10    3   19 1
    11    4    6 1
    12    4   11 1
    13    4   20 1
    14    4   21 1
    15    5    7 1
    16    5   11 1
    17    5   22 1
    18    5   23 1
    19    6   13 1
    20    6   24 1
    21    6   25 1
    22    7   13 1
    23    7   26 1
    24    7   27 1
    25    8   11 1
    26    8   15 1
    27    8   28 1
    28    8   29 1
    29    9   11 1
    30    9   15 1
    31    9   30 1
    32    9   31 1
    33   10   12 1
    34   10   32 1
    35   12   33 1
    36   12   34 1
