@<TRIPOS>MOLECULE
*****
   23    24     0     0     0
SMALL
NO_CHARGES

@<TRIPOS>ATOM
      1 C1         -0.8587   -0.3108   -2.5211 C.2       1 <0>         0.0000
      2 C2         -1.1445   -1.2613   -1.4973 C.2       1 <0>         0.0000
      3 C3         -1.9944    0.1493   -3.1405 C.2       1 <0>         0.0000
      4 C4         -2.4958   -1.5104   -1.3537 C.2       1 <0>         0.0000
      5 C5         -6.1722   -3.9182    0.3887 C.2       1 <0>         0.0000
      6 C6         -8.3003   -4.0039   -0.0470 C.2       1 <0>         0.0000
      7 C7         -3.1116   -2.4157   -0.4092 C.2       1 <0>         0.0000
      8 N1         -6.5627   -5.1441    0.6260 N.2       1 <0>         0.0000
      9 N2         -7.9386   -5.1967    0.3606 N.2       1 <0>         0.0000
     10 N3         -4.3881   -2.5841   -0.3684 N.2       1 <0>         0.0000
     11 N4         -7.2251   -3.1398   -0.0406 N.pl3     1 <0>         0.0000
     12 N5         -7.2897   -1.7742   -0.3612 N.3       1 <0>         0.0000
     13 N6         -4.8929   -3.4174    0.6075 N.pl3     1 <0>         0.0000
     14 S1         -3.4314   -0.5693   -2.4897 S.3       1 <0>         0.0000
     15 S2         -9.8952   -3.4670   -0.5596 S.3       1 <0>         0.0000
     16 H1          0.1408    0.0167   -2.7869 H         1 <0>         0.0000
     17 H2         -0.3881   -1.7457   -0.8871 H         1 <0>         0.0000
     18 H3         -2.0702    0.8688   -3.9461 H         1 <0>         0.0000
     19 H4         -2.4335   -2.9473    0.2706 H         1 <0>         0.0000
     20 H5         -6.5275   -1.5781   -1.0096 H         1 <0>         0.0000
     21 H6         -7.1105   -1.2405    0.4902 H         1 <0>         0.0000
     22 H7         -4.2673   -4.1306    0.9864 H         1 <0>         0.0000
     23 H8        -10.4257   -4.6922   -0.3666 H         1 <0>         0.0000
@<TRIPOS>BOND
     1    1    2 1
     2    1    3 2
     3    1   16 1
     4    2    4 2
     5    2   17 1
     6    3   14 1
     7    3   18 1
     8    4    7 1
     9    4   14 1
    10    5    8 2
    11    5   11 1
    12    5   13 1
    13    6    9 2
    14    6   11 1
    15    6   15 1
    16    7   10 2
    17    7   19 1
    18    8    9 1
    19   10   13 1
    20   11   12 1
    21   12   20 1
    22   12   21 1
    23   13   22 1
    24   15   23 1
