@<TRIPOS>MOLECULE
*****
   39    41     0     0     0
SMALL
NO_CHARGES

@<TRIPOS>ATOM
      1 C1          1.1735   -3.3434   -2.1484 C.ar      1 <0>         0.0000
      2 C2          0.7592   -2.1510   -1.5368 C.ar      1 <0>         0.0000
      3 C3          0.6012   -4.5699   -1.7925 C.ar      1 <0>         0.0000
      4 C4         -0.2389   -2.1550   -0.5530 C.ar      1 <0>         0.0000
      5 C5         -5.7943   -8.6241   -0.0071 C.2       1 <0>         0.0000
      6 C6         -0.3928   -4.5779   -0.8162 C.ar      1 <0>         0.0000
      7 C7         -4.4711   -8.2218    0.3748 C.2       1 <0>         0.0000
      8 C8         -0.7919   -3.3834   -0.2206 C.ar      1 <0>         0.0000
      9 C9         -5.9369   -9.9559    0.2963 C.2       1 <0>         0.0000
     10 C10        -3.8205   -9.3530    0.8824 C.2       1 <0>         0.0000
     11 C11        -1.1213   -5.7733   -0.3045 C.2       1 <0>         0.0000
     12 C12        -3.9671   -6.8597    0.1983 C.2       1 <0>         0.0000
     13 C13        -7.1201  -10.8573    0.1348 C.3       1 <0>         0.0000
     14 C14        -2.3926   -9.5849    1.2812 C.3       1 <0>         0.0000
     15 C15        -4.4262  -11.7665    1.2069 C.3       1 <0>         0.0000
     16 C16        -2.9772   -6.3097    1.2488 C.3       1 <0>         0.0000
     17 N1         -4.7247  -10.3914    0.8373 N.pl3     1 <0>         0.0000
     18 N2         -2.0336   -5.3772    0.6565 N.am      1 <0>         0.0000
     19 O1         -0.9544   -6.9367   -0.6463 O.2       1 <0>         0.0000
     20 O2         -4.3783   -6.1041   -0.6731 O.2       1 <0>         0.0000
     21 O3         -1.5601   -3.4752    2.3581 O.2       1 <0>         0.0000
     22 O4         -3.3461   -3.1045    0.6216 O.2       1 <0>         0.0000
     23 S1         -2.0633   -3.6852    1.0001 S.o2      1 <0>         0.0000
     24 H1          1.9484   -3.3114   -2.9090 H         1 <0>         0.0000
     25 H2          1.2160   -1.2097   -1.8288 H         1 <0>         0.0000
     26 H3          0.9073   -5.5030   -2.2557 H         1 <0>         0.0000
     27 H4         -0.5657   -1.2364   -0.0754 H         1 <0>         0.0000
     28 H5         -6.5475   -7.9747   -0.4322 H         1 <0>         0.0000
     29 H6         -6.9070  -11.7158   -0.5137 H         1 <0>         0.0000
     30 H7         -7.4844  -11.2466    1.0939 H         1 <0>         0.0000
     31 H8         -7.9368  -10.2940   -0.3221 H         1 <0>         0.0000
     32 H9         -2.2441   -9.5251    2.3675 H         1 <0>         0.0000
     33 H10        -2.0528  -10.5750    0.9619 H         1 <0>         0.0000
     34 H11        -1.7387   -8.8572    0.7987 H         1 <0>         0.0000
     35 H12        -3.8665  -12.2817    0.4175 H         1 <0>         0.0000
     36 H13        -3.8425  -11.7948    2.1294 H         1 <0>         0.0000
     37 H14        -5.3572  -12.3066    1.3788 H         1 <0>         0.0000
     38 H15        -2.4332   -7.0891    1.7799 H         1 <0>         0.0000
     39 H16        -3.5784   -5.7714    1.9883 H         1 <0>         0.0000
@<TRIPOS>BOND
     1    1    2 ar
     2    1    3 ar
     3    1   24 1
     4    2    4 ar
     5    2   25 1
     6    3    6 ar
     7    3   26 1
     8    4    8 ar
     9    4   27 1
    10    5    7 1
    11    5    9 2
    12    5   28 1
    13    6    8 ar
    14    6   11 1
    15    7   10 2
    16    7   12 1
    17    8   23 1
    18    9   13 1
    19    9   17 1
    20   10   14 1
    21   10   17 1
    22   11   18 am
    23   11   19 2
    24   12   16 1
    25   12   20 2
    26   13   29 1
    27   13   30 1
    28   13   31 1
    29   14   32 1
    30   14   33 1
    31   14   34 1
    32   15   17 1
    33   15   35 1
    34   15   36 1
    35   15   37 1
    36   16   18 1
    37   16   38 1
    38   16   39 1
    39   18   23 1
    40   21   23 2
    41   22   23 2
