@<TRIPOS>MOLECULE
*****
   41    43     0     0     0
SMALL
NO_CHARGES

@<TRIPOS>ATOM
      1 C1          2.7856   -5.3903   -3.9618 C.ar      1 <0>         0.0000
      2 C2          1.3885   -5.3623   -3.8823 C.ar      1 <0>         0.0000
      3 C3          3.5466   -4.9692   -2.8676 C.ar      1 <0>         0.0000
      4 C4          0.7569   -4.9158   -2.7190 C.ar      1 <0>         0.0000
      5 C5          2.9122   -4.5198   -1.7046 C.ar      1 <0>         0.0000
      6 C6          1.5137   -4.4878   -1.6176 C.ar      1 <0>         0.0000
      7 C7         -0.3782   -3.1130   -0.6152 C.2       1 <0>         0.0000
      8 C8         -1.0138    0.4645   -0.4681 C.3       1 <0>         0.0000
      9 C9          1.6985   -0.5005    0.1803 C.3       1 <0>         0.0000
     10 C10        -1.2705   -0.8946   -1.1289 C.3       1 <0>         0.0000
     11 C11         1.1970   -1.2313   -1.1047 C.3       1 <0>         0.0000
     12 C12        -0.3569    1.8346    1.5875 C.3       1 <0>         0.0000
     13 C13        -0.6146    0.3928    1.0122 C.3       1 <0>         0.0000
     14 C14         0.6359   -0.4745    1.2802 C.3       1 <0>         0.0000
     15 C15         0.8275   -4.0148   -0.3477 C.3       1 <0>         0.0000
     16 N1          0.8780    1.8799    2.3969 N.pl3     1 <0>         0.0000
     17 N2         -0.1352   -1.8096   -0.9742 N.am      1 <0>         0.0000
     18 O1         -1.5232   -3.5593   -0.5140 O.2       1 <0>         0.0000
     19 O2          2.7614    0.2085    2.9123 O.2       1 <0>         0.0000
     20 O3          0.4398   -0.1430    3.9168 O.2       1 <0>         0.0000
     21 S1          1.3001    0.2856    2.8140 S.o2      1 <0>         0.0000
     22 H1          3.2755   -5.7385   -4.8674 H         1 <0>         0.0000
     23 H2          0.7895   -5.6912   -4.7277 H         1 <0>         0.0000
     24 H3          4.6324   -4.9893   -2.9172 H         1 <0>         0.0000
     25 H4         -0.3286   -4.8995   -2.6602 H         1 <0>         0.0000
     26 H5          3.5115   -4.1956   -0.8558 H         1 <0>         0.0000
     27 H6         -0.2473    1.0181   -1.0233 H         1 <0>         0.0000
     28 H7         -1.9317    1.0576   -0.5572 H         1 <0>         0.0000
     29 H8          2.5903   -0.9953    0.5730 H         1 <0>         0.0000
     30 H9          2.0045    0.5204   -0.0725 H         1 <0>         0.0000
     31 H10        -2.1394   -1.3864   -0.6902 H         1 <0>         0.0000
     32 H11        -1.4825   -0.7433   -2.1961 H         1 <0>         0.0000
     33 H12         1.1701   -0.5312   -1.9447 H         1 <0>         0.0000
     34 H13         1.9000   -2.0092   -1.3939 H         1 <0>         0.0000
     35 H14        -0.2583    2.5615    0.7775 H         1 <0>         0.0000
     36 H15        -1.2003    2.1373    2.2111 H         1 <0>         0.0000
     37 H16        -1.4389   -0.0518    1.5754 H         1 <0>         0.0000
     38 H17         0.3504   -1.4856    1.5716 H         1 <0>         0.0000
     39 H18         0.4243   -4.8706    0.1995 H         1 <0>         0.0000
     40 H19         1.5541   -3.5225    0.3064 H         1 <0>         0.0000
     41 H20         1.6691    2.2967    1.9097 H         1 <0>         0.0000
@<TRIPOS>BOND
     1    1    3 ar
     2    1    2 ar
     3    1   22 1
     4    2    4 ar
     5    2   23 1
     6    3    5 ar
     7    3   24 1
     8    4    6 ar
     9    4   25 1
    10    5    6 ar
    11    5   26 1
    12    6   15 1
    13    7   15 1
    14    7   17 am
    15    7   18 2
    16    8   10 1
    17    8   13 1
    18    8   27 1
    19    8   28 1
    20    9   11 1
    21    9   14 1
    22    9   29 1
    23    9   30 1
    24   10   17 1
    25   10   31 1
    26   10   32 1
    27   11   17 1
    28   11   33 1
    29   11   34 1
    30   12   13 1
    31   12   16 1
    32   12   35 1
    33   12   36 1
    34   13   14 1
    35   13   37 1
    36   14   21 1
    37   14   38 1
    38   15   39 1
    39   15   40 1
    40   16   21 1
    41   16   41 1
    42   19   21 2
    43   20   21 2
