@<TRIPOS>MOLECULE
*****
   41    43     0     0     0
SMALL
NO_CHARGES

@<TRIPOS>ATOM
      1 C1          6.4898    1.6931   -2.3081 C.ar      1 <0>         0.0000
      2 C2          5.5224    1.8995   -3.2983 C.ar      1 <0>         0.0000
      3 C3          6.2967    0.6893   -1.3549 C.ar      1 <0>         0.0000
      4 C4          4.3705    1.1101   -3.3353 C.ar      1 <0>         0.0000
      5 C5          5.1412   -0.0984   -1.3922 C.ar      1 <0>         0.0000
      6 C6          4.1673    0.1026   -2.3798 C.ar      1 <0>         0.0000
      7 C7          1.6508    0.0572   -2.6772 C.2       1 <0>         0.0000
      8 C8         -1.0128    1.7317   -0.6914 C.3       1 <0>         0.0000
      9 C9          1.0375   -0.3550    0.6049 C.3       1 <0>         0.0000
     10 C10        -0.1053    1.5357   -1.9054 C.3       1 <0>         0.0000
     11 C11         1.6497    0.7417   -0.2741 C.3       1 <0>         0.0000
     12 C12        -2.6762    0.7049    0.9338 C.3       1 <0>         0.0000
     13 C13        -1.4626    0.4350    0.0092 C.3       1 <0>         0.0000
     14 C14        -0.4393   -0.1863    0.9799 C.3       1 <0>         0.0000
     15 C15         2.9176   -0.7612   -2.4236 C.3       1 <0>         0.0000
     16 N1         -2.2086    1.4081    2.1501 N.pl3     1 <0>         0.0000
     17 N2          1.0925    0.7376   -1.6253 N.am      1 <0>         0.0000
     18 O1          1.1710    0.1148   -3.8136 O.2       1 <0>         0.0000
     19 O2          0.2826    2.0031    2.4840 O.2       1 <0>         0.0000
     20 O3         -0.6433   -0.0408    3.6742 O.2       1 <0>         0.0000
     21 S1         -0.6234    0.8405    2.5070 S.o2      1 <0>         0.0000
     22 H1          7.3848    2.3092   -2.2800 H         1 <0>         0.0000
     23 H2          5.6661    2.6771   -4.0443 H         1 <0>         0.0000
     24 H3          7.0413    0.5199   -0.5813 H         1 <0>         0.0000
     25 H4          3.6221    1.2723   -4.1069 H         1 <0>         0.0000
     26 H5          4.9979   -0.8778   -0.6460 H         1 <0>         0.0000
     27 H6         -0.5517    2.4136    0.0285 H         1 <0>         0.0000
     28 H7         -1.9068    2.2461   -1.0636 H         1 <0>         0.0000
     29 H8          1.1294   -1.3093    0.0756 H         1 <0>         0.0000
     30 H9          1.6258   -0.4550    1.5245 H         1 <0>         0.0000
     31 H10        -0.6486    1.0296   -2.7057 H         1 <0>         0.0000
     32 H11         0.1863    2.5190   -2.2983 H         1 <0>         0.0000
     33 H12         1.5025    1.7242    0.1774 H         1 <0>         0.0000
     34 H13         2.7284    0.6016   -0.3266 H         1 <0>         0.0000
     35 H14        -3.4385    1.3193    0.4503 H         1 <0>         0.0000
     36 H15        -3.1456   -0.2356    1.2387 H         1 <0>         0.0000
     37 H16        -1.7358   -0.3092   -0.7478 H         1 <0>         0.0000
     38 H17        -0.8252   -1.1551    1.3116 H         1 <0>         0.0000
     39 H18         2.9762   -1.4597   -3.2623 H         1 <0>         0.0000
     40 H19         2.8446   -1.3541   -1.5079 H         1 <0>         0.0000
     41 H20        -2.1313    2.4138    2.0011 H         1 <0>         0.0000
@<TRIPOS>BOND
     1    1    3 ar
     2    1    2 ar
     3    1   22 1
     4    2    4 ar
     5    2   23 1
     6    3    5 ar
     7    3   24 1
     8    4    6 ar
     9    4   25 1
    10    5    6 ar
    11    5   26 1
    12    6   15 1
    13    7   15 1
    14    7   17 am
    15    7   18 2
    16    8   10 1
    17    8   13 1
    18    8   27 1
    19    8   28 1
    20    9   11 1
    21    9   14 1
    22    9   29 1
    23    9   30 1
    24   10   17 1
    25   10   31 1
    26   10   32 1
    27   11   17 1
    28   11   33 1
    29   11   34 1
    30   12   13 1
    31   12   16 1
    32   12   35 1
    33   12   36 1
    34   13   14 1
    35   13   37 1
    36   14   21 1
    37   14   38 1
    38   15   39 1
    39   15   40 1
    40   16   21 1
    41   16   41 1
    42   19   21 2
    43   20   21 2
