@<TRIPOS>MOLECULE
*****
   42    45     0     0     0
SMALL
NO_CHARGES

@<TRIPOS>ATOM
      1 C1         -4.1733   -0.5123   -1.1832 C.ar      1 <0>         0.0000
      2 C2         -2.8358   -0.5532   -0.7749 C.ar      1 <0>         0.0000
      3 C3         -5.0072   -1.6195   -0.9652 C.ar      1 <0>         0.0000
      4 C4         -2.2979   -1.6811   -0.1392 C.ar      1 <0>         0.0000
      5 C5         -2.3873   -8.0286    0.9691 C.ar      1 <0>         0.0000
      6 C6         -0.7155   -6.8480   -0.3024 C.ar      1 <0>         0.0000
      7 C7         -4.4873   -2.7438   -0.3354 C.ar      1 <0>         0.0000
      8 C8         -1.5661   -6.9111    0.8089 C.ar      1 <0>         0.0000
      9 C9         -3.1465   -2.7705    0.0786 C.ar      1 <0>         0.0000
     10 C10        -2.3820   -9.0741    0.0410 C.ar      1 <0>         0.0000
     11 C11        -1.5567   -9.0028   -1.1016 C.ar      1 <0>         0.0000
     12 C12        -0.7219   -7.8796   -1.2375 C.ar      1 <0>         0.0000
     13 C13        -1.6374   -4.4111    1.1692 C.2       1 <0>         0.0000
     14 C14        -5.1439   -4.0724   -0.0362 C.3       1 <0>         0.0000
     15 C15        -3.0758  -11.7723   -1.5218 C.3       1 <0>         0.0000
     16 C16        -4.1255   -4.7697    0.8924 C.3       1 <0>         0.0000
     17 C17        -2.7560  -11.4378   -0.0652 C.3       1 <0>         0.0000
     18 C18        -2.7622  -10.5797   -2.4256 C.3       1 <0>         0.0000
     19 C19        -1.5718   -5.7871    1.8305 C.3       1 <0>         0.0000
     20 N1         -2.8653   -4.0101    0.7079 N.am      1 <0>         0.0000
     21 O1         -0.6190   -3.7300    1.0361 O.2       1 <0>         0.0000
     22 O2         -3.2347  -10.1261    0.2936 O.3       1 <0>         0.0000
     23 O3         -1.5059   -9.9706   -2.0707 O.3       1 <0>         0.0000
     24 Cl1         0.3224   -7.7719   -2.6386 Cl        1 <0>         0.0000
     25 H1         -4.5659    0.3755   -1.6714 H         1 <0>         0.0000
     26 H2         -2.1939    0.3063   -0.9503 H         1 <0>         0.0000
     27 H3         -6.0460   -1.5995   -1.2872 H         1 <0>         0.0000
     28 H4         -1.2639   -1.7176    0.1745 H         1 <0>         0.0000
     29 H5         -3.0414   -8.1269    1.8313 H         1 <0>         0.0000
     30 H6         -0.0618   -5.9940   -0.4486 H         1 <0>         0.0000
     31 H7         -6.1223   -3.9713    0.4412 H         1 <0>         0.0000
     32 H8         -5.2848   -4.6452   -0.9602 H         1 <0>         0.0000
     33 H9         -2.4852  -12.6470   -1.8167 H         1 <0>         0.0000
     34 H10        -4.1341  -12.0320   -1.6369 H         1 <0>         0.0000
     35 H11        -4.4413   -4.7028    1.9405 H         1 <0>         0.0000
     36 H12        -3.9819   -5.8193    0.6374 H         1 <0>         0.0000
     37 H13        -3.2554  -12.1280    0.6188 H         1 <0>         0.0000
     38 H14        -1.6784  -11.4897    0.1191 H         1 <0>         0.0000
     39 H15        -2.6529  -10.8870   -3.4681 H         1 <0>         0.0000
     40 H16        -3.5550   -9.8271   -2.3696 H         1 <0>         0.0000
     41 H17        -2.3953   -5.9313    2.5358 H         1 <0>         0.0000
     42 H18        -0.6398   -5.7911    2.4013 H         1 <0>         0.0000
@<TRIPOS>BOND
     1    1    2 ar
     2    1    3 ar
     3    1   25 1
     4    2    4 ar
     5    2   26 1
     6    3    7 ar
     7    3   27 1
     8    4    9 ar
     9    4   28 1
    10    5    8 ar
    11    5   10 ar
    12    5   29 1
    13    6    8 ar
    14    6   12 ar
    15    6   30 1
    16    7    9 ar
    17    7   14 1
    18    8   19 1
    19    9   20 1
    20   10   11 ar
    21   10   22 1
    22   11   12 ar
    23   11   23 1
    24   12   24 1
    25   13   19 1
    26   13   20 am
    27   13   21 2
    28   14   16 1
    29   14   31 1
    30   14   32 1
    31   15   17 1
    32   15   18 1
    33   15   33 1
    34   15   34 1
    35   16   20 1
    36   16   35 1
    37   16   36 1
    38   17   22 1
    39   17   37 1
    40   17   38 1
    41   18   23 1
    42   18   39 1
    43   18   40 1
    44   19   41 1
    45   19   42 1
