@<TRIPOS>MOLECULE
*****
   41    43     0     0     0
SMALL
NO_CHARGES

@<TRIPOS>ATOM
      1 C1          1.9370    3.4976   -5.5036 C.ar      1 <0>         0.0000
      2 C2          2.8599    2.7625   -4.7505 C.ar      1 <0>         0.0000
      3 C3          0.6414    3.0025   -5.6785 C.ar      1 <0>         0.0000
      4 C4          2.4891    1.5439   -4.1772 C.ar      1 <0>         0.0000
      5 C5          0.2729    1.7834   -5.0995 C.ar      1 <0>         0.0000
      6 C6          1.1896    1.0411   -4.3443 C.ar      1 <0>         0.0000
      7 C7          1.2976   -0.4513   -2.2832 C.2       1 <0>         0.0000
      8 C8         -1.1269    1.6432   -0.3636 C.3       1 <0>         0.0000
      9 C9          0.6399   -0.7397    0.8586 C.3       1 <0>         0.0000
     10 C10        -0.2127    1.4154   -1.5717 C.3       1 <0>         0.0000
     11 C11         1.3837    0.3024    0.0203 C.3       1 <0>         0.0000
     12 C12        -2.9466    0.7137    1.1471 C.3       1 <0>         0.0000
     13 C13        -1.7372    0.3645    0.2440 C.3       1 <0>         0.0000
     14 C14        -0.8190   -0.4181    1.2056 C.3       1 <0>         0.0000
     15 C15         0.7998   -0.2862   -3.7206 C.3       1 <0>         0.0000
     16 N1         -2.4497    1.2933    2.4150 N.pl3     1 <0>         0.0000
     17 N2          0.8131    0.4035   -1.3257 N.am      1 <0>         0.0000
     18 O1          2.1372   -1.3148   -2.0111 O.2       1 <0>         0.0000
     19 O2          0.0786    1.6163    2.8287 O.2       1 <0>         0.0000
     20 O3         -1.0769   -0.3752    3.9019 O.2       1 <0>         0.0000
     21 S1         -0.9369    0.5489    2.7770 S.o2      1 <0>         0.0000
     22 H1          2.2255    4.4459   -5.9493 H         1 <0>         0.0000
     23 H2          3.8701    3.1389   -4.6106 H         1 <0>         0.0000
     24 H3         -0.0829    3.5643   -6.2630 H         1 <0>         0.0000
     25 H4          3.2111    0.9771   -3.5939 H         1 <0>         0.0000
     26 H5         -0.7391    1.4072   -5.2377 H         1 <0>         0.0000
     27 H6         -0.5998    2.2136    0.4051 H         1 <0>         0.0000
     28 H7         -1.9429    2.2876   -0.7125 H         1 <0>         0.0000
     29 H8          0.6541   -1.6794    0.2992 H         1 <0>         0.0000
     30 H9          1.1937   -0.9258    1.7857 H         1 <0>         0.0000
     31 H10        -0.8260    1.0950   -2.4144 H         1 <0>         0.0000
     32 H11         0.2459    2.3703   -1.8602 H         1 <0>         0.0000
     33 H12         1.3739    1.2839    0.4965 H         1 <0>         0.0000
     34 H13         2.4222   -0.0138   -0.0818 H         1 <0>         0.0000
     35 H14        -3.6227    1.4322    0.6786 H         1 <0>         0.0000
     36 H15        -3.5229   -0.1868    1.3816 H         1 <0>         0.0000
     37 H16        -2.0623   -0.3044   -0.5617 H         1 <0>         0.0000
     38 H17        -1.3249   -1.3499    1.4766 H         1 <0>         0.0000
     39 H18        -0.2853   -0.4240   -3.7752 H         1 <0>         0.0000
     40 H19         1.2551   -1.1128   -4.2717 H         1 <0>         0.0000
     41 H20        -2.2676    2.2928    2.3294 H         1 <0>         0.0000
@<TRIPOS>BOND
     1    1    3 ar
     2    1    2 ar
     3    1   22 1
     4    2    4 ar
     5    2   23 1
     6    3    5 ar
     7    3   24 1
     8    4    6 ar
     9    4   25 1
    10    5    6 ar
    11    5   26 1
    12    6   15 1
    13    7   15 1
    14    7   17 am
    15    7   18 2
    16    8   10 1
    17    8   13 1
    18    8   27 1
    19    8   28 1
    20    9   11 1
    21    9   14 1
    22    9   29 1
    23    9   30 1
    24   10   17 1
    25   10   31 1
    26   10   32 1
    27   11   17 1
    28   11   33 1
    29   11   34 1
    30   12   13 1
    31   12   16 1
    32   12   35 1
    33   12   36 1
    34   13   14 1
    35   13   37 1
    36   14   21 1
    37   14   38 1
    38   15   39 1
    39   15   40 1
    40   16   21 1
    41   16   41 1
    42   19   21 2
    43   20   21 2
