@<TRIPOS>MOLECULE
*****
   39    42     0     0     0
SMALL
NO_CHARGES

@<TRIPOS>ATOM
      1 C1         -4.6337   -5.6909    4.1169 C.ar      1 <0>         0.0000
      2 C2          4.2316   -0.6116    0.8925 C.ar      1 <0>         0.0000
      3 C3         -3.5601   -4.8654    4.3809 C.ar      1 <0>         0.0000
      4 C4          3.0310   -1.0727    0.3492 C.ar      1 <0>         0.0000
      5 C5         -5.3560   -5.5652    2.9066 C.ar      1 <0>         0.0000
      6 C6         -1.7601   -2.0560    2.6607 C.ar      1 <0>         0.0000
      7 C7          4.5488    0.7428    0.7649 C.ar      1 <0>         0.0000
      8 C8          2.6084    1.1627   -0.3742 C.ar      1 <0>         0.0000
      9 C9         -3.1637   -3.8753    3.4426 C.ar      1 <0>         0.0000
     10 C10         2.1775   -0.1721   -0.2982 C.ar      1 <0>         0.0000
     11 C11        -3.8777   -3.7304    2.2091 C.ar      1 <0>         0.0000
     12 C12        -2.0655   -2.9797    3.6369 C.ar      1 <0>         0.0000
     13 C13        -4.9759   -4.6112    1.9935 C.ar      1 <0>         0.0000
     14 C14        -2.5421   -2.0141    1.4810 C.ar      1 <0>         0.0000
     15 C15        -0.3567    0.2994   -0.6604 C.3       1 <0>         0.0000
     16 C16         0.0760   -1.7249   -0.2460 C.3       1 <0>         0.0000
     17 C17         0.8828   -0.5986   -0.9497 C.3       1 <0>         0.0000
     18 C18        -2.2312   -0.9855    0.4114 C.3       1 <0>         0.0000
     19 N1          3.7563    1.6240    0.1380 N.ar      1 <0>         0.0000
     20 N2         -3.5650   -2.8216    1.2482 N.ar      1 <0>         0.0000
     21 N3         -0.8127   -0.6940    0.3338 N.3       1 <0>         0.0000
     22 O1         -1.2946   -3.0015    4.7611 O.3       1 <0>         0.0000
     23 F1         -5.6658   -4.4961    0.8419 F         1 <0>         0.0000
     24 H1         -4.9324   -6.4456    4.8384 H         1 <0>         0.0000
     25 H2          4.9111   -1.2869    1.4052 H         1 <0>         0.0000
     26 H3         -3.0295   -4.9953    5.3221 H         1 <0>         0.0000
     27 H4          2.7660   -2.1234    0.4317 H         1 <0>         0.0000
     28 H5         -6.2030   -6.2070    2.6850 H         1 <0>         0.0000
     29 H6         -0.9289   -1.3709    2.7848 H         1 <0>         0.0000
     30 H7          5.4758    1.1371    1.1785 H         1 <0>         0.0000
     31 H8          1.9905    1.9034   -0.8811 H         1 <0>         0.0000
     32 H9         -0.1839    1.3004   -0.2523 H         1 <0>         0.0000
     33 H10        -1.0189    0.3730   -1.5378 H         1 <0>         0.0000
     34 H11        -0.4363   -2.3775   -0.9709 H         1 <0>         0.0000
     35 H12         0.5839   -2.3499    0.4949 H         1 <0>         0.0000
     36 H13         1.0553   -0.7797   -2.0146 H         1 <0>         0.0000
     37 H14        -2.6506   -1.3508   -0.5415 H         1 <0>         0.0000
     38 H15        -2.7565   -0.0534    0.6594 H         1 <0>         0.0000
     39 H16        -1.6228   -3.6735    5.3782 H         1 <0>         0.0000
@<TRIPOS>BOND
     1    1    3 ar
     2    1    5 ar
     3    1   24 1
     4    2    4 ar
     5    2    7 ar
     6    2   25 1
     7    3    9 ar
     8    3   26 1
     9    4   10 ar
    10    4   27 1
    11    5   13 ar
    12    5   28 1
    13    6   12 ar
    14    6   14 ar
    15    6   29 1
    16    7   19 ar
    17    7   30 1
    18    8   10 ar
    19    8   19 ar
    20    8   31 1
    21    9   11 ar
    22    9   12 ar
    23   10   17 1
    24   11   13 ar
    25   11   20 ar
    26   12   22 1
    27   13   23 1
    28   14   18 1
    29   14   20 ar
    30   15   17 1
    31   15   21 1
    32   15   32 1
    33   15   33 1
    34   16   17 1
    35   16   21 1
    36   16   34 1
    37   16   35 1
    38   17   36 1
    39   18   21 1
    40   18   37 1
    41   18   38 1
    42   22   39 1
