@<TRIPOS>MOLECULE
*****
   41    43     0     0     0
SMALL
NO_CHARGES

@<TRIPOS>ATOM
      1 C1          4.6669   -5.2896    1.2801 C.ar      1 <0>         0.0000
      2 C2          3.3564   -5.6244    0.9200 C.ar      1 <0>         0.0000
      3 C3          4.8973   -4.1571    2.0661 C.ar      1 <0>         0.0000
      4 C4          2.2852   -4.8334    1.3413 C.ar      1 <0>         0.0000
      5 C5          3.8228   -3.3650    2.4848 C.ar      1 <0>         0.0000
      6 C6          2.5079   -3.6931    2.1283 C.ar      1 <0>         0.0000
      7 C7          0.2964   -2.6020    1.5073 C.2       1 <0>         0.0000
      8 C8          1.5663    0.4556    1.2299 C.3       1 <0>         0.0000
      9 C9         -1.0726   -0.1170   -0.4155 C.3       1 <0>         0.0000
     10 C10         1.8028   -0.8813    0.5062 C.3       1 <0>         0.0000
     11 C11        -0.3810   -1.4816   -0.5476 C.3       1 <0>         0.0000
     12 C12        -0.0879    2.3956    1.3632 C.3       1 <0>         0.0000
     13 C13         0.7965    1.5330    0.4332 C.3       1 <0>         0.0000
     14 C14        -0.1197    1.0435   -0.7051 C.3       1 <0>         0.0000
     15 C15         1.3402   -2.8440    2.5999 C.3       1 <0>         0.0000
     16 N1         -0.9996    3.2011    0.5271 N.pl3     1 <0>         0.0000
     17 N2          0.6179   -1.7369    0.4871 N.am      1 <0>         0.0000
     18 O1         -0.7778   -3.2072    1.5384 O.2       1 <0>         0.0000
     19 O2         -2.4326    2.3860   -1.4524 O.2       1 <0>         0.0000
     20 O3         -0.1602    3.4256   -1.9191 O.2       1 <0>         0.0000
     21 S1         -1.0289    2.6025   -1.0759 S.o2      1 <0>         0.0000
     22 H1          5.4994   -5.9062    0.9515 H         1 <0>         0.0000
     23 H2          3.1686   -6.5050    0.3108 H         1 <0>         0.0000
     24 H3          5.9108   -3.8889    2.3535 H         1 <0>         0.0000
     25 H4          1.2688   -5.0996    1.0616 H         1 <0>         0.0000
     26 H5          4.0101   -2.4859    3.0990 H         1 <0>         0.0000
     27 H6          1.0364    0.2346    2.1631 H         1 <0>         0.0000
     28 H7          2.5361    0.8747    1.5202 H         1 <0>         0.0000
     29 H8         -1.8981   -0.0793   -1.1333 H         1 <0>         0.0000
     30 H9         -1.5186   -0.0288    0.5805 H         1 <0>         0.0000
     31 H10         2.1157   -0.7112   -0.5297 H         1 <0>         0.0000
     32 H11         2.6245   -1.4180    0.9792 H         1 <0>         0.0000
     33 H12        -1.1256   -2.2733   -0.4760 H         1 <0>         0.0000
     34 H13         0.1057   -1.5559   -1.5286 H         1 <0>         0.0000
     35 H14        -0.6612    1.7439    2.0334 H         1 <0>         0.0000
     36 H15         0.5358    3.0528    1.9763 H         1 <0>         0.0000
     37 H16         1.5281    2.1975   -0.0372 H         1 <0>         0.0000
     38 H17         0.4518    0.8521   -1.6171 H         1 <0>         0.0000
     39 H18         0.7989   -3.3621    3.3955 H         1 <0>         0.0000
     40 H19         1.7092   -1.9030    3.0181 H         1 <0>         0.0000
     41 H20        -1.9562    3.2358    0.8716 H         1 <0>         0.0000
@<TRIPOS>BOND
     1    1    3 ar
     2    1    2 ar
     3    1   22 1
     4    2    4 ar
     5    2   23 1
     6    3    5 ar
     7    3   24 1
     8    4    6 ar
     9    4   25 1
    10    5    6 ar
    11    5   26 1
    12    6   15 1
    13    7   15 1
    14    7   17 am
    15    7   18 2
    16    8   10 1
    17    8   13 1
    18    8   27 1
    19    8   28 1
    20    9   11 1
    21    9   14 1
    22    9   29 1
    23    9   30 1
    24   10   17 1
    25   10   31 1
    26   10   32 1
    27   11   17 1
    28   11   33 1
    29   11   34 1
    30   12   13 1
    31   12   16 1
    32   12   35 1
    33   12   36 1
    34   13   14 1
    35   13   37 1
    36   14   21 1
    37   14   38 1
    38   15   39 1
    39   15   40 1
    40   16   21 1
    41   16   41 1
    42   19   21 2
    43   20   21 2
