@<TRIPOS>MOLECULE
*****
   43    45     0     0     0
SMALL
NO_CHARGES

@<TRIPOS>ATOM
      1 C1          0.0853    6.3331   -0.2092 C.ar      1 <0>         0.0000
      2 C2          0.8188    6.0588   -1.3830 C.ar      1 <0>         0.0000
      3 C3         -1.0277    5.5632    0.1250 C.ar      1 <0>         0.0000
      4 C4          0.4748    5.0102   -2.2379 C.ar      1 <0>         0.0000
      5 C5         -1.3891    4.5229   -0.7357 C.ar      1 <0>         0.0000
      6 C6         -0.6394    4.2421   -1.8857 C.ar      1 <0>         0.0000
      7 C7         -2.4881    3.5481   -0.6673 C.2       1 <0>         0.0000
      8 C8         -2.0383    0.3635   -2.2129 C.2       1 <0>         0.0000
      9 C9          0.6879   -0.8253   -0.4134 C.3       1 <0>         0.0000
     10 C10        -0.6124   -1.2808   -1.1040 C.3       1 <0>         0.0000
     11 C11        -2.0586    0.1571    0.2907 C.3       1 <0>         0.0000
     12 C12        -0.9665   -0.1152    1.3454 C.3       1 <0>         0.0000
     13 C13         0.4381    0.1574    0.7661 C.3       1 <0>         0.0000
     14 C14        -1.2865    0.6605    2.6275 C.3       1 <0>         0.0000
     15 C15         0.6238    1.6082    0.3060 C.3       1 <0>         0.0000
     16 C16        -3.0262    1.5391   -2.1072 C.3       1 <0>         0.0000
     17 N1         -1.1438    3.0931   -2.5131 N.pl3     1 <0>         0.0000
     18 N2         -2.3485    2.7914   -1.8269 N.am      1 <0>         0.0000
     19 N3         -1.6143   -0.2167   -1.0590 N.am      1 <0>         0.0000
     20 O1         -3.3451    3.3566    0.1979 O.2       1 <0>         0.0000
     21 O2         -1.6562    0.0163   -3.3355 O.2       1 <0>         0.0000
     22 O3          1.3550   -0.1276    1.8423 O.3       1 <0>         0.0000
     23 H1          0.3942    7.1524    0.4335 H         1 <0>         0.0000
     24 H2          1.6809    6.6748   -1.6252 H         1 <0>         0.0000
     25 H3         -1.6109    5.7567    1.0208 H         1 <0>         0.0000
     26 H4          1.0576    4.7946   -3.1291 H         1 <0>         0.0000
     27 H5          1.2031   -1.7063   -0.0182 H         1 <0>         0.0000
     28 H6          1.3491   -0.3551   -1.1497 H         1 <0>         0.0000
     29 H7         -0.4444   -1.5416   -2.1476 H         1 <0>         0.0000
     30 H8         -1.0256   -2.1617   -0.5987 H         1 <0>         0.0000
     31 H9         -2.9613   -0.4086    0.5601 H         1 <0>         0.0000
     32 H10        -2.3237    1.2118    0.3193 H         1 <0>         0.0000
     33 H11        -0.9762   -1.1828    1.5982 H         1 <0>         0.0000
     34 H12        -1.3357    1.7386    2.4473 H         1 <0>         0.0000
     35 H13        -0.5304    0.4673    3.3908 H         1 <0>         0.0000
     36 H14        -2.2619    0.3528    3.0206 H         1 <0>         0.0000
     37 H15         0.3943    2.3185    1.1035 H         1 <0>         0.0000
     38 H16         0.0045    1.8329   -0.5633 H         1 <0>         0.0000
     39 H17         1.6649    1.7696   -0.0004 H         1 <0>         0.0000
     40 H18        -3.7796    1.4271   -1.3254 H         1 <0>         0.0000
     41 H19        -3.5291    1.5943   -3.0769 H         1 <0>         0.0000
     42 H20        -1.2868    3.1444   -3.5211 H         1 <0>         0.0000
     43 H21         2.2495    0.0854    1.5312 H         1 <0>         0.0000
@<TRIPOS>BOND
     1    1    2 ar
     2    1    3 ar
     3    1   23 1
     4    2    4 ar
     5    2   24 1
     6    3    5 ar
     7    3   25 1
     8    4    6 ar
     9    4   26 1
    10    5    6 ar
    11    5    7 1
    12    6   17 1
    13    7   18 am
    14    7   20 2
    15    8   16 1
    16    8   19 am
    17    8   21 2
    18    9   10 1
    19    9   13 1
    20    9   27 1
    21    9   28 1
    22   10   19 1
    23   10   29 1
    24   10   30 1
    25   11   12 1
    26   11   19 1
    27   11   31 1
    28   11   32 1
    29   12   13 1
    30   12   14 1
    31   12   33 1
    32   13   15 1
    33   13   22 1
    34   14   34 1
    35   14   35 1
    36   14   36 1
    37   15   37 1
    38   15   38 1
    39   15   39 1
    40   16   18 1
    41   16   40 1
    42   16   41 1
    43   17   18 1
    44   17   42 1
    45   22   43 1
