@<TRIPOS>MOLECULE
*****
   43    46     0     0     0
SMALL
NO_CHARGES

@<TRIPOS>ATOM
      1 C1         -3.3663   -8.1449   -0.2055 C.ar      1 <0>         0.0000
      2 C2         -3.5110   -9.4930   -0.4588 C.ar      1 <0>         0.0000
      3 C3         -1.0844   -9.7763   -0.5376 C.ar      1 <0>         0.0000
      4 C4          0.4117   -6.4095    0.0838 C.ar      1 <0>         0.0000
      5 C5         -0.9320   -8.3909   -0.2757 C.ar      1 <0>         0.0000
      6 C6         -2.0778   -7.5537   -0.1057 C.ar      1 <0>         0.0000
      7 C7          0.3429   -7.7616   -0.1718 C.ar      1 <0>         0.0000
      8 C8         -2.3563  -10.2866   -0.6212 C.ar      1 <0>         0.0000
      9 C9         -0.7938   -5.6734    0.2377 C.ar      1 <0>         0.0000
     10 C10         0.8676    0.4568   -1.6335 C.3       1 <0>         0.0000
     11 C11         0.5347   -0.9545   -3.5453 C.3       1 <0>         0.0000
     12 C12         0.2906   -3.3289   -1.5760 C.3       1 <0>         0.0000
     13 C13         0.5704   -2.0896    0.1117 C.3       1 <0>         0.0000
     14 C14         0.1886    1.5953   -2.3885 C.3       1 <0>         0.0000
     15 C15        -0.1373    0.2148   -4.2582 C.3       1 <0>         0.0000
     16 C16         0.9433   -1.9394   -1.3832 C.3       1 <0>         0.0000
     17 C17        -0.7236   -4.1920    0.5520 C.3       1 <0>         0.0000
     18 N1         -1.9962   -6.2112    0.1422 N.ar      1 <0>         0.0000
     19 N2          0.3422   -0.8306   -2.0973 N.3       1 <0>         0.0000
     20 N3          0.3964   -3.5450   -0.1104 N.3       1 <0>         0.0000
     21 O1          0.3692    1.4666   -3.7976 O.3       1 <0>         0.0000
     22 O2          1.4395   -8.5580   -0.3366 O.3       1 <0>         0.0000
     23 F1         -2.5291  -11.6113   -0.8708 F         1 <0>         0.0000
     24 H1         -4.2299   -7.5003   -0.0748 H         1 <0>         0.0000
     25 H2         -4.4887   -9.9591   -0.5367 H         1 <0>         0.0000
     26 H3         -0.2195  -10.4170   -0.6679 H         1 <0>         0.0000
     27 H4          1.3589   -5.8814    0.1609 H         1 <0>         0.0000
     28 H5          1.9626    0.5237   -1.7801 H         1 <0>         0.0000
     29 H6          0.6660    0.5612   -0.5614 H         1 <0>         0.0000
     30 H7          0.0867   -1.8940   -3.8874 H         1 <0>         0.0000
     31 H8          1.6090   -0.9748   -3.8106 H         1 <0>         0.0000
     32 H9         -0.7503   -3.2309   -1.9201 H         1 <0>         0.0000
     33 H10         0.8121   -4.0729   -2.1866 H         1 <0>         0.0000
     34 H11         1.3186   -1.8297    0.8680 H         1 <0>         0.0000
     35 H12        -0.3755   -1.5690    0.3270 H         1 <0>         0.0000
     36 H13        -0.8857    1.6058   -2.1484 H         1 <0>         0.0000
     37 H14         0.6235    2.5582   -2.1080 H         1 <0>         0.0000
     38 H15         0.0612    0.1778   -5.3325 H         1 <0>         0.0000
     39 H16        -1.2249    0.1684   -4.0947 H         1 <0>         0.0000
     40 H17         2.0367   -1.9867   -1.5296 H         1 <0>         0.0000
     41 H18        -1.6958   -3.7433    0.2892 H         1 <0>         0.0000
     42 H19        -0.5907   -4.0675    1.6354 H         1 <0>         0.0000
     43 H20         2.2407   -8.0176   -0.2389 H         1 <0>         0.0000
@<TRIPOS>BOND
     1    1    2 ar
     2    1    6 ar
     3    1   24 1
     4    2    8 ar
     5    2   25 1
     6    3    5 ar
     7    3    8 ar
     8    3   26 1
     9    4    7 ar
    10    4    9 ar
    11    4   27 1
    12    5    6 ar
    13    5    7 ar
    14    6   18 ar
    15    7   22 1
    16    8   23 1
    17    9   17 1
    18    9   18 ar
    19   10   14 1
    20   10   19 1
    21   10   28 1
    22   10   29 1
    23   11   15 1
    24   11   19 1
    25   11   30 1
    26   11   31 1
    27   12   16 1
    28   12   20 1
    29   12   32 1
    30   12   33 1
    31   13   16 1
    32   13   20 1
    33   13   34 1
    34   13   35 1
    35   14   21 1
    36   14   36 1
    37   14   37 1
    38   15   21 1
    39   15   38 1
    40   15   39 1
    41   16   19 1
    42   16   40 1
    43   17   20 1
    44   17   41 1
    45   17   42 1
    46   22   43 1
