@<TRIPOS>MOLECULE
*****
   43    45     0     0     0
SMALL
NO_CHARGES

@<TRIPOS>ATOM
      1 C1         -1.8308    6.4959   -0.2006 C.ar      1 <0>         0.0000
      2 C2         -0.5220    7.0016   -0.0450 C.ar      1 <0>         0.0000
      3 C3         -2.1927    5.2816    0.3791 C.ar      1 <0>         0.0000
      4 C4          0.4455    6.3228    0.6968 C.ar      1 <0>         0.0000
      5 C5         -1.2254    4.5908    1.1164 C.ar      1 <0>         0.0000
      6 C6          0.0702    5.1053    1.2753 C.ar      1 <0>         0.0000
      7 C7         -1.2630    3.2735    1.7662 C.2       1 <0>         0.0000
      8 C8          1.3206    1.2877    1.6665 C.2       1 <0>         0.0000
      9 C9         -0.7716   -1.6486    0.6211 C.3       1 <0>         0.0000
     10 C10        -0.4413   -0.4692    1.5337 C.3       1 <0>         0.0000
     11 C11         1.3390   -0.2533   -0.2191 C.3       1 <0>         0.0000
     12 C12         0.1997   -0.2085   -1.2468 C.3       1 <0>         0.0000
     13 C13        -0.8816   -1.2718   -0.8767 C.3       1 <0>         0.0000
     14 C14        -0.3170    1.2314   -1.4016 C.3       1 <0>         0.0000
     15 C15        -2.3100   -0.8437   -1.2256 C.3       1 <0>         0.0000
     16 C16         0.5609    1.9202    2.8428 C.3       1 <0>         0.0000
     17 N1          0.8390    4.2555    2.0880 N.pl3     1 <0>         0.0000
     18 N2         -0.0180    3.1569    2.3645 N.am      1 <0>         0.0000
     19 N3          0.8236    0.1654    1.0960 N.am      1 <0>         0.0000
     20 O1         -2.1505    2.4124    1.8090 O.2       1 <0>         0.0000
     21 O2          2.3167    1.9001    1.2423 O.2       1 <0>         0.0000
     22 O3         -0.5283   -2.4302   -1.6684 O.3       1 <0>         0.0000
     23 H1         -2.5556    7.0615   -0.7791 H         1 <0>         0.0000
     24 H2         -0.2611    7.9479   -0.5117 H         1 <0>         0.0000
     25 H3         -3.1904    4.8672    0.2654 H         1 <0>         0.0000
     26 H4          1.4475    6.7240    0.8195 H         1 <0>         0.0000
     27 H5          0.0038   -2.4142    0.7202 H         1 <0>         0.0000
     28 H6         -1.7097   -2.0953    0.9696 H         1 <0>         0.0000
     29 H7         -1.2531    0.2643    1.5253 H         1 <0>         0.0000
     30 H8         -0.3308   -0.8379    2.5588 H         1 <0>         0.0000
     31 H9          1.7658   -1.2587   -0.1515 H         1 <0>         0.0000
     32 H10         2.1402    0.4347   -0.4849 H         1 <0>         0.0000
     33 H11         0.6129   -0.5314   -2.2076 H         1 <0>         0.0000
     34 H12        -0.8293    1.5950   -0.5072 H         1 <0>         0.0000
     35 H13        -1.0135    1.3210   -2.2387 H         1 <0>         0.0000
     36 H14         0.5236    1.9051   -1.5965 H         1 <0>         0.0000
     37 H15        -2.3912   -0.5862   -2.2849 H         1 <0>         0.0000
     38 H16        -2.6386    0.0129   -0.6302 H         1 <0>         0.0000
     39 H17        -3.0030   -1.6702   -1.0253 H         1 <0>         0.0000
     40 H18         1.2756    2.1431    3.6389 H         1 <0>         0.0000
     41 H19        -0.2547    1.3226    3.2443 H         1 <0>         0.0000
     42 H20         1.7041    3.9016    1.6638 H         1 <0>         0.0000
     43 H21        -1.1645   -3.1359   -1.4659 H         1 <0>         0.0000
@<TRIPOS>BOND
     1    1    2 ar
     2    1    3 ar
     3    1   23 1
     4    2    4 ar
     5    2   24 1
     6    3    5 ar
     7    3   25 1
     8    4    6 ar
     9    4   26 1
    10    5    6 ar
    11    5    7 1
    12    6   17 1
    13    7   18 am
    14    7   20 2
    15    8   16 1
    16    8   19 am
    17    8   21 2
    18    9   10 1
    19    9   13 1
    20    9   27 1
    21    9   28 1
    22   10   19 1
    23   10   29 1
    24   10   30 1
    25   11   12 1
    26   11   19 1
    27   11   31 1
    28   11   32 1
    29   12   13 1
    30   12   14 1
    31   12   33 1
    32   13   15 1
    33   13   22 1
    34   14   34 1
    35   14   35 1
    36   14   36 1
    37   15   37 1
    38   15   38 1
    39   15   39 1
    40   16   18 1
    41   16   40 1
    42   16   41 1
    43   17   18 1
    44   17   42 1
    45   22   43 1
