@<TRIPOS>MOLECULE
*****
   43    45     0     0     0
SMALL
NO_CHARGES

@<TRIPOS>ATOM
      1 C1         -7.2008   -0.8296    3.8968 C.ar      1 <0>         0.0000
      2 C2         -7.6147    0.4187    3.3884 C.ar      1 <0>         0.0000
      3 C3         -6.2527   -1.5907    3.2133 C.ar      1 <0>         0.0000
      4 C4         -7.0877    0.9415    2.2051 C.ar      1 <0>         0.0000
      5 C5         -5.7347   -1.0786    2.0215 C.ar      1 <0>         0.0000
      6 C6         -6.1278    0.1734    1.5397 C.ar      1 <0>         0.0000
      7 C7         -4.7491   -1.6290    1.0793 C.2       1 <0>         0.0000
      8 C8         -2.4113    0.2399    0.2145 C.2       1 <0>         0.0000
      9 C9          0.5461    0.3810   -2.0419 C.3       1 <0>         0.0000
     10 C10        -0.9744    0.3954   -1.8255 C.3       1 <0>         0.0000
     11 C11        -0.2268    1.3165    0.3526 C.3       1 <0>         0.0000
     12 C12         1.0394    0.4387    0.4372 C.3       1 <0>         0.0000
     13 C13         1.2615   -0.3492   -0.8909 C.3       1 <0>         0.0000
     14 C14         2.2118    1.3244    0.8751 C.3       1 <0>         0.0000
     15 C15         2.7346   -0.5906   -1.2291 C.3       1 <0>         0.0000
     16 C16        -3.4412   -0.4973   -0.6659 C.3       1 <0>         0.0000
     17 N1         -5.4176    0.4950    0.3647 N.pl3     1 <0>         0.0000
     18 N2         -4.6962   -0.6940    0.0235 N.am      1 <0>         0.0000
     19 N3         -1.2886    0.6877   -0.4239 N.am      1 <0>         0.0000
     20 O1         -4.0868   -2.6589    1.1187 O.2       1 <0>         0.0000
     21 O2         -2.6173    0.3998    1.4151 O.2       1 <0>         0.0000
     22 O3          0.6197   -1.6273   -0.6721 O.3       1 <0>         0.0000
     23 H1         -7.6270   -1.1952    4.8267 H         1 <0>         0.0000
     24 H2         -8.3554    0.9956    3.9364 H         1 <0>         0.0000
     25 H3         -5.9204   -2.5575    3.5805 H         1 <0>         0.0000
     26 H4         -7.3991    1.9135    1.8321 H         1 <0>         0.0000
     27 H5          0.7584   -0.1088   -2.9998 H         1 <0>         0.0000
     28 H6          0.9388    1.4008   -2.1221 H         1 <0>         0.0000
     29 H7         -1.4388    1.1339   -2.4948 H         1 <0>         0.0000
     30 H8         -1.3680   -0.5875   -2.0870 H         1 <0>         0.0000
     31 H9         -0.6206    1.5155    1.3484 H         1 <0>         0.0000
     32 H10         0.0198    2.2838   -0.1065 H         1 <0>         0.0000
     33 H11         0.8711   -0.3267    1.2006 H         1 <0>         0.0000
     34 H12         2.4631    2.0718    0.1129 H         1 <0>         0.0000
     35 H13         3.1125    0.7453    1.0926 H         1 <0>         0.0000
     36 H14         1.9435    1.8684    1.7873 H         1 <0>         0.0000
     37 H15         3.2358   -1.1182   -0.4128 H         1 <0>         0.0000
     38 H16         3.2721    0.3413   -1.4254 H         1 <0>         0.0000
     39 H17         2.8140   -1.2109   -2.1308 H         1 <0>         0.0000
     40 H18        -3.0599   -1.4948   -0.9022 H         1 <0>         0.0000
     41 H19        -3.6188    0.0301   -1.6075 H         1 <0>         0.0000
     42 H20        -6.0364    0.7417   -0.4084 H         1 <0>         0.0000
     43 H21         0.8213   -2.1991   -1.4309 H         1 <0>         0.0000
@<TRIPOS>BOND
     1    1    2 ar
     2    1    3 ar
     3    1   23 1
     4    2    4 ar
     5    2   24 1
     6    3    5 ar
     7    3   25 1
     8    4    6 ar
     9    4   26 1
    10    5    6 ar
    11    5    7 1
    12    6   17 1
    13    7   18 am
    14    7   20 2
    15    8   16 1
    16    8   19 am
    17    8   21 2
    18    9   10 1
    19    9   13 1
    20    9   27 1
    21    9   28 1
    22   10   19 1
    23   10   29 1
    24   10   30 1
    25   11   12 1
    26   11   19 1
    27   11   31 1
    28   11   32 1
    29   12   13 1
    30   12   14 1
    31   12   33 1
    32   13   15 1
    33   13   22 1
    34   14   34 1
    35   14   35 1
    36   14   36 1
    37   15   37 1
    38   15   38 1
    39   15   39 1
    40   16   18 1
    41   16   40 1
    42   16   41 1
    43   17   18 1
    44   17   42 1
    45   22   43 1
