@<TRIPOS>MOLECULE
*****
   39    42     0     0     0
SMALL
NO_CHARGES

@<TRIPOS>ATOM
      1 C1         -1.6989   -5.0484   -3.5803 C.ar      1 <0>         0.0000
      2 C2         -3.4226    2.6384    3.3961 C.ar      1 <0>         0.0000
      3 C3         -2.2582   -4.4888   -2.4499 C.ar      1 <0>         0.0000
      4 C4         -2.4212    2.2392    2.5132 C.ar      1 <0>         0.0000
      5 C5         -0.4704   -4.5644   -4.0892 C.ar      1 <0>         0.0000
      6 C6         -1.4078   -1.7509   -0.0269 C.ar      1 <0>         0.0000
      7 C7         -3.7392    3.9990    3.4845 C.ar      1 <0>         0.0000
      8 C8         -2.1648    4.5414    1.9158 C.ar      1 <0>         0.0000
      9 C9         -1.6087   -3.4187   -1.7783 C.ar      1 <0>         0.0000
     10 C10        -1.7627    3.2096    1.7421 C.ar      1 <0>         0.0000
     11 C11        -0.3638   -2.9118   -2.2738 C.ar      1 <0>         0.0000
     12 C12        -2.1183   -2.7815   -0.6037 C.ar      1 <0>         0.0000
     13 C13         0.1623   -3.5287   -3.4449 C.ar      1 <0>         0.0000
     14 C14        -0.1865   -1.3399   -0.6128 C.ar      1 <0>         0.0000
     15 C15        -0.9975    1.6829   -0.2056 C.3       1 <0>         0.0000
     16 C16         0.4430    1.9170    1.3193 C.3       1 <0>         0.0000
     17 C17        -0.6732    2.8550    0.7683 C.3       1 <0>         0.0000
     18 C18         0.6198   -0.2266    0.0262 C.3       1 <0>         0.0000
     19 N1         -3.1257    4.9435    2.7602 N.ar      1 <0>         0.0000
     20 N2          0.3256   -1.8893   -1.7030 N.ar      1 <0>         0.0000
     21 N3         -0.2222    0.7675    0.6660 N.3       1 <0>         0.0000
     22 O1         -3.2925   -3.1537   -0.0200 O.3       1 <0>         0.0000
     23 F1          1.3312   -3.0704   -3.9334 F         1 <0>         0.0000
     24 H1         -2.1993   -5.8670   -4.0889 H         1 <0>         0.0000
     25 H2         -3.9532    1.9140    4.0082 H         1 <0>         0.0000
     26 H3         -3.2038   -4.8898   -2.0902 H         1 <0>         0.0000
     27 H4         -2.1432    1.1924    2.4145 H         1 <0>         0.0000
     28 H5         -0.0184   -4.9944   -4.9776 H         1 <0>         0.0000
     29 H6         -1.7793   -1.2526    0.8612 H         1 <0>         0.0000
     30 H7         -4.5171    4.3428    4.1650 H         1 <0>         0.0000
     31 H8         -1.6813    5.3298    1.3380 H         1 <0>         0.0000
     32 H9         -2.0510    1.4124   -0.3308 H         1 <0>         0.0000
     33 H10        -0.5383    1.8260   -1.1961 H         1 <0>         0.0000
     34 H11         1.4265    2.1542    0.8844 H         1 <0>         0.0000
     35 H12         0.5366    1.8334    2.4076 H         1 <0>         0.0000
     36 H13        -0.3025    3.7583    0.2801 H         1 <0>         0.0000
     37 H14         1.2721   -0.6642    0.7940 H         1 <0>         0.0000
     38 H15         1.2758    0.2023   -0.7498 H         1 <0>         0.0000
     39 H16        -3.6965   -3.8821   -0.5164 H         1 <0>         0.0000
@<TRIPOS>BOND
     1    1    3 ar
     2    1    5 ar
     3    1   24 1
     4    2    4 ar
     5    2    7 ar
     6    2   25 1
     7    3    9 ar
     8    3   26 1
     9    4   10 ar
    10    4   27 1
    11    5   13 ar
    12    5   28 1
    13    6   12 ar
    14    6   14 ar
    15    6   29 1
    16    7   19 ar
    17    7   30 1
    18    8   10 ar
    19    8   19 ar
    20    8   31 1
    21    9   11 ar
    22    9   12 ar
    23   10   17 1
    24   11   13 ar
    25   11   20 ar
    26   12   22 1
    27   13   23 1
    28   14   18 1
    29   14   20 ar
    30   15   17 1
    31   15   21 1
    32   15   32 1
    33   15   33 1
    34   16   17 1
    35   16   21 1
    36   16   34 1
    37   16   35 1
    38   17   36 1
    39   18   21 1
    40   18   37 1
    41   18   38 1
    42   22   39 1
