@<TRIPOS>MOLECULE
*****
   41    43     0     0     0
SMALL
NO_CHARGES

@<TRIPOS>ATOM
      1 C1          2.9762    3.4076   -0.3786 C.ar      1 <0>         0.0000
      2 C2          3.3924    2.2568    0.2993 C.ar      1 <0>         0.0000
      3 C3          1.8977    4.1462    0.1153 C.ar      1 <0>         0.0000
      4 C4          2.7282    1.8432    1.4555 C.ar      1 <0>         0.0000
      5 C5          1.2259    3.7222    1.2671 C.ar      1 <0>         0.0000
      6 C6          1.6259    2.5629    1.9425 C.ar      1 <0>         0.0000
      7 C7          0.5337    0.5588    3.0440 C.2       1 <0>         0.0000
      8 C8         -0.1390   -1.9041    0.7385 C.3       1 <0>         0.0000
      9 C9         -0.3295    0.9762   -0.2096 C.3       1 <0>         0.0000
     10 C10        -0.6972   -1.2767    2.0265 C.3       1 <0>         0.0000
     11 C11        -1.0500    1.0231    1.1525 C.3       1 <0>         0.0000
     12 C12        -0.6513   -2.5645   -1.6872 C.3       1 <0>         0.0000
     13 C13        -0.9622   -1.5888   -0.5225 C.3       1 <0>         0.0000
     14 C14        -0.7447   -0.1829   -1.1188 C.3       1 <0>         0.0000
     15 C15         0.8558    2.0521    3.1465 C.3       1 <0>         0.0000
     16 N1          0.6002   -2.1536   -2.3469 N.pl3     1 <0>         0.0000
     17 N2         -0.4451    0.1552    2.1599 N.am      1 <0>         0.0000
     18 O1          1.1494   -0.2496    3.7430 O.2       1 <0>         0.0000
     19 O2          1.8834    0.0420   -2.0036 O.2       1 <0>         0.0000
     20 O3         -0.0031   -0.0288   -3.7184 O.2       1 <0>         0.0000
     21 S1          0.5626   -0.4400   -2.4323 S.o2      1 <0>         0.0000
     22 H1          3.4816    3.7176   -1.2889 H         1 <0>         0.0000
     23 H2          4.2200    1.6691   -0.0874 H         1 <0>         0.0000
     24 H3          1.5687    5.0439   -0.4021 H         1 <0>         0.0000
     25 H4          3.0451    0.9395    1.9706 H         1 <0>         0.0000
     26 H5          0.3750    4.2932    1.6344 H         1 <0>         0.0000
     27 H6          0.9103   -1.6104    0.6219 H         1 <0>         0.0000
     28 H7         -0.1479   -2.9915    0.8833 H         1 <0>         0.0000
     29 H8         -0.5163    1.9133   -0.7431 H         1 <0>         0.0000
     30 H9          0.7456    0.9458   -0.0321 H         1 <0>         0.0000
     31 H10        -1.7819   -1.4438    2.0724 H         1 <0>         0.0000
     32 H11        -0.2438   -1.7576    2.8918 H         1 <0>         0.0000
     33 H12        -1.0438    2.0494    1.5141 H         1 <0>         0.0000
     34 H13        -2.1044    0.7389    1.0473 H         1 <0>         0.0000
     35 H14        -0.5453   -3.5953   -1.3424 H         1 <0>         0.0000
     36 H15        -1.4505   -2.5398   -2.4344 H         1 <0>         0.0000
     37 H16        -2.0236   -1.6928   -0.2670 H         1 <0>         0.0000
     38 H17        -1.6226    0.0878   -1.7110 H         1 <0>         0.0000
     39 H18         1.4575    2.1449    4.0538 H         1 <0>         0.0000
     40 H19        -0.0527    2.6442    3.2938 H         1 <0>         0.0000
     41 H20         1.4198   -2.3998   -1.7909 H         1 <0>         0.0000
@<TRIPOS>BOND
     1    1    3 ar
     2    1    2 ar
     3    1   22 1
     4    2    4 ar
     5    2   23 1
     6    3    5 ar
     7    3   24 1
     8    4    6 ar
     9    4   25 1
    10    5    6 ar
    11    5   26 1
    12    6   15 1
    13    7   15 1
    14    7   17 am
    15    7   18 2
    16    8   10 1
    17    8   13 1
    18    8   27 1
    19    8   28 1
    20    9   11 1
    21    9   14 1
    22    9   29 1
    23    9   30 1
    24   10   17 1
    25   10   31 1
    26   10   32 1
    27   11   17 1
    28   11   33 1
    29   11   34 1
    30   12   13 1
    31   12   16 1
    32   12   35 1
    33   12   36 1
    34   13   14 1
    35   13   37 1
    36   14   21 1
    37   14   38 1
    38   15   39 1
    39   15   40 1
    40   16   21 1
    41   16   41 1
    42   19   21 2
    43   20   21 2
