@<TRIPOS>MOLECULE
*****
   23    24     0     0     0
SMALL
NO_CHARGES

@<TRIPOS>ATOM
      1 C1          1.6053   -1.1766   -3.3445 C.ar      1 <0>         0.0000
      2 C2          1.1214   -3.3834   -2.8869 C.ar      1 <0>         0.0000
      3 C3         -0.7693   -2.8804    0.1625 C.2       1 <0>         0.0000
      4 C4          0.3107   -1.6209   -1.3806 C.ar      1 <0>         0.0000
      5 C5          0.9598   -0.6832   -2.2070 C.ar      1 <0>         0.0000
      6 C6         -0.4830   -1.5653   -0.1746 C.2       1 <0>         0.0000
      7 C7          0.4348   -2.9877   -1.7351 C.ar      1 <0>         0.0000
      8 C8         -1.0464   -0.3545    0.4507 C.2       1 <0>         0.0000
      9 C9          1.1590    0.7599   -1.8272 C.2       1 <0>         0.0000
     10 C10        -1.5781   -0.4567    1.8679 C.3       1 <0>         0.0000
     11 N1          1.6837   -2.4812   -3.6889 N.ar      1 <0>         0.0000
     12 N2         -0.2255   -3.7322   -0.7648 N.pl3     1 <0>         0.0000
     13 O1         -1.0900    0.7000   -0.1751 O.2       1 <0>         0.0000
     14 O2          1.7931    1.0977   -0.8562 O.2       1 <0>         0.0000
     15 O3          0.6831    1.6759   -2.7128 O.3       1 <0>         0.0000
     16 H1          2.1247   -0.4885   -4.0091 H         1 <0>         0.0000
     17 H2          1.2188   -4.4318   -3.1678 H         1 <0>         0.0000
     18 H3         -1.3503   -3.2683    0.9887 H         1 <0>         0.0000
     19 H4         -0.7571   -0.6792    2.5583 H         1 <0>         0.0000
     20 H5         -2.3166   -1.2603    1.9626 H         1 <0>         0.0000
     21 H6         -2.0399    0.4910    2.1471 H         1 <0>         0.0000
     22 H7         -0.3270   -4.7381   -0.7635 H         1 <0>         0.0000
     23 H8          0.0935    1.2299   -3.3446 H         1 <0>         0.0000
@<TRIPOS>BOND
     1    1    5 ar
     2    1   11 ar
     3    1   16 1
     4    2    7 ar
     5    2   11 ar
     6    2   17 1
     7    3    6 2
     8    3   12 1
     9    3   18 1
    10    4    5 ar
    11    4    6 1
    12    4    7 ar
    13    5    9 1
    14    6    8 1
    15    7   12 1
    16    8   10 1
    17    8   13 2
    18    9   14 2
    19    9   15 1
    20   10   19 1
    21   10   20 1
    22   10   21 1
    23   12   22 1
    24   15   23 1
