@<TRIPOS>MOLECULE
*****
   21    22     0     0     0
SMALL
NO_CHARGES

@<TRIPOS>ATOM
      1 C1         -0.6790    3.3920    2.0750 C.ar      1 <0>         0.0000
      2 C2         -0.4673    3.1189    3.4282 C.ar      1 <0>         0.0000
      3 C3          0.1052    1.1387    1.4590 C.ar      1 <0>         0.0000
      4 C4         -0.3916    2.4091    1.1349 C.ar      1 <0>         0.0000
      5 C5          0.0233    1.8717    3.7929 C.ar      1 <0>         0.0000
      6 C6          0.3002    0.9078    2.8262 C.ar      1 <0>         0.0000
      7 C7         -0.2417   -1.2994    0.5538 C.3       1 <0>         0.0000
      8 C8          1.1919   -1.8612    0.7285 C.3       1 <0>         0.0000
      9 C9          0.4073    0.1119    0.3927 C.3       1 <0>         0.0000
     10 N1          1.7647   -0.5198    0.4066 N.3       1 <0>         0.0000
     11 F1         -0.6106    2.7043   -0.1725 F         1 <0>         0.0000
     12 F2          0.2376    1.5754    5.0933 F         1 <0>         0.0000
     13 F3          0.7758   -0.2880    3.2426 F         1 <0>         0.0000
     14 H1         -1.0614    4.3521    1.7451 H         1 <0>         0.0000
     15 H2         -0.6761    3.8553    4.1974 H         1 <0>         0.0000
     16 H3         -0.7618   -1.6370   -0.3450 H         1 <0>         0.0000
     17 H4         -0.9008   -1.4174    1.4151 H         1 <0>         0.0000
     18 H5          1.4034   -2.2141    1.7429 H         1 <0>         0.0000
     19 H6          1.4962   -2.6306    0.0116 H         1 <0>         0.0000
     20 H7          0.2044    0.5736   -0.5747 H         1 <0>         0.0000
     21 H8          2.3819   -0.1537    1.1273 H         1 <0>         0.0000
@<TRIPOS>BOND
     1    1    2 ar
     2    1    4 ar
     3    1   14 1
     4    2    5 ar
     5    2   15 1
     6    3    4 ar
     7    3    6 ar
     8    3    9 1
     9    4   11 1
    10    5    6 ar
    11    5   12 1
    12    6   13 1
    13    7    8 1
    14    7    9 1
    15    7   16 1
    16    7   17 1
    17    8   10 1
    18    8   18 1
    19    8   19 1
    20    9   10 1
    21    9   20 1
    22   10   21 1
