@<TRIPOS>MOLECULE
*****
   41    43     0     0     0
SMALL
NO_CHARGES

@<TRIPOS>ATOM
      1 C1         -6.6405   -2.6892    2.8285 C.ar      1 <0>         0.0000
      2 C2         -5.5940   -3.5829    2.5836 C.ar      1 <0>         0.0000
      3 C3         -6.3517   -1.3971    3.2827 C.ar      1 <0>         0.0000
      4 C4         -4.2689   -3.1836    2.7882 C.ar      1 <0>         0.0000
      5 C5         -5.0276   -1.0034    3.4882 C.ar      1 <0>         0.0000
      6 C6         -3.9705   -1.8926    3.2419 C.ar      1 <0>         0.0000
      7 C7         -2.2219   -0.0551    2.9490 C.2       1 <0>         0.0000
      8 C8         -0.7256    1.8327    0.6555 C.3       1 <0>         0.0000
      9 C9         -1.6965   -0.6493   -0.6226 C.3       1 <0>         0.0000
     10 C10        -2.1831    1.5495    1.1259 C.3       1 <0>         0.0000
     11 C11        -2.6147   -0.8415    0.5930 C.3       1 <0>         0.0000
     12 C12         1.6514    0.9568    0.3121 C.3       1 <0>         0.0000
     13 C13         0.1957    0.6049    0.7126 C.3       1 <0>         0.0000
     14 C14        -0.2218   -0.5400   -0.2376 C.3       1 <0>         0.0000
     15 C15        -2.5365   -1.4564    3.4764 C.3       1 <0>         0.0000
     16 N1          1.7580    1.0145   -1.1574 N.pl3     1 <0>         0.0000
     17 N2         -2.3893    0.1856    1.6099 N.am      1 <0>         0.0000
     18 O1         -1.8565    0.8365    3.7215 O.2       1 <0>         0.0000
     19 O2          0.0055    0.2697   -2.8803 O.2       1 <0>         0.0000
     20 O3          1.6452   -1.4532   -1.9615 O.2       1 <0>         0.0000
     21 S1          0.8053   -0.2699   -1.7706 S.o2      1 <0>         0.0000
     22 H1         -7.6707   -2.9955    2.6674 H         1 <0>         0.0000
     23 H2         -5.8068   -4.5890    2.2314 H         1 <0>         0.0000
     24 H3         -7.1595   -0.6962    3.4777 H         1 <0>         0.0000
     25 H4         -3.4603   -3.8854    2.5921 H         1 <0>         0.0000
     26 H5         -4.8103    0.0021    3.8416 H         1 <0>         0.0000
     27 H6         -0.7475    2.2438   -0.3605 H         1 <0>         0.0000
     28 H7         -0.2895    2.6022    1.2995 H         1 <0>         0.0000
     29 H8         -1.8382   -1.5017   -1.2948 H         1 <0>         0.0000
     30 H9         -1.9920    0.2320   -1.1959 H         1 <0>         0.0000
     31 H10        -2.4435    2.2224    1.9412 H         1 <0>         0.0000
     32 H11        -2.8912    1.7204    0.3103 H         1 <0>         0.0000
     33 H12        -3.6602   -0.8235    0.2593 H         1 <0>         0.0000
     34 H13        -2.4395   -1.8237    1.0280 H         1 <0>         0.0000
     35 H14         1.9705    1.9158    0.7255 H         1 <0>         0.0000
     36 H15         2.3439    0.1893    0.6703 H         1 <0>         0.0000
     37 H16         0.2033    0.2306    1.7393 H         1 <0>         0.0000
     38 H17         0.1527   -1.4935    0.1445 H         1 <0>         0.0000
     39 H18        -2.3229   -1.4072    4.5470 H         1 <0>         0.0000
     40 H19        -1.8440   -2.1897    3.0485 H         1 <0>         0.0000
     41 H20         1.3683    1.8777   -1.5363 H         1 <0>         0.0000
@<TRIPOS>BOND
     1    1    3 ar
     2    1    2 ar
     3    1   22 1
     4    2    4 ar
     5    2   23 1
     6    3    5 ar
     7    3   24 1
     8    4    6 ar
     9    4   25 1
    10    5    6 ar
    11    5   26 1
    12    6   15 1
    13    7   15 1
    14    7   17 am
    15    7   18 2
    16    8   10 1
    17    8   13 1
    18    8   27 1
    19    8   28 1
    20    9   11 1
    21    9   14 1
    22    9   29 1
    23    9   30 1
    24   10   17 1
    25   10   31 1
    26   10   32 1
    27   11   17 1
    28   11   33 1
    29   11   34 1
    30   12   13 1
    31   12   16 1
    32   12   35 1
    33   12   36 1
    34   13   14 1
    35   13   37 1
    36   14   21 1
    37   14   38 1
    38   15   39 1
    39   15   40 1
    40   16   21 1
    41   16   41 1
    42   19   21 2
    43   20   21 2
