@<TRIPOS>MOLECULE
*****
   43    45     0     0     0
SMALL
NO_CHARGES

@<TRIPOS>ATOM
      1 C1          6.4117   -1.1185   -4.8896 C.ar      1 <0>         0.0000
      2 C2          6.4271    0.2688   -5.1471 C.ar      1 <0>         0.0000
      3 C3          5.2415   -1.7463   -4.4662 C.ar      1 <0>         0.0000
      4 C4          5.2831    1.0556   -5.0050 C.ar      1 <0>         0.0000
      5 C5          4.0939   -0.9630   -4.3087 C.ar      1 <0>         0.0000
      6 C6          4.1142    0.4137   -4.5824 C.ar      1 <0>         0.0000
      7 C7          2.7455   -1.3048   -3.8266 C.2       1 <0>         0.0000
      8 C8          0.8510    0.8943   -2.0725 C.2       1 <0>         0.0000
      9 C9         -0.8126   -1.4882    0.0537 C.3       1 <0>         0.0000
     10 C10         0.4721   -1.2106   -0.7296 C.3       1 <0>         0.0000
     11 C11         0.7053    0.9757    0.3596 C.3       1 <0>         0.0000
     12 C12        -0.5667    0.7453    1.1930 C.3       1 <0>         0.0000
     13 C13        -0.8498   -0.7646    1.4145 C.3       1 <0>         0.0000
     14 C14        -0.5105    1.5568    2.4910 C.3       1 <0>         0.0000
     15 C15         0.1101   -1.4145    2.4139 C.3       1 <0>         0.0000
     16 C16         0.7273    0.1432   -3.4057 C.3       1 <0>         0.0000
     17 N1          2.8319    0.9621   -4.4125 N.pl3     1 <0>         0.0000
     18 N2          2.0512   -0.1105   -3.9160 N.am      1 <0>         0.0000
     19 N3          0.6492    0.2349   -0.9031 N.am      1 <0>         0.0000
     20 O1          2.2620   -2.3698   -3.4286 O.2       1 <0>         0.0000
     21 O2          1.1774    2.0912   -2.1303 O.2       1 <0>         0.0000
     22 O3         -2.1513   -0.9364    2.0088 O.3       1 <0>         0.0000
     23 H1          7.3223   -1.6958   -5.0226 H         1 <0>         0.0000
     24 H2          7.3526    0.7375   -5.4711 H         1 <0>         0.0000
     25 H3          5.2073   -2.8112   -4.2542 H         1 <0>         0.0000
     26 H4          5.3008    2.1208   -5.2181 H         1 <0>         0.0000
     27 H5         -1.6670   -1.1522   -0.5501 H         1 <0>         0.0000
     28 H6         -0.9294   -2.5651    0.2125 H         1 <0>         0.0000
     29 H7          1.3421   -1.5941   -0.1824 H         1 <0>         0.0000
     30 H8          0.4808   -1.7249   -1.6872 H         1 <0>         0.0000
     31 H9          0.8252    2.0324    0.1235 H         1 <0>         0.0000
     32 H10         1.5939    0.6588    0.9220 H         1 <0>         0.0000
     33 H11        -1.4046    1.1252    0.5890 H         1 <0>         0.0000
     34 H12         0.3976    1.3393    3.0630 H         1 <0>         0.0000
     35 H13        -1.3724    1.3323    3.1246 H         1 <0>         0.0000
     36 H14        -0.5133    2.6299    2.2729 H         1 <0>         0.0000
     37 H15        -0.0268   -0.9815    3.4069 H         1 <0>         0.0000
     38 H16         1.1558   -1.2874    2.1233 H         1 <0>         0.0000
     39 H17        -0.1002   -2.4855    2.4827 H         1 <0>         0.0000
     40 H18         0.1952    0.8057   -4.0935 H         1 <0>         0.0000
     41 H19         0.2137   -0.8150   -3.3637 H         1 <0>         0.0000
     42 H20         2.7555    1.7705   -3.7891 H         1 <0>         0.0000
     43 H21        -2.8121   -0.5878    1.3883 H         1 <0>         0.0000
@<TRIPOS>BOND
     1    1    2 ar
     2    1    3 ar
     3    1   23 1
     4    2    4 ar
     5    2   24 1
     6    3    5 ar
     7    3   25 1
     8    4    6 ar
     9    4   26 1
    10    5    6 ar
    11    5    7 1
    12    6   17 1
    13    7   18 am
    14    7   20 2
    15    8   16 1
    16    8   19 am
    17    8   21 2
    18    9   10 1
    19    9   13 1
    20    9   27 1
    21    9   28 1
    22   10   19 1
    23   10   29 1
    24   10   30 1
    25   11   12 1
    26   11   19 1
    27   11   31 1
    28   11   32 1
    29   12   13 1
    30   12   14 1
    31   12   33 1
    32   13   15 1
    33   13   22 1
    34   14   34 1
    35   14   35 1
    36   14   36 1
    37   15   37 1
    38   15   38 1
    39   15   39 1
    40   16   18 1
    41   16   40 1
    42   16   41 1
    43   17   18 1
    44   17   42 1
    45   22   43 1
