@<TRIPOS>MOLECULE
*****
   26    26     0     0     0
SMALL
NO_CHARGES

@<TRIPOS>ATOM
      1 C1          5.1009   -0.5574    3.1452 C.2       1 <0>         0.0000
      2 C2          5.1801   -0.2080    4.5317 C.2       1 <0>         0.0000
      3 C3          3.8376   -0.3960    2.6452 C.2       1 <0>         0.0000
      4 C4          4.0011    0.2057    5.0924 C.2       1 <0>         0.0000
      5 C5          3.7194    0.6569    6.4941 C.3       1 <0>         0.0000
      6 C6          2.7121   -3.6311    0.6520 C.3       1 <0>         0.0000
      7 C7          0.5786   -3.1093    1.9167 C.3       1 <0>         0.0000
      8 C8          3.3448   -0.6203    1.2429 C.3       1 <0>         0.0000
      9 C9          2.0260   -2.6870    1.6539 C.3       1 <0>         0.0000
     10 N1          2.0339   -1.2709    1.2444 N.3       1 <0>         0.0000
     11 S1          2.7401    0.1666    3.8812 S.3       1 <0>         0.0000
     12 Br1         6.8174   -0.3347    5.5112 Br        1 <0>         0.0000
     13 H1          5.9435   -0.9133    2.5623 H         1 <0>         0.0000
     14 H2          3.8819    1.7358    6.6022 H         1 <0>         0.0000
     15 H3          2.6864    0.4429    6.7824 H         1 <0>         0.0000
     16 H4          4.3841    0.1486    7.1971 H         1 <0>         0.0000
     17 H5          2.1785   -3.6315   -0.3070 H         1 <0>         0.0000
     18 H6          3.7504   -3.3406    0.4627 H         1 <0>         0.0000
     19 H7          2.7228   -4.6596    1.0289 H         1 <0>         0.0000
     20 H8         -0.0195   -3.0427    0.9988 H         1 <0>         0.0000
     21 H9          0.1230   -2.4570    2.6667 H         1 <0>         0.0000
     22 H10         0.5292   -4.1444    2.2705 H         1 <0>         0.0000
     23 H11         3.2263    0.3455    0.7370 H         1 <0>         0.0000
     24 H12         4.1296   -1.1688    0.6957 H         1 <0>         0.0000
     25 H13         2.5734   -2.7334    2.6022 H         1 <0>         0.0000
     26 H14         1.6048   -1.1783    0.3255 H         1 <0>         0.0000
@<TRIPOS>BOND
     1    1    2 1
     2    1    3 2
     3    1   13 1
     4    2    4 2
     5    2   12 1
     6    3    8 1
     7    3   11 1
     8    4    5 1
     9    4   11 1
    10    5   14 1
    11    5   15 1
    12    5   16 1
    13    6    9 1
    14    6   17 1
    15    6   18 1
    16    6   19 1
    17    7    9 1
    18    7   20 1
    19    7   21 1
    20    7   22 1
    21    8   10 1
    22    8   23 1
    23    8   24 1
    24    9   10 1
    25    9   25 1
    26   10   26 1
