@<TRIPOS>MOLECULE
*****
   23    24     0     0     0
SMALL
NO_CHARGES

@<TRIPOS>ATOM
      1 C1         -1.2304    0.5353   -2.4576 C.2       1 <0>         0.0000
      2 C2         -2.0434   -0.4031   -1.7617 C.2       1 <0>         0.0000
      3 C3          0.1143    0.2710   -2.3419 C.2       1 <0>         0.0000
      4 C4         -1.3057   -1.3789   -1.1189 C.2       1 <0>         0.0000
      5 C5         -4.7000   -4.0489    0.8689 C.2       1 <0>         0.0000
      6 C6         -6.4033   -5.1680    1.6608 C.2       1 <0>         0.0000
      7 C7         -1.7682   -2.4957   -0.3166 C.2       1 <0>         0.0000
      8 N1         -5.7866   -3.4266    0.4790 N.2       1 <0>         0.0000
      9 N2         -6.8770   -4.1536    0.9929 N.2       1 <0>         0.0000
     10 N3         -3.0283   -2.6873   -0.1206 N.2       1 <0>         0.0000
     11 N4         -5.0163   -5.1640    1.6246 N.pl3     1 <0>         0.0000
     12 N5         -4.0787   -6.0436    2.1783 N.3       1 <0>         0.0000
     13 N6         -3.3799   -3.7485    0.6444 N.pl3     1 <0>         0.0000
     14 S1          0.4061   -1.1351   -1.3762 S.3       1 <0>         0.0000
     15 S2         -7.2799   -6.4303    2.5258 S.3       1 <0>         0.0000
     16 H1         -1.6216    1.3750   -3.0231 H         1 <0>         0.0000
     17 H2         -3.1268   -0.3806   -1.7220 H         1 <0>         0.0000
     18 H3          0.9462    0.8185   -2.7662 H         1 <0>         0.0000
     19 H4         -1.0086   -3.1637    0.1127 H         1 <0>         0.0000
     20 H5         -4.2343   -6.9830    1.8127 H         1 <0>         0.0000
     21 H6         -4.1822   -6.0591    3.1929 H         1 <0>         0.0000
     22 H7         -2.6879   -4.3960    1.0222 H         1 <0>         0.0000
     23 H8         -8.4830   -5.9195    2.1988 H         1 <0>         0.0000
@<TRIPOS>BOND
     1    1    2 1
     2    1    3 2
     3    1   16 1
     4    2    4 2
     5    2   17 1
     6    3   14 1
     7    3   18 1
     8    4    7 1
     9    4   14 1
    10    5    8 2
    11    5   11 1
    12    5   13 1
    13    6    9 2
    14    6   11 1
    15    6   15 1
    16    7   10 2
    17    7   19 1
    18    8    9 1
    19   10   13 1
    20   11   12 1
    21   12   20 1
    22   12   21 1
    23   13   22 1
    24   15   23 1
