@<TRIPOS>MOLECULE
*****
   41    43     0     0     0
SMALL
NO_CHARGES

@<TRIPOS>ATOM
      1 C1          1.9290   -6.7009   -1.6884 C.ar      1 <0>         0.0000
      2 C2          2.8238   -6.0031   -0.8722 C.ar      1 <0>         0.0000
      3 C3          0.5538   -6.4784   -1.5524 C.ar      1 <0>         0.0000
      4 C4          2.3442   -5.0869    0.0699 C.ar      1 <0>         0.0000
      5 C5          0.0767   -5.5651   -0.6091 C.ar      1 <0>         0.0000
      6 C6          0.9687   -4.8580    0.2114 C.ar      1 <0>         0.0000
      7 C7         -0.6868   -2.9952    0.7232 C.2       1 <0>         0.0000
      8 C8         -0.9733    0.4368   -0.4436 C.3       1 <0>         0.0000
      9 C9          1.6858   -0.5411    0.3812 C.3       1 <0>         0.0000
     10 C10        -1.4129   -1.0287   -0.5369 C.3       1 <0>         0.0000
     11 C11         1.0046   -1.6255   -0.5114 C.3       1 <0>         0.0000
     12 C12        -0.0106    2.3740    0.9185 C.3       1 <0>         0.0000
     13 C13        -0.4503    0.8630    0.9350 C.3       1 <0>         0.0000
     14 C14         0.7344    0.0114    1.4440 C.3       1 <0>         0.0000
     15 C15         0.4497   -3.8745    1.2462 C.3       1 <0>         0.0000
     16 N1          1.2929    2.5641    1.5872 N.pl3     1 <0>         0.0000
     17 N2         -0.3580   -1.9524   -0.1082 N.am      1 <0>         0.0000
     18 O1         -1.8542   -3.2331    1.0414 O.2       1 <0>         0.0000
     19 O2          3.0535    0.9849    2.5940 O.2       1 <0>         0.0000
     20 O3          0.8103    1.3048    3.7724 O.2       1 <0>         0.0000
     21 S1          1.6026    1.1945    2.5476 S.o2      1 <0>         0.0000
     22 H1          2.2986   -7.4121   -2.4224 H         1 <0>         0.0000
     23 H2          3.8938   -6.1699   -0.9671 H         1 <0>         0.0000
     24 H3         -0.1489   -7.0195   -2.1811 H         1 <0>         0.0000
     25 H4          3.0471   -4.5490    0.7036 H         1 <0>         0.0000
     26 H5         -0.9925   -5.3985   -0.5042 H         1 <0>         0.0000
     27 H6         -0.2124    0.6544   -1.2026 H         1 <0>         0.0000
     28 H7         -1.8370    1.0612   -0.7012 H         1 <0>         0.0000
     29 H8          2.5602   -0.9607    0.8849 H         1 <0>         0.0000
     30 H9          2.0603    0.2726   -0.2492 H         1 <0>         0.0000
     31 H10        -2.2808   -1.2191    0.0953 H         1 <0>         0.0000
     32 H11        -1.7046   -1.2532   -1.5720 H         1 <0>         0.0000
     33 H12         0.9665   -1.2830   -1.5496 H         1 <0>         0.0000
     34 H13         1.6035   -2.5333   -0.5240 H         1 <0>         0.0000
     35 H14         0.0784    2.7391   -0.1076 H         1 <0>         0.0000
     36 H15        -0.7616    2.9806    1.4281 H         1 <0>         0.0000
     37 H16        -1.2577    0.7557    1.6636 H         1 <0>         0.0000
     38 H17         0.3850   -0.7816    2.1057 H         1 <0>         0.0000
     39 H18         0.0211   -4.4160    2.0935 H         1 <0>         0.0000
     40 H19         1.2760   -3.2685    1.6310 H         1 <0>         0.0000
     41 H20         2.0704    2.6752    0.9392 H         1 <0>         0.0000
@<TRIPOS>BOND
     1    1    3 ar
     2    1    2 ar
     3    1   22 1
     4    2    4 ar
     5    2   23 1
     6    3    5 ar
     7    3   24 1
     8    4    6 ar
     9    4   25 1
    10    5    6 ar
    11    5   26 1
    12    6   15 1
    13    7   15 1
    14    7   17 am
    15    7   18 2
    16    8   10 1
    17    8   13 1
    18    8   27 1
    19    8   28 1
    20    9   11 1
    21    9   14 1
    22    9   29 1
    23    9   30 1
    24   10   17 1
    25   10   31 1
    26   10   32 1
    27   11   17 1
    28   11   33 1
    29   11   34 1
    30   12   13 1
    31   12   16 1
    32   12   35 1
    33   12   36 1
    34   13   14 1
    35   13   37 1
    36   14   21 1
    37   14   38 1
    38   15   39 1
    39   15   40 1
    40   16   21 1
    41   16   41 1
    42   19   21 2
    43   20   21 2
