@<TRIPOS>MOLECULE
*****
   43    45     0     0     0
SMALL
NO_CHARGES

@<TRIPOS>ATOM
      1 C1          5.3139    2.6767   -3.6740 C.ar      1 <0>         0.0000
      2 C2          5.3894    1.3235   -4.0622 C.ar      1 <0>         0.0000
      3 C3          4.0772    3.2824   -3.4515 C.ar      1 <0>         0.0000
      4 C4          4.2424    0.5419   -4.2225 C.ar      1 <0>         0.0000
      5 C5          2.9270    2.5088   -3.6255 C.ar      1 <0>         0.0000
      6 C6          3.0127    1.1609   -3.9846 C.ar      1 <0>         0.0000
      7 C7          1.4996    2.8456   -3.4708 C.2       1 <0>         0.0000
      8 C8         -1.0352    1.9586   -2.0736 C.2       1 <0>         0.0000
      9 C9          0.9754    0.1540    0.3708 C.3       1 <0>         0.0000
     10 C10         0.9823    1.0421   -0.8786 C.3       1 <0>         0.0000
     11 C11        -0.5864    2.5854    0.2350 C.3       1 <0>         0.0000
     12 C12        -0.6103    1.7255    1.5063 C.3       1 <0>         0.0000
     13 C13         0.7059    0.9261    1.6741 C.3       1 <0>         0.0000
     14 C14        -0.9722    2.5810    2.7244 C.3       1 <0>         0.0000
     15 C15         1.9013    1.7992    2.0607 C.3       1 <0>         0.0000
     16 C16        -0.5495    1.3780   -3.4203 C.3       1 <0>         0.0000
     17 N1          1.7223    0.5814   -4.0157 N.pl3     1 <0>         0.0000
     18 N2          0.8230    1.6741   -3.8152 N.am      1 <0>         0.0000
     19 N3         -0.2582    1.8078   -0.9608 N.am      1 <0>         0.0000
     20 O1          0.9596    3.8785   -3.0883 O.2       1 <0>         0.0000
     21 O2         -2.1375    2.5051   -2.0575 O.2       1 <0>         0.0000
     22 O3          0.5815   -0.0129    2.7619 O.3       1 <0>         0.0000
     23 H1          6.2297    3.2477   -3.5509 H         1 <0>         0.0000
     24 H2          6.3637    0.8730   -4.2322 H         1 <0>         0.0000
     25 H3          3.9933    4.3251   -3.1586 H         1 <0>         0.0000
     26 H4          4.3100   -0.5052   -4.5048 H         1 <0>         0.0000
     27 H5          0.1915   -0.6057    0.2476 H         1 <0>         0.0000
     28 H6          1.9315   -0.3740    0.4518 H         1 <0>         0.0000
     29 H7          1.8419    1.7257   -0.8558 H         1 <0>         0.0000
     30 H8          1.0961    0.4080   -1.7554 H         1 <0>         0.0000
     31 H9         -1.5591    3.0468    0.0697 H         1 <0>         0.0000
     32 H10         0.1509    3.3936    0.3387 H         1 <0>         0.0000
     33 H11        -1.4047    0.9768    1.3646 H         1 <0>         0.0000
     34 H12        -0.3072    3.4457    2.8199 H         1 <0>         0.0000
     35 H13        -0.9020    1.9960    3.6453 H         1 <0>         0.0000
     36 H14        -1.9950    2.9615    2.6343 H         1 <0>         0.0000
     37 H15         1.7413    2.2501    3.0423 H         1 <0>         0.0000
     38 H16         2.0758    2.5990    1.3370 H         1 <0>         0.0000
     39 H17         2.8029    1.1823    2.1169 H         1 <0>         0.0000
     40 H18        -1.2453    1.7827   -4.1570 H         1 <0>         0.0000
     41 H19        -0.6572    0.2898   -3.4106 H         1 <0>         0.0000
     42 H20         1.5160    0.1286   -4.9075 H         1 <0>         0.0000
     43 H21        -0.1683   -0.5977    2.5639 H         1 <0>         0.0000
@<TRIPOS>BOND
     1    1    2 ar
     2    1    3 ar
     3    1   23 1
     4    2    4 ar
     5    2   24 1
     6    3    5 ar
     7    3   25 1
     8    4    6 ar
     9    4   26 1
    10    5    6 ar
    11    5    7 1
    12    6   17 1
    13    7   18 am
    14    7   20 2
    15    8   16 1
    16    8   19 am
    17    8   21 2
    18    9   10 1
    19    9   13 1
    20    9   27 1
    21    9   28 1
    22   10   19 1
    23   10   29 1
    24   10   30 1
    25   11   12 1
    26   11   19 1
    27   11   31 1
    28   11   32 1
    29   12   13 1
    30   12   14 1
    31   12   33 1
    32   13   15 1
    33   13   22 1
    34   14   34 1
    35   14   35 1
    36   14   36 1
    37   15   37 1
    38   15   38 1
    39   15   39 1
    40   16   18 1
    41   16   40 1
    42   16   41 1
    43   17   18 1
    44   17   42 1
    45   22   43 1
