@<TRIPOS>MOLECULE
*****
   50    52     0     0     0
SMALL
NO_CHARGES

@<TRIPOS>ATOM
      1 C1         -0.8428   -6.2021    0.1133 C.ar      1 <0>         0.0000
      2 C2         -0.2101   -6.0816    1.3538 C.ar      1 <0>         0.0000
      3 C3         -0.4626   -5.3721   -0.9441 C.ar      1 <0>         0.0000
      4 C4          0.8093   -5.1419    1.5138 C.ar      1 <0>         0.0000
      5 C5          4.0581   -2.1560    0.5918 C.2       1 <0>         0.0000
      6 C6          0.5550   -4.4188   -0.8033 C.ar      1 <0>         0.0000
      7 C7          1.1981   -4.3282    0.4461 C.ar      1 <0>         0.0000
      8 C8          3.0785   -1.5503    1.4212 C.2       1 <0>         0.0000
      9 C9          3.4841   -3.3309    0.1289 C.2       1 <0>         0.0000
     10 C10         2.1389    0.0173   -2.0878 C.3       1 <0>         0.0000
     11 C11         1.7819   -1.3614   -2.6443 C.3       1 <0>         0.0000
     12 C12        -0.1305   -1.4894   -1.1697 C.3       1 <0>         0.0000
     13 C13         0.1439   -0.1023   -0.5769 C.3       1 <0>         0.0000
     14 C14         0.9153    0.7933   -1.5685 C.3       1 <0>         0.0000
     15 C15         3.1434   -0.2349    2.1383 C.3       1 <0>         0.0000
     16 C16         4.0324   -4.3997   -0.7646 C.3       1 <0>         0.0000
     17 C17        -1.1475    0.5286   -0.0467 C.3       1 <0>         0.0000
     18 C18         0.0473    1.3086   -2.7245 C.3       1 <0>         0.0000
     19 C19         0.9102   -3.5309   -1.9838 C.3       1 <0>         0.0000
     20 N1          1.9747   -2.2997    1.4781 N.2       1 <0>         0.0000
     21 N2          2.2364   -3.3799    0.6829 N.pl3     1 <0>         0.0000
     22 N3          1.0969   -2.1371   -1.6210 N.3       1 <0>         0.0000
     23 O1          1.3725    1.9214   -0.7862 O.3       1 <0>         0.0000
     24 H1         -1.6392   -6.9282   -0.0272 H         1 <0>         0.0000
     25 H2         -0.5066   -6.7111    2.1884 H         1 <0>         0.0000
     26 H3         -0.9791   -5.4484   -1.8982 H         1 <0>         0.0000
     27 H4          1.3167   -5.0205    2.4660 H         1 <0>         0.0000
     28 H5          5.0567   -1.7977    0.3756 H         1 <0>         0.0000
     29 H6          2.8297   -0.1220   -1.2513 H         1 <0>         0.0000
     30 H7          2.6531    0.6063   -2.8596 H         1 <0>         0.0000
     31 H8          1.1775   -1.2652   -3.5692 H         1 <0>         0.0000
     32 H9          2.7030   -1.8867   -2.9209 H         1 <0>         0.0000
     33 H10        -0.5804   -2.1098   -0.3895 H         1 <0>         0.0000
     34 H11        -0.8734   -1.4192   -1.9913 H         1 <0>         0.0000
     35 H12         0.8186   -0.2587    0.2686 H         1 <0>         0.0000
     36 H13         3.0096    0.5993    1.4393 H         1 <0>         0.0000
     37 H14         2.3487   -0.1754    2.8861 H         1 <0>         0.0000
     38 H15         4.1076   -0.1021    2.6399 H         1 <0>         0.0000
     39 H16         3.4655   -5.3293   -0.6694 H         1 <0>         0.0000
     40 H17         4.0074   -4.0973   -1.8176 H         1 <0>         0.0000
     41 H18         5.0754   -4.6094   -0.5106 H         1 <0>         0.0000
     42 H19        -1.9292    0.5742   -0.8134 H         1 <0>         0.0000
     43 H20        -0.9620    1.5432    0.3153 H         1 <0>         0.0000
     44 H21        -1.5381   -0.0636    0.7878 H         1 <0>         0.0000
     45 H22        -0.7543    1.9478   -2.3474 H         1 <0>         0.0000
     46 H23        -0.4037    0.4931   -3.2971 H         1 <0>         0.0000
     47 H24         0.6544    1.9007   -3.4209 H         1 <0>         0.0000
     48 H25         1.8448   -3.8862   -2.4323 H         1 <0>         0.0000
     49 H26         0.1311   -3.6633   -2.7597 H         1 <0>         0.0000
     50 H27         1.8620    2.5124   -1.3811 H         1 <0>         0.0000
@<TRIPOS>BOND
     1    1    2 ar
     2    1    3 ar
     3    1   24 1
     4    2    4 ar
     5    2   25 1
     6    3    6 ar
     7    3   26 1
     8    4    7 ar
     9    4   27 1
    10    5    8 1
    11    5    9 2
    12    5   28 1
    13    6    7 ar
    14    6   19 1
    15    7   21 1
    16    8   15 1
    17    8   20 2
    18    9   16 1
    19    9   21 1
    20   10   11 1
    21   10   14 1
    22   10   29 1
    23   10   30 1
    24   11   22 1
    25   11   31 1
    26   11   32 1
    27   12   13 1
    28   12   22 1
    29   12   33 1
    30   12   34 1
    31   13   14 1
    32   13   17 1
    33   13   35 1
    34   14   18 1
    35   14   23 1
    36   15   36 1
    37   15   37 1
    38   15   38 1
    39   16   39 1
    40   16   40 1
    41   16   41 1
    42   17   42 1
    43   17   43 1
    44   17   44 1
    45   18   45 1
    46   18   46 1
    47   18   47 1
    48   19   22 1
    49   19   48 1
    50   19   49 1
    51   20   21 1
    52   23   50 1
