@<TRIPOS>MOLECULE
*****
   41    43     0     0     0
SMALL
NO_CHARGES

@<TRIPOS>ATOM
      1 C1          4.3946    0.6481    0.7113 C.ar      1 <0>         0.0000
      2 C2          4.0523    0.0367    1.9229 C.ar      1 <0>         0.0000
      3 C3          3.5784    1.6604    0.1932 C.ar      1 <0>         0.0000
      4 C4          2.8898    0.4219    2.5983 C.ar      1 <0>         0.0000
      5 C5          2.4241    2.0490    0.8777 C.ar      1 <0>         0.0000
      6 C6          2.0576    1.4227    2.0791 C.ar      1 <0>         0.0000
      7 C7         -0.3934    1.8608    1.7289 C.2       1 <0>         0.0000
      8 C8          0.7301   -1.0496    0.2800 C.3       1 <0>         0.0000
      9 C9         -0.9255    1.0847   -1.2915 C.3       1 <0>         0.0000
     10 C10        -0.2715   -0.6198    1.3619 C.3       1 <0>         0.0000
     11 C11        -1.7355    0.8440   -0.0069 C.3       1 <0>         0.0000
     12 C12         1.1935   -2.0755   -1.9866 C.3       1 <0>         0.0000
     13 C13         0.1302   -1.3785   -1.0950 C.3       1 <0>         0.0000
     14 C14        -0.3548   -0.1807   -1.9453 C.3       1 <0>         0.0000
     15 C15         0.7422    1.7769    2.7521 C.3       1 <0>         0.0000
     16 N1          2.1177   -1.0545   -2.5131 N.pl3     1 <0>         0.0000
     17 N2         -0.8624    0.6970    1.1602 N.am      1 <0>         0.0000
     18 O1         -0.8365    2.9607    1.3915 O.2       1 <0>         0.0000
     19 O2          1.7862    1.4948   -2.5488 O.2       1 <0>         0.0000
     20 O3          0.7523    0.0824   -4.4019 O.2       1 <0>         0.0000
     21 S1          1.1289    0.2595   -2.9984 S.o2      1 <0>         0.0000
     22 H1          5.2924    0.3434    0.1794 H         1 <0>         0.0000
     23 H2          4.6841   -0.7449    2.3375 H         1 <0>         0.0000
     24 H3          3.8203    2.1333   -0.7536 H         1 <0>         0.0000
     25 H4          2.6197   -0.0736    3.5289 H         1 <0>         0.0000
     26 H5          1.7864    2.8208    0.4557 H         1 <0>         0.0000
     27 H6          1.5064   -0.2878    0.1923 H         1 <0>         0.0000
     28 H7          1.2249   -1.9558    0.6514 H         1 <0>         0.0000
     29 H8         -1.5581    1.5887   -2.0290 H         1 <0>         0.0000
     30 H9         -0.1227    1.7857   -1.0538 H         1 <0>         0.0000
     31 H10        -1.0884   -1.3517    1.4146 H         1 <0>         0.0000
     32 H11         0.2266   -0.6439    2.3298 H         1 <0>         0.0000
     33 H12        -2.3837    1.7018    0.1699 H         1 <0>         0.0000
     34 H13        -2.3643   -0.0495   -0.0826 H         1 <0>         0.0000
     35 H14         1.7706   -2.8183   -1.4318 H         1 <0>         0.0000
     36 H15         0.7243   -2.5778   -2.8378 H         1 <0>         0.0000
     37 H16        -0.7151   -2.0636   -0.9559 H         1 <0>         0.0000
     38 H17        -1.0567   -0.5637   -2.6904 H         1 <0>         0.0000
     39 H18         0.5207    1.0649    3.5527 H         1 <0>         0.0000
     40 H19         0.7931    2.7717    3.2010 H         1 <0>         0.0000
     41 H20         2.7406   -0.7010   -1.7841 H         1 <0>         0.0000
@<TRIPOS>BOND
     1    1    3 ar
     2    1    2 ar
     3    1   22 1
     4    2    4 ar
     5    2   23 1
     6    3    5 ar
     7    3   24 1
     8    4    6 ar
     9    4   25 1
    10    5    6 ar
    11    5   26 1
    12    6   15 1
    13    7   15 1
    14    7   17 am
    15    7   18 2
    16    8   10 1
    17    8   13 1
    18    8   27 1
    19    8   28 1
    20    9   11 1
    21    9   14 1
    22    9   29 1
    23    9   30 1
    24   10   17 1
    25   10   31 1
    26   10   32 1
    27   11   17 1
    28   11   33 1
    29   11   34 1
    30   12   13 1
    31   12   16 1
    32   12   35 1
    33   12   36 1
    34   13   14 1
    35   13   37 1
    36   14   21 1
    37   14   38 1
    38   15   39 1
    39   15   40 1
    40   16   21 1
    41   16   41 1
    42   19   21 2
    43   20   21 2
