@<TRIPOS>MOLECULE
*****
   41    43     0     0     0
SMALL
NO_CHARGES

@<TRIPOS>ATOM
      1 C1          2.7197    2.8986   -3.7552 C.ar      1 <0>         0.0000
      2 C2          1.9202    2.0816   -4.5612 C.ar      1 <0>         0.0000
      3 C3          3.3754    2.3444   -2.6478 C.ar      1 <0>         0.0000
      4 C4          1.7692    0.7254   -4.2518 C.ar      1 <0>         0.0000
      5 C5          3.2221    0.9898   -2.3419 C.ar      1 <0>         0.0000
      6 C6          2.4077    0.1677   -3.1369 C.ar      1 <0>         0.0000
      7 C7          1.9963   -1.4788   -1.2533 C.2       1 <0>         0.0000
      8 C8         -0.3441    1.0743   -1.4875 C.3       1 <0>         0.0000
      9 C9         -0.1691   -0.1040    1.4778 C.3       1 <0>         0.0000
     10 C10        -0.2902   -0.4565   -1.3945 C.3       1 <0>         0.0000
     11 C11         0.8172   -1.0590    0.8015 C.3       1 <0>         0.0000
     12 C12        -0.2770    3.3196   -0.3430 C.3       1 <0>         0.0000
     13 C13        -0.7542    1.8487   -0.2260 C.3       1 <0>         0.0000
     14 C14        -0.1642    1.3858    1.1163 C.3       1 <0>         0.0000
     15 C15         2.2006   -1.2869   -2.7598 C.3       1 <0>         0.0000
     16 N1          1.1689    3.3672   -0.0445 N.pl3     1 <0>         0.0000
     17 N2          0.8642   -0.9670   -0.6621 N.am      1 <0>         0.0000
     18 O1          2.8675   -2.0368   -0.5847 O.2       1 <0>         0.0000
     19 O2          2.6135    1.4177    0.8064 O.2       1 <0>         0.0000
     20 O3          1.5168    2.9544    2.5057 O.2       1 <0>         0.0000
     21 S1          1.4772    2.2507    1.2224 S.o2      1 <0>         0.0000
     22 H1          2.8367    3.9535   -3.9895 H         1 <0>         0.0000
     23 H2          1.4111    2.4991   -5.4262 H         1 <0>         0.0000
     24 H3          4.0084    2.9660   -2.0191 H         1 <0>         0.0000
     25 H4          1.1328    0.1003   -4.8750 H         1 <0>         0.0000
     26 H5          3.7059    0.5813   -1.4601 H         1 <0>         0.0000
     27 H6          0.6357    1.4089   -1.8273 H         1 <0>         0.0000
     28 H7         -1.0484    1.3468   -2.2829 H         1 <0>         0.0000
     29 H8         -1.2008   -0.4454    1.3300 H         1 <0>         0.0000
     30 H9          0.0159   -0.1922    2.5537 H         1 <0>         0.0000
     31 H10        -1.2047   -0.8531   -0.9378 H         1 <0>         0.0000
     32 H11        -0.2688   -0.8591   -2.4072 H         1 <0>         0.0000
     33 H12         1.8271   -0.8753    1.1631 H         1 <0>         0.0000
     34 H13         0.5535   -2.0816    1.1029 H         1 <0>         0.0000
     35 H14        -0.4341    3.7250   -1.3450 H         1 <0>         0.0000
     36 H15        -0.8013    3.9619    0.3713 H         1 <0>         0.0000
     37 H16        -1.8458    1.8198   -0.1259 H         1 <0>         0.0000
     38 H17        -0.7192    1.9067    1.9026 H         1 <0>         0.0000
     39 H18         1.3769   -1.7146   -3.3398 H         1 <0>         0.0000
     40 H19         3.0941   -1.8711   -2.9933 H         1 <0>         0.0000
     41 H20         1.7275    3.0646   -0.8451 H         1 <0>         0.0000
@<TRIPOS>BOND
     1    1    3 ar
     2    1    2 ar
     3    1   22 1
     4    2    4 ar
     5    2   23 1
     6    3    5 ar
     7    3   24 1
     8    4    6 ar
     9    4   25 1
    10    5    6 ar
    11    5   26 1
    12    6   15 1
    13    7   15 1
    14    7   17 am
    15    7   18 2
    16    8   10 1
    17    8   13 1
    18    8   27 1
    19    8   28 1
    20    9   11 1
    21    9   14 1
    22    9   29 1
    23    9   30 1
    24   10   17 1
    25   10   31 1
    26   10   32 1
    27   11   17 1
    28   11   33 1
    29   11   34 1
    30   12   13 1
    31   12   16 1
    32   12   35 1
    33   12   36 1
    34   13   14 1
    35   13   37 1
    36   14   21 1
    37   14   38 1
    38   15   39 1
    39   15   40 1
    40   16   21 1
    41   16   41 1
    42   19   21 2
    43   20   21 2
