@<TRIPOS>MOLECULE
*****
   39    41     0     0     0
SMALL
NO_CHARGES

@<TRIPOS>ATOM
      1 C1         -4.6720   -5.3457    7.5811 C.ar      1 <0>         0.0000
      2 C2         -5.6514   -4.4805    7.0703 C.ar      1 <0>         0.0000
      3 C3         -3.7280   -5.9402    6.7365 C.ar      1 <0>         0.0000
      4 C4         -5.7106   -4.1877    5.7012 C.ar      1 <0>         0.0000
      5 C5         -3.8938   -8.6965    2.3793 C.2       1 <0>         0.0000
      6 C6         -3.7838   -5.6513    5.3744 C.ar      1 <0>         0.0000
      7 C7         -4.1554   -7.8860    1.2194 C.2       1 <0>         0.0000
      8 C8         -4.7621   -4.7895    4.8863 C.ar      1 <0>         0.0000
      9 C9         -4.8359   -9.6957    2.4141 C.2       1 <0>         0.0000
     10 C10        -5.2800   -8.4226    0.5838 C.2       1 <0>         0.0000
     11 C11        -2.8717   -6.1862    4.3234 C.2       1 <0>         0.0000
     12 C12        -3.4401   -6.6937    0.7877 C.2       1 <0>         0.0000
     13 C13        -5.0075  -10.8242    3.3805 C.3       1 <0>         0.0000
     14 C14        -6.0386   -7.9363   -0.6075 C.3       1 <0>         0.0000
     15 C15        -6.8702  -10.3031    1.0427 C.3       1 <0>         0.0000
     16 C16        -2.5640   -5.9683    1.8304 C.3       1 <0>         0.0000
     17 N1         -5.6782   -9.5154    1.3132 N.pl3     1 <0>         0.0000
     18 N2         -3.2550   -5.6897    3.0869 N.am      1 <0>         0.0000
     19 O1         -1.9331   -6.9492    4.5043 O.2       1 <0>         0.0000
     20 O2         -3.4846   -6.2204   -0.3475 O.2       1 <0>         0.0000
     21 O3         -5.7327   -5.1895    2.4111 O.2       1 <0>         0.0000
     22 O4         -4.1364   -3.2640    2.7535 O.2       1 <0>         0.0000
     23 S1         -4.5986   -4.6012    3.1178 S.o2      1 <0>         0.0000
     24 H1         -4.6483   -5.5545    8.6468 H         1 <0>         0.0000
     25 H2         -6.3745   -4.0294    7.7438 H         1 <0>         0.0000
     26 H3         -2.9618   -6.6117    7.1123 H         1 <0>         0.0000
     27 H4         -6.4652   -3.5194    5.2979 H         1 <0>         0.0000
     28 H5         -3.0765   -8.5901    3.0799 H         1 <0>         0.0000
     29 H6         -5.9907  -10.8115    3.8667 H         1 <0>         0.0000
     30 H7         -4.8863  -11.8054    2.9043 H         1 <0>         0.0000
     31 H8         -4.2497  -10.7430    4.1631 H         1 <0>         0.0000
     32 H9         -5.9552   -8.6322   -1.4522 H         1 <0>         0.0000
     33 H10        -7.1035   -7.8106   -0.3800 H         1 <0>         0.0000
     34 H11        -5.6297   -6.9794   -0.9284 H         1 <0>         0.0000
     35 H12        -7.7530   -9.8697    1.5272 H         1 <0>         0.0000
     36 H13        -7.0489  -10.3510   -0.0325 H         1 <0>         0.0000
     37 H14        -6.7326  -11.3204    1.4120 H         1 <0>         0.0000
     38 H15        -2.2141   -5.0357    1.3818 H         1 <0>         0.0000
     39 H16        -1.7001   -6.5836    2.0983 H         1 <0>         0.0000
@<TRIPOS>BOND
     1    1    2 ar
     2    1    3 ar
     3    1   24 1
     4    2    4 ar
     5    2   25 1
     6    3    6 ar
     7    3   26 1
     8    4    8 ar
     9    4   27 1
    10    5    7 1
    11    5    9 2
    12    5   28 1
    13    6    8 ar
    14    6   11 1
    15    7   10 2
    16    7   12 1
    17    8   23 1
    18    9   13 1
    19    9   17 1
    20   10   14 1
    21   10   17 1
    22   11   18 am
    23   11   19 2
    24   12   16 1
    25   12   20 2
    26   13   29 1
    27   13   30 1
    28   13   31 1
    29   14   32 1
    30   14   33 1
    31   14   34 1
    32   15   17 1
    33   15   35 1
    34   15   36 1
    35   15   37 1
    36   16   18 1
    37   16   38 1
    38   16   39 1
    39   18   23 1
    40   21   23 2
    41   22   23 2
