@<TRIPOS>MOLECULE
*****
   21    21     0     0     0
SMALL
NO_CHARGES

@<TRIPOS>ATOM
      1 C1          2.0237   -1.1619   -0.2414 C.ar      1 <0>         0.0000
      2 C2          0.8692   -0.5706    0.2801 C.ar      1 <0>         0.0000
      3 C3          3.0385   -1.5811    0.6212 C.ar      1 <0>         0.0000
      4 C4          0.7364   -0.4039    1.6604 C.ar      1 <0>         0.0000
      5 C5          2.9374   -1.4238    2.0121 C.ar      1 <0>         0.0000
      6 C6          1.7631   -0.8314    2.5055 C.ar      1 <0>         0.0000
      7 C7          3.7334   -3.1796    3.6693 C.2       1 <0>         0.0000
      8 C8          4.0443   -1.8945    2.9241 C.3       1 <0>         0.0000
      9 N1          4.3131   -3.5464    4.7595 N.2       1 <0>         0.0000
     10 N2          2.8407   -4.0722    3.0756 N.pl3     1 <0>         0.0000
     11 O1          5.3184   -2.6072    5.1442 O.3       1 <0>         0.0000
     12 Cl1         1.5546   -0.6209    4.2406 Cl        1 <0>         0.0000
     13 H1          2.1330   -1.2970   -1.3138 H         1 <0>         0.0000
     14 H2          0.0725   -0.2387   -0.3799 H         1 <0>         0.0000
     15 H3          3.9331   -2.0477    0.2165 H         1 <0>         0.0000
     16 H4         -0.1531    0.0526    2.0832 H         1 <0>         0.0000
     17 H5          4.9530   -2.0659    2.3378 H         1 <0>         0.0000
     18 H6          4.2927   -1.1351    3.6677 H         1 <0>         0.0000
     19 H7          2.0230   -3.6302    2.6681 H         1 <0>         0.0000
     20 H8          2.5925   -4.8361    3.6979 H         1 <0>         0.0000
     21 H9          5.6080   -2.9687    5.9962 H         1 <0>         0.0000
@<TRIPOS>BOND
     1    1    2 ar
     2    1    3 ar
     3    1   13 1
     4    2    4 ar
     5    2   14 1
     6    3    5 ar
     7    3   15 1
     8    4    6 ar
     9    4   16 1
    10    5    6 ar
    11    5    8 1
    12    6   12 1
    13    7    8 1
    14    7    9 2
    15    7   10 1
    16    8   17 1
    17    8   18 1
    18    9   11 1
    19   10   19 1
    20   10   20 1
    21   11   21 1
