@<TRIPOS>MOLECULE
*****
   39    42     0     0     0
SMALL
NO_CHARGES

@<TRIPOS>ATOM
      1 C1          2.0673   -0.8446    7.1586 C.ar      1 <0>         0.0000
      2 C2         -2.9921    4.2122   -1.5246 C.ar      1 <0>         0.0000
      3 C3          1.9961   -1.5662    5.9841 C.ar      1 <0>         0.0000
      4 C4         -2.0008    3.3465   -1.0651 C.ar      1 <0>         0.0000
      5 C5          2.0415    0.5711    7.1376 C.ar      1 <0>         0.0000
      6 C6          1.7238   -0.8309    2.3257 C.ar      1 <0>         0.0000
      7 C7         -3.8640    3.7649   -2.5232 C.ar      1 <0>         0.0000
      8 C8         -2.8353    1.7238   -2.6076 C.ar      1 <0>         0.0000
      9 C9          1.8977   -0.8860    4.7440 C.ar      1 <0>         0.0000
     10 C10        -1.9043    2.0586   -1.6122 C.ar      1 <0>         0.0000
     11 C11         1.8697    0.5425    4.6904 C.ar      1 <0>         0.0000
     12 C12         1.8181   -1.5623    3.4901 C.ar      1 <0>         0.0000
     13 C13         1.9446    1.2287    5.9342 C.ar      1 <0>         0.0000
     14 C14         1.7077    0.5867    2.4020 C.ar      1 <0>         0.0000
     15 C15        -0.6628    0.7795    0.3385 C.3       1 <0>         0.0000
     16 C16         0.6348    1.4813   -1.1689 C.3       1 <0>         0.0000
     17 C17        -0.8651    1.0682   -1.1759 C.3       1 <0>         0.0000
     18 C18         1.6362    1.3999    1.1250 C.3       1 <0>         0.0000
     19 N1         -3.7945    2.5410   -3.0626 N.ar      1 <0>         0.0000
     20 N2          1.7703    1.2607    3.5363 N.ar      1 <0>         0.0000
     21 N3          0.8050    0.7643    0.1166 N.3       1 <0>         0.0000
     22 O1          1.8404   -2.9260    3.5227 O.3       1 <0>         0.0000
     23 F1          1.9196    2.5779    5.9221 F         1 <0>         0.0000
     24 H1          2.1439   -1.3582    8.1126 H         1 <0>         0.0000
     25 H2         -3.0931    5.2155   -1.1200 H         1 <0>         0.0000
     26 H3          2.0150   -2.6505    5.9924 H         1 <0>         0.0000
     27 H4         -1.3120    3.6710   -0.2885 H         1 <0>         0.0000
     28 H5          2.0967    1.1500    8.0546 H         1 <0>         0.0000
     29 H6          1.6499   -1.3031    1.3492 H         1 <0>         0.0000
     30 H7         -4.6494    4.4160   -2.9041 H         1 <0>         0.0000
     31 H8         -2.8008    0.7335   -3.0627 H         1 <0>         0.0000
     32 H9         -0.9908    1.6188    0.9704 H         1 <0>         0.0000
     33 H10        -1.0804   -0.1504    0.7375 H         1 <0>         0.0000
     34 H11         1.2654    1.1195   -1.9878 H         1 <0>         0.0000
     35 H12         0.7561    2.5715   -1.0738 H         1 <0>         0.0000
     36 H13        -0.9944    0.1315   -1.7237 H         1 <0>         0.0000
     37 H14         1.2915    2.4132    1.3911 H         1 <0>         0.0000
     38 H15         2.6495    1.5004    0.7132 H         1 <0>         0.0000
     39 H16         1.7841   -3.2648    2.6141 H         1 <0>         0.0000
@<TRIPOS>BOND
     1    1    3 ar
     2    1    5 ar
     3    1   24 1
     4    2    4 ar
     5    2    7 ar
     6    2   25 1
     7    3    9 ar
     8    3   26 1
     9    4   10 ar
    10    4   27 1
    11    5   13 ar
    12    5   28 1
    13    6   12 ar
    14    6   14 ar
    15    6   29 1
    16    7   19 ar
    17    7   30 1
    18    8   10 ar
    19    8   19 ar
    20    8   31 1
    21    9   11 ar
    22    9   12 ar
    23   10   17 1
    24   11   13 ar
    25   11   20 ar
    26   12   22 1
    27   13   23 1
    28   14   18 1
    29   14   20 ar
    30   15   17 1
    31   15   21 1
    32   15   32 1
    33   15   33 1
    34   16   17 1
    35   16   21 1
    36   16   34 1
    37   16   35 1
    38   17   36 1
    39   18   21 1
    40   18   37 1
    41   18   38 1
    42   22   39 1
