@<TRIPOS>MOLECULE
*****
   33    34     0     0     0
SMALL
NO_CHARGES

@<TRIPOS>ATOM
      1 C1          0.6941   -0.4668    3.6095 C.ar      1 <0>         0.0000
      2 C2          0.2988   -1.1179    2.4410 C.ar      1 <0>         0.0000
      3 C3          0.2074    0.8086    3.8961 C.ar      1 <0>         0.0000
      4 C4         -0.5834   -0.4937    1.5591 C.ar      1 <0>         0.0000
      5 C5         -0.6748    1.4328    3.0142 C.ar      1 <0>         0.0000
      6 C6         -1.0702    0.7817    1.8456 C.ar      1 <0>         0.0000
      7 C7         -2.7050    1.7193   -1.4104 C.3       1 <0>         0.0000
      8 C8         -0.3553    1.5423   -0.8460 C.3       1 <0>         0.0000
      9 C9         -2.4177    1.3403   -2.8584 C.3       1 <0>         0.0000
     10 C10        -0.0081    1.1590   -2.2796 C.3       1 <0>         0.0000
     11 C11        -3.4888    1.1483    1.2068 C.3       1 <0>         0.0000
     12 C12        -2.0276    1.4583    0.8884 C.3       1 <0>         0.0000
     13 N1         -1.7198    1.1169   -0.4999 N.3       1 <0>         0.0000
     14 N2         -1.0239    1.7487   -3.2000 N.4       1 <0>         0.0000
     15 H1          1.3821   -0.9521    4.2956 H         1 <0>         0.0000
     16 H2          0.6784   -2.1104    2.2170 H         1 <0>         0.0000
     17 H3          0.5160    1.3162    4.8053 H         1 <0>         0.0000
     18 H4         -0.8860   -1.0087    0.6511 H         1 <0>         0.0000
     19 H5         -1.0491    2.4265    3.2457 H         1 <0>         0.0000
     20 H6         -2.7175    2.8129   -1.3077 H         1 <0>         0.0000
     21 H7         -3.7093    1.3589   -1.1574 H         1 <0>         0.0000
     22 H8          0.3641    1.0517   -0.1792 H         1 <0>         0.0000
     23 H9         -0.2357    2.6255   -0.7113 H         1 <0>         0.0000
     24 H10        -2.4940    0.2610   -3.0289 H         1 <0>         0.0000
     25 H11        -3.0831    1.8645   -3.5507 H         1 <0>         0.0000
     26 H12         0.9649    1.5600   -2.5786 H         1 <0>         0.0000
     27 H13        -0.0166    0.0746   -2.4341 H         1 <0>         0.0000
     28 H14        -3.6840    0.0716    1.1552 H         1 <0>         0.0000
     29 H15        -3.7429    1.4912    2.2162 H         1 <0>         0.0000
     30 H16        -4.1746    1.6496    0.5146 H         1 <0>         0.0000
     31 H17        -1.8953    2.5452    0.9559 H         1 <0>         0.0000
     32 H18        -0.9513    2.7757   -3.1804 H         1 <0>         0.0000
     33 H19        -0.8121    1.4716   -4.1683 H         1 <0>         0.0000
@<TRIPOS>BOND
     1    1    3 ar
     2    1    2 ar
     3    1   15 1
     4    2    4 ar
     5    2   16 1
     6    3    5 ar
     7    3   17 1
     8    4    6 ar
     9    4   18 1
    10    5    6 ar
    11    5   19 1
    12    6   12 1
    13    7    9 1
    14    7   13 1
    15    7   20 1
    16    7   21 1
    17    8   10 1
    18    8   13 1
    19    8   22 1
    20    8   23 1
    21    9   14 1
    22    9   24 1
    23    9   25 1
    24   10   14 1
    25   10   26 1
    26   10   27 1
    27   11   12 1
    28   11   28 1
    29   11   29 1
    30   11   30 1
    31   12   13 1
    32   12   31 1
    33   14   32 1
    34   14   33 1
