@<TRIPOS>MOLECULE
*****
   25    25     0     0     0
SMALL
NO_CHARGES

@<TRIPOS>ATOM
      1 C1          1.8526   -1.6439    3.6769 C.2       1 <0>         0.0000
      2 C2          0.9580    0.3938   -0.4085 C.3       1 <0>         0.0000
      3 C3         -1.2740    0.3159    0.0221 C.3       1 <0>         0.0000
      4 C4          0.7567   -0.0099    1.0466 C.3       1 <0>         0.0000
      5 C5          1.4143   -1.9956    5.0598 C.3       1 <0>         0.0000
      6 C6         -0.5680    0.5952   -2.2864 C.3       1 <0>         0.0000
      7 C7          1.0684   -1.4762    1.3233 C.3       1 <0>         0.0000
      8 N1         -0.3008   -0.0383   -1.0055 N.3       1 <0>         0.0000
      9 N2          0.8630   -1.7635    2.7039 N.am      1 <0>         0.0000
     10 O1          3.0077   -1.2838    3.4824 O.2       1 <0>         0.0000
     11 O2         -0.6404    0.2195    1.3085 O.3       1 <0>         0.0000
     12 H1          1.0726    1.4840   -0.4721 H         1 <0>         0.0000
     13 H2          1.8321   -0.0793   -0.8663 H         1 <0>         0.0000
     14 H3         -1.6357    1.3467   -0.0752 H         1 <0>         0.0000
     15 H4         -2.1358   -0.3582    0.0031 H         1 <0>         0.0000
     16 H5          1.3446    0.6245    1.7180 H         1 <0>         0.0000
     17 H6          1.5645   -3.0626    5.2900 H         1 <0>         0.0000
     18 H7          1.9794   -1.4489    5.8318 H         1 <0>         0.0000
     19 H8          0.3537   -1.7976    5.2827 H         1 <0>         0.0000
     20 H9         -1.5192    0.2391   -2.6905 H         1 <0>         0.0000
     21 H10         0.2275    0.3586   -2.9983 H         1 <0>         0.0000
     22 H11        -0.6204    1.6808   -2.1675 H         1 <0>         0.0000
     23 H12         2.1034   -1.6679    1.0689 H         1 <0>         0.0000
     24 H13         0.4107   -2.0969    0.7282 H         1 <0>         0.0000
     25 H14        -0.0677   -2.0765    2.9982 H         1 <0>         0.0000
@<TRIPOS>BOND
     1    1    5 1
     2    1    9 am
     3    1   10 2
     4    2    4 1
     5    2    8 1
     6    2   12 1
     7    2   13 1
     8    3    8 1
     9    3   11 1
    10    3   14 1
    11    3   15 1
    12    4    7 1
    13    4   11 1
    14    4   16 1
    15    5   17 1
    16    5   18 1
    17    5   19 1
    18    6    8 1
    19    6   20 1
    20    6   21 1
    21    6   22 1
    22    7    9 1
    23    7   23 1
    24    7   24 1
    25    9   25 1
