@<TRIPOS>MOLECULE
*****
   17    16     0     0     0
SMALL
NO_CHARGES

@<TRIPOS>ATOM
      1 C1         -0.1645   -0.2918    0.9401 C.2       1 <0>         0.0000
      2 C2          0.9765    0.6243   -2.6471 C.3       1 <0>         0.0000
      3 C3         -1.4304   -0.5257    2.9259 C.3       1 <0>         0.0000
      4 C4         -0.2422    0.2717   -0.4621 C.3       1 <0>         0.0000
      5 C5          1.0473    0.0626   -1.2422 C.3       1 <0>         0.0000
      6 O1          0.8021   -0.8691    1.4183 O.2       1 <0>         0.0000
      7 O2         -1.3479   -0.0489    1.5788 O.3       1 <0>         0.0000
      8 F1          1.3302   -1.2627   -1.3178 F         1 <0>         0.0000
      9 F2          2.0812    0.6522   -0.5900 F         1 <0>         0.0000
     10 H1          1.9240    0.4504   -3.1672 H         1 <0>         0.0000
     11 H2          0.1865    0.1381   -3.2277 H         1 <0>         0.0000
     12 H3          0.8006    1.7045   -2.6326 H         1 <0>         0.0000
     13 H4         -2.4113   -0.2808    3.3404 H         1 <0>         0.0000
     14 H5         -0.6433   -0.0624    3.5261 H         1 <0>         0.0000
     15 H6         -1.2968   -1.6101    2.9279 H         1 <0>         0.0000
     16 H7         -1.0695   -0.2301   -0.9759 H         1 <0>         0.0000
     17 H8         -0.4531    1.3434   -0.3779 H         1 <0>         0.0000
@<TRIPOS>BOND
     1    1    4 1
     2    1    6 2
     3    1    7 1
     4    2    5 1
     5    2   10 1
     6    2   11 1
     7    2   12 1
     8    3    7 1
     9    3   13 1
    10    3   14 1
    11    3   15 1
    12    4    5 1
    13    4   16 1
    14    4   17 1
    15    5    8 1
    16    5    9 1
