@<TRIPOS>MOLECULE
*****
   20    20     0     0     0
SMALL
NO_CHARGES

@<TRIPOS>ATOM
      1 C1          4.5660    1.6540    1.1080 C.2       1 <0>         0.0000
      2 C2          5.4830    0.7380    0.6860 C.2       1 <0>         0.0000
      3 C3          3.3280    1.3010    0.5710 C.2       1 <0>         0.0000
      4 C4          3.4840    0.1580   -0.1870 C.2       1 <0>         0.0000
      5 C5          2.5290   -0.6180   -0.9480 C.2       1 <0>         0.0000
      6 C6          5.5270   -1.3010   -0.7250 C.3       1 <0>         0.0000
      7 C7          0.1760   -0.9190   -1.7180 C.3       1 <0>         0.0000
      8 N1          4.8410   -0.1740   -0.1000 N.pl3     1 <0>         0.0000
      9 N2          1.2270   -0.2120   -0.9790 N.am      1 <0>         0.0000
     10 O1          2.8010   -1.6340   -1.5840 O.2       1 <0>         0.0000
     11 Cl1         1.8800    2.2000    0.8570 Cl        1 <0>         0.0000
     12 H1          4.7580    2.4880    1.7330 H         1 <0>         0.0000
     13 H2          6.5230    0.6730    0.8840 H         1 <0>         0.0000
     14 H3          6.5700   -1.2550   -0.4480 H         1 <0>         0.0000
     15 H4          5.3950   -1.2000   -1.7930 H         1 <0>         0.0000
     16 H5          5.0570   -2.2020   -0.3560 H         1 <0>         0.0000
     17 H6          0.4450   -0.9300   -2.7760 H         1 <0>         0.0000
     18 H7         -0.7710   -0.3980   -1.5700 H         1 <0>         0.0000
     19 H8          0.1130   -1.9410   -1.3380 H         1 <0>         0.0000
     20 H9          0.9960    0.6420   -0.4530 H         1 <0>         0.0000
@<TRIPOS>BOND
     1    1    2 2
     2    1    3 1
     3    1   12 1
     4    2    8 1
     5    2   13 1
     6    3    4 2
     7    3   11 1
     8    4    5 1
     9    4    8 1
    10    5    9 am
    11    5   10 2
    12    6    8 1
    13    6   14 1
    14    6   15 1
    15    6   16 1
    16    7    9 1
    17    7   17 1
    18    7   18 1
    19    7   19 1
    20    9   20 1
