@<TRIPOS>MOLECULE
*****
   67    69     0     0     0
SMALL
NO_CHARGES

@<TRIPOS>ATOM
      1 C1          8.4892    0.6827    3.2279 C.ar      1 <0>         0.0000
      2 C2          1.9226   -1.8871    7.6805 C.ar      1 <0>         0.0000
      3 C3          7.4889    1.1300    4.1006 C.ar      1 <0>         0.0000
      4 C4          8.2089   -0.3515    2.3310 C.ar      1 <0>         0.0000
      5 C5          2.4317   -0.6331    7.3198 C.ar      1 <0>         0.0000
      6 C6          1.5118   -2.7768    6.6841 C.ar      1 <0>         0.0000
      7 C7          6.2214    0.5452    4.0754 C.ar      1 <0>         0.0000
      8 C8          6.9356   -0.9334    2.3076 C.ar      1 <0>         0.0000
      9 C9          2.5256   -0.2738    5.9739 C.ar      1 <0>         0.0000
     10 C10         1.6110   -2.4134    5.3358 C.ar      1 <0>         0.0000
     11 C11         5.9320   -0.4953    3.1794 C.ar      1 <0>         0.0000
     12 C12         2.1144   -1.1605    4.9673 C.ar      1 <0>         0.0000
     13 C13         1.2259    1.9012   -1.1492 C.2       1 <0>         0.0000
     14 C14        -1.3653   -0.0219   -2.7817 C.3       1 <0>         0.0000
     15 C15        -0.2209    0.9906   -2.9541 C.3       1 <0>         0.0000
     16 C16        -0.9480    0.6867   -0.6219 C.3       1 <0>         0.0000
     17 C17         0.9275    0.3794   -3.7634 C.3       1 <0>         0.0000
     18 C18        -0.7216    2.2982   -3.5869 C.3       1 <0>         0.0000
     19 C19        -1.5544    1.7576    0.2831 C.3       1 <0>         0.0000
     20 C20        -0.4746   -0.5401    0.1660 C.3       1 <0>         0.0000
     21 C21         2.0932    4.1295    0.8897 C.3       1 <0>         0.0000
     22 C22         4.5599   -1.1357    3.1795 C.3       1 <0>         0.0000
     23 C23         2.1960   -0.7496    3.5114 C.3       1 <0>         0.0000
     24 C24         2.8365    1.9964    2.0720 C.3       1 <0>         0.0000
     25 C25         3.4157    0.5893    1.8958 C.3       1 <0>         0.0000
     26 C26         2.4963    2.6669    0.7455 C.3       1 <0>         0.0000
     27 N1          0.1228    1.1976   -1.5260 N.am      1 <0>         0.0000
     28 N2          3.4827   -0.1415    3.1669 N.3       1 <0>         0.0000
     29 O1          2.0082    2.4501   -1.9191 O.2       1 <0>         0.0000
     30 O2         -1.9799    0.3141   -1.5431 O.3       1 <0>         0.0000
     31 O3          1.3762    1.9058    0.2058 O.3       1 <0>         0.0000
     32 H1          9.4755    1.1395    3.2457 H         1 <0>         0.0000
     33 H2          1.8518   -2.1684    8.7282 H         1 <0>         0.0000
     34 H3          7.7001    1.9351    4.8004 H         1 <0>         0.0000
     35 H4          8.9767   -0.7012    1.6452 H         1 <0>         0.0000
     36 H5          2.7559    0.0626    8.0901 H         1 <0>         0.0000
     37 H6          1.1214   -3.7549    6.9540 H         1 <0>         0.0000
     38 H7          5.4381    0.8948    4.7419 H         1 <0>         0.0000
     39 H8          6.7202   -1.7319    1.6003 H         1 <0>         0.0000
     40 H9          2.9306    0.6928    5.6869 H         1 <0>         0.0000
     41 H10         1.2992   -3.1139    4.5636 H         1 <0>         0.0000
     42 H11        -2.1222    0.0576   -3.5647 H         1 <0>         0.0000
     43 H12        -0.9767   -1.0500   -2.7613 H         1 <0>         0.0000
     44 H13         1.7268    1.1033   -3.9218 H         1 <0>         0.0000
     45 H14         0.5493    0.0521   -4.7386 H         1 <0>         0.0000
     46 H15         1.3435   -0.4914   -3.2467 H         1 <0>         0.0000
     47 H16         0.0562    3.0631   -3.5335 H         1 <0>         0.0000
     48 H17        -1.6129    2.6588   -3.0647 H         1 <0>         0.0000
     49 H18        -0.9782    2.1374   -4.6398 H         1 <0>         0.0000
     50 H19        -1.8056    2.6436   -0.3053 H         1 <0>         0.0000
     51 H20        -0.8682    2.0374    1.0816 H         1 <0>         0.0000
     52 H21        -2.4733    1.3593    0.7224 H         1 <0>         0.0000
     53 H22        -0.1284   -1.3221   -0.5156 H         1 <0>         0.0000
     54 H23        -1.3040   -0.9352    0.7598 H         1 <0>         0.0000
     55 H24         0.3465   -0.2726    0.8328 H         1 <0>         0.0000
     56 H25         1.2419    4.2301    1.5714 H         1 <0>         0.0000
     57 H26         2.9288    4.7119    1.2918 H         1 <0>         0.0000
     58 H27         1.8214    4.5475   -0.0827 H         1 <0>         0.0000
     59 H28         4.4771   -1.8397    2.3306 H         1 <0>         0.0000
     60 H29         4.4443   -1.7314    4.0915 H         1 <0>         0.0000
     61 H30         1.9713   -1.6208    2.8677 H         1 <0>         0.0000
     62 H31         1.4120   -0.0122    3.3089 H         1 <0>         0.0000
     63 H32         1.9310    1.9694    2.6887 H         1 <0>         0.0000
     64 H33         3.5647    2.6121    2.6104 H         1 <0>         0.0000
     65 H34         2.8341    0.0287    1.1442 H         1 <0>         0.0000
     66 H35         4.4310    0.6812    1.5006 H         1 <0>         0.0000
     67 H36         3.3272    2.5799    0.0406 H         1 <0>         0.0000
@<TRIPOS>BOND
     1    1    4 ar
     2    1    3 ar
     3    1   32 1
     4    2    6 ar
     5    2    5 ar
     6    2   33 1
     7    3    7 ar
     8    3   34 1
     9    4    8 ar
    10    4   35 1
    11    5    9 ar
    12    5   36 1
    13    6   10 ar
    14    6   37 1
    15    7   11 ar
    16    7   38 1
    17    8   11 ar
    18    8   39 1
    19    9   12 ar
    20    9   40 1
    21   10   12 ar
    22   10   41 1
    23   11   22 1
    24   12   23 1
    25   13   27 am
    26   13   29 2
    27   13   31 1
    28   14   15 1
    29   14   30 1
    30   14   42 1
    31   14   43 1
    32   15   17 1
    33   15   18 1
    34   15   27 1
    35   16   19 1
    36   16   20 1
    37   16   27 1
    38   16   30 1
    39   17   44 1
    40   17   45 1
    41   17   46 1
    42   18   47 1
    43   18   48 1
    44   18   49 1
    45   19   50 1
    46   19   51 1
    47   19   52 1
    48   20   53 1
    49   20   54 1
    50   20   55 1
    51   21   26 1
    52   21   56 1
    53   21   57 1
    54   21   58 1
    55   22   28 1
    56   22   59 1
    57   22   60 1
    58   23   28 1
    59   23   61 1
    60   23   62 1
    61   24   25 1
    62   24   26 1
    63   24   63 1
    64   24   64 1
    65   25   28 1
    66   25   65 1
    67   25   66 1
    68   26   31 1
    69   26   67 1
