@<TRIPOS>MOLECULE
*****
   42    43     0     0     0
SMALL
NO_CHARGES

@<TRIPOS>ATOM
      1 C1          0.9922    0.0702    8.0339 C.1       1 <0>         0.0000
      2 C2          0.8639    0.1469    9.2398 C.1       1 <0>         0.0000
      3 C3         -1.4341   -2.6381   -5.9503 C.ar      1 <0>         0.0000
      4 C4         -2.4390   -2.5526   -4.9759 C.ar      1 <0>         0.0000
      5 C5         -0.1423   -2.2177   -5.6322 C.ar      1 <0>         0.0000
      6 C6          1.4564    1.1207    5.8515 C.ar      1 <0>         0.0000
      7 C7          0.9935   -1.2505    5.9448 C.ar      1 <0>         0.0000
      8 C8         -2.1544   -2.0547   -3.7067 C.ar      1 <0>         0.0000
      9 C9          0.1599   -1.7144   -4.3595 C.ar      1 <0>         0.0000
     10 C10         1.6075    1.0448    4.4654 C.ar      1 <0>         0.0000
     11 C11         1.1400   -1.3354    4.5673 C.ar      1 <0>         0.0000
     12 C12         1.1478   -0.0175    6.6153 C.ar      1 <0>         0.0000
     13 C13        -0.8520   -1.6326   -3.3924 C.ar      1 <0>         0.0000
     14 C14         1.4477   -0.1883    3.8159 C.ar      1 <0>         0.0000
     15 C15         0.6693    0.2411   10.6868 C.3       1 <0>         0.0000
     16 C16         0.5549   -0.2350   -0.2986 C.3       1 <0>         0.0000
     17 C17         1.9072    0.2857    0.1998 C.3       1 <0>         0.0000
     18 C18         0.6293   -0.7084   -1.7423 C.3       1 <0>         0.0000
     19 C19         1.8675    0.7574    1.6460 C.3       1 <0>         0.0000
     20 O1          1.9373    0.1759   11.3564 O.3       1 <0>         0.0000
     21 O2         -0.6728   -1.1586   -2.1198 O.3       1 <0>         0.0000
     22 O3          1.5714   -0.3759    2.4687 O.3       1 <0>         0.0000
     23 H1         -1.6583   -3.0268   -6.9396 H         1 <0>         0.0000
     24 H2         -3.4507   -2.8763   -5.2073 H         1 <0>         0.0000
     25 H3          0.6478   -2.2782   -6.3767 H         1 <0>         0.0000
     26 H4          1.5815    2.0758    6.3531 H         1 <0>         0.0000
     27 H5          0.7577   -2.1405    6.5208 H         1 <0>         0.0000
     28 H6         -2.9221   -1.9827   -2.9415 H         1 <0>         0.0000
     29 H7          1.1725   -1.3957   -4.1399 H         1 <0>         0.0000
     30 H8          1.8482    1.9438    3.9101 H         1 <0>         0.0000
     31 H9          1.0216   -2.2809    4.0462 H         1 <0>         0.0000
     32 H10         0.1566    1.1871   10.9165 H         1 <0>         0.0000
     33 H11         0.0145   -0.5812   11.0111 H         1 <0>         0.0000
     34 H12         0.2184   -1.0622    0.3329 H         1 <0>         0.0000
     35 H13        -0.2016    0.5553   -0.2246 H         1 <0>         0.0000
     36 H14         2.2380    1.1314   -0.4168 H         1 <0>         0.0000
     37 H15         2.6730   -0.4939    0.1078 H         1 <0>         0.0000
     38 H16         0.9476    0.1092   -2.4048 H         1 <0>         0.0000
     39 H17         1.3528   -1.5296   -1.8429 H         1 <0>         0.0000
     40 H18         1.0939    1.5257    1.7810 H         1 <0>         0.0000
     41 H19         2.8353    1.1843    1.9402 H         1 <0>         0.0000
     42 H20         1.7649    0.2408   12.3096 H         1 <0>         0.0000
@<TRIPOS>BOND
     1    1    2 3
     2    1   12 1
     3    2   15 1
     4    3    5 ar
     5    3    4 ar
     6    3   23 1
     7    4    8 ar
     8    4   24 1
     9    5    9 ar
    10    5   25 1
    11    6   10 ar
    12    6   12 ar
    13    6   26 1
    14    7   11 ar
    15    7   12 ar
    16    7   27 1
    17    8   13 ar
    18    8   28 1
    19    9   13 ar
    20    9   29 1
    21   10   14 ar
    22   10   30 1
    23   11   14 ar
    24   11   31 1
    25   13   21 1
    26   14   22 1
    27   15   20 1
    28   15   32 1
    29   15   33 1
    30   16   17 1
    31   16   18 1
    32   16   34 1
    33   16   35 1
    34   17   19 1
    35   17   36 1
    36   17   37 1
    37   18   21 1
    38   18   38 1
    39   18   39 1
    40   19   22 1
    41   19   40 1
    42   19   41 1
    43   20   42 1
