@<TRIPOS>MOLECULE
*****
   27    28     0     0     0
SMALL
NO_CHARGES

@<TRIPOS>ATOM
      1 C1         -2.0911   -1.5800   -0.7039 C.ar      1 <0>         0.0000
      2 C2         -0.7247   -1.5648   -0.4236 C.ar      1 <0>         0.0000
      3 C3         -2.7784   -2.8093   -0.8115 C.ar      1 <0>         0.0000
      4 C4          1.2385   -4.5820    0.0589 C.2       1 <0>         0.0000
      5 C5         -0.0014   -5.1270   -0.1886 C.2       1 <0>         0.0000
      6 C6         -0.8901   -4.0082   -0.3960 C.ar      1 <0>         0.0000
      7 C7         -0.1196   -2.8122   -0.2662 C.ar      1 <0>         0.0000
      8 C8         -0.3693   -6.5813   -0.2094 C.3       1 <0>         0.0000
      9 C9         -1.6246   -8.4714    0.8951 C.3       1 <0>         0.0000
     10 C10        -1.2923   -6.9824    0.9546 C.3       1 <0>         0.0000
     11 N1         -2.2108   -4.0082   -0.6636 N.ar      1 <0>         0.0000
     12 N2          1.1771   -3.1919    0.0144 N.pl3     1 <0>         0.0000
     13 N3         -0.6103   -6.7293    2.2374 N.3       1 <0>         0.0000
     14 O1         -2.3608   -8.7299   -0.3056 O.3       1 <0>         0.0000
     15 H1         -2.6360   -0.6505   -0.8406 H         1 <0>         0.0000
     16 H2         -0.1720   -0.6323   -0.3345 H         1 <0>         0.0000
     17 H3         -3.8455   -2.8075   -1.0297 H         1 <0>         0.0000
     18 H4          2.1754   -5.0831    0.2654 H         1 <0>         0.0000
     19 H5         -0.8843   -6.8241   -1.1430 H         1 <0>         0.0000
     20 H6          0.5415   -7.1899   -0.1592 H         1 <0>         0.0000
     21 H7         -2.2204   -8.7453    1.7800 H         1 <0>         0.0000
     22 H8         -0.6891   -9.0486    0.9252 H         1 <0>         0.0000
     23 H9         -2.2304   -6.4185    0.8462 H         1 <0>         0.0000
     24 H10         1.9626   -2.5696    0.1366 H         1 <0>         0.0000
     25 H11        -1.2811   -6.8062    3.0009 H         1 <0>         0.0000
     26 H12        -0.2809   -5.7647    2.2456 H         1 <0>         0.0000
     27 H13        -2.5386   -9.6809   -0.3516 H         1 <0>         0.0000
@<TRIPOS>BOND
     1    1    2 ar
     2    1    3 ar
     3    1   15 1
     4    2    7 ar
     5    2   16 1
     6    3   11 ar
     7    3   17 1
     8    4    5 2
     9    4   12 1
    10    4   18 1
    11    5    6 1
    12    5    8 1
    13    6    7 ar
    14    6   11 ar
    15    7   12 1
    16    8   10 1
    17    8   19 1
    18    8   20 1
    19    9   10 1
    20    9   14 1
    21    9   21 1
    22    9   22 1
    23   10   13 1
    24   10   23 1
    25   12   24 1
    26   13   25 1
    27   13   26 1
    28   14   27 1
