@<TRIPOS>MOLECULE
*****
   27    28     0     0     0
SMALL
NO_CHARGES

@<TRIPOS>ATOM
      1 C1         -1.9811   -1.0716   -0.0698 C.ar      1 <0>         0.0000
      2 C2         -0.5878   -0.9931   -0.0720 C.ar      1 <0>         0.0000
      3 C3         -2.6195   -2.3290   -0.0408 C.ar      1 <0>         0.0000
      4 C4          1.5716   -3.9110   -0.0298 C.2       1 <0>         0.0000
      5 C5          0.3348   -4.5174   -0.0201 C.2       1 <0>         0.0000
      6 C6         -0.6240   -3.4407   -0.0309 C.ar      1 <0>         0.0000
      7 C7          0.0963   -2.2082   -0.0499 C.ar      1 <0>         0.0000
      8 C8          0.0370   -5.9890   -0.0109 C.3       1 <0>         0.0000
      9 C9         -1.5130   -5.9653    2.0377 C.3       1 <0>         0.0000
     10 C10        -0.2674   -6.5861    1.3794 C.3       1 <0>         0.0000
     11 N1         -1.9715   -3.4966   -0.0227 N.ar      1 <0>         0.0000
     12 N2          1.4383   -2.5261   -0.0411 N.pl3     1 <0>         0.0000
     13 N3         -0.4466   -8.0367    1.2116 N.3       1 <0>         0.0000
     14 O1         -2.6827   -5.9841    1.2392 O.3       1 <0>         0.0000
     15 H1         -2.5843   -0.1691   -0.0852 H         1 <0>         0.0000
     16 H2         -0.0738   -0.0350   -0.0883 H         1 <0>         0.0000
     17 H3         -3.7062   -2.3831   -0.0284 H         1 <0>         0.0000
     18 H4          2.5548   -4.3641   -0.0381 H         1 <0>         0.0000
     19 H5         -0.8203   -6.2045   -0.6552 H         1 <0>         0.0000
     20 H6          0.8912   -6.5296   -0.4352 H         1 <0>         0.0000
     21 H7         -1.2646   -4.9407    2.3487 H         1 <0>         0.0000
     22 H8         -1.7394   -6.5298    2.9518 H         1 <0>         0.0000
     23 H9          0.5784   -6.3382    2.0486 H         1 <0>         0.0000
     24 H10         2.2022   -1.8673   -0.0845 H         1 <0>         0.0000
     25 H11        -0.7876   -8.4486    2.0785 H         1 <0>         0.0000
     26 H12         0.4489   -8.4771    1.0076 H         1 <0>         0.0000
     27 H13        -2.6362   -5.1965    0.6548 H         1 <0>         0.0000
@<TRIPOS>BOND
     1    1    2 ar
     2    1    3 ar
     3    1   15 1
     4    2    7 ar
     5    2   16 1
     6    3   11 ar
     7    3   17 1
     8    4    5 2
     9    4   12 1
    10    4   18 1
    11    5    6 1
    12    5    8 1
    13    6    7 ar
    14    6   11 ar
    15    7   12 1
    16    8   10 1
    17    8   19 1
    18    8   20 1
    19    9   10 1
    20    9   14 1
    21    9   21 1
    22    9   22 1
    23   10   13 1
    24   10   23 1
    25   12   24 1
    26   13   25 1
    27   13   26 1
    28   14   27 1
