@<TRIPOS>MOLECULE
*****
   40    42     0     0     0
SMALL
NO_CHARGES

@<TRIPOS>ATOM
      1 C1          5.3858    2.6161    1.9971 C.ar      1 <0>         0.0000
      2 C2          5.3136    1.5535   -0.1586 C.ar      1 <0>         0.0000
      3 C3          4.1326    3.1897    1.7516 C.ar      1 <0>         0.0000
      4 C4          4.0661    2.1254   -0.4072 C.ar      1 <0>         0.0000
      5 C5          5.9955    1.7866    1.0479 C.ar      1 <0>         0.0000
      6 C6          3.4577    2.9546    0.5495 C.ar      1 <0>         0.0000
      7 C7          0.7312    1.7814   -0.8024 C.2       1 <0>         0.0000
      8 C8         -0.6145   -0.3038   -1.2100 C.3       1 <0>         0.0000
      9 C9         -0.5128   -1.6899   -0.5694 C.3       1 <0>         0.0000
     10 C10         0.8204    1.7106    1.5369 C.3       1 <0>         0.0000
     11 C11        -0.0807   -0.7404    1.6177 C.3       1 <0>         0.0000
     12 C12        -0.1927    0.6665    1.0423 C.3       1 <0>         0.0000
     13 C13         7.3366    1.1421    1.3149 C.3       1 <0>         0.0000
     14 C14        -0.9476   -2.9854    1.4235 C.3       1 <0>         0.0000
     15 C15         2.0788    3.5329    0.2936 C.3       1 <0>         0.0000
     16 N1          0.1146    0.6261   -0.3786 N.am      1 <0>         0.0000
     17 N2          1.0157    2.5322    0.3408 N.am      1 <0>         0.0000
     18 N3         -0.9280   -1.6493    0.8390 N.3       1 <0>         0.0000
     19 O1          0.9933    2.0918   -1.9624 O.2       1 <0>         0.0000
     20 H1          5.8937    2.8190    2.9378 H         1 <0>         0.0000
     21 H2          5.7716    0.9203   -0.9164 H         1 <0>         0.0000
     22 H3          3.6792    3.8313    2.5054 H         1 <0>         0.0000
     23 H4          3.5549    1.9361   -1.3477 H         1 <0>         0.0000
     24 H5         -0.1755   -0.2961   -2.2100 H         1 <0>         0.0000
     25 H6         -1.6718   -0.0097   -1.2895 H         1 <0>         0.0000
     26 H7         -1.1690   -2.3857   -1.1022 H         1 <0>         0.0000
     27 H8          0.5260   -2.0582   -0.6704 H         1 <0>         0.0000
     28 H9          0.4361    2.3075    2.3692 H         1 <0>         0.0000
     29 H10         1.7610    1.2339    1.8487 H         1 <0>         0.0000
     30 H11         0.9804   -1.0555    1.6010 H         1 <0>         0.0000
     31 H12        -0.4204   -0.7493    2.6593 H         1 <0>         0.0000
     32 H13        -1.2225    1.0269    1.1934 H         1 <0>         0.0000
     33 H14         7.2170    0.0915    1.6065 H         1 <0>         0.0000
     34 H15         7.9726    1.1614    0.4241 H         1 <0>         0.0000
     35 H16         7.8709    1.6499    2.1230 H         1 <0>         0.0000
     36 H17        -1.3095   -2.9315    2.4553 H         1 <0>         0.0000
     37 H18         0.0477   -3.4686    1.4323 H         1 <0>         0.0000
     38 H19        -1.6320   -3.6258    0.8580 H         1 <0>         0.0000
     39 H20         1.8522    4.3100    1.0315 H         1 <0>         0.0000
     40 H21         2.0265    3.9857   -0.6992 H         1 <0>         0.0000
@<TRIPOS>BOND
     1    1    3 ar
     2    1    5 ar
     3    1   20 1
     4    2    4 ar
     5    2    5 ar
     6    2   21 1
     7    3    6 ar
     8    3   22 1
     9    4    6 ar
    10    4   23 1
    11    5   13 1
    12    6   15 1
    13    7   16 am
    14    7   17 am
    15    7   19 2
    16    8    9 1
    17    8   16 1
    18    8   24 1
    19    8   25 1
    20    9   18 1
    21    9   26 1
    22    9   27 1
    23   10   12 1
    24   10   17 1
    25   10   28 1
    26   10   29 1
    27   11   12 1
    28   11   18 1
    29   11   30 1
    30   11   31 1
    31   12   16 1
    32   12   32 1
    33   13   33 1
    34   13   34 1
    35   13   35 1
    36   14   18 1
    37   14   36 1
    38   14   37 1
    39   14   38 1
    40   15   17 1
    41   15   39 1
    42   15   40 1
