@<TRIPOS>MOLECULE
*****
   44    46     0     0     0
SMALL
NO_CHARGES

@<TRIPOS>ATOM
      1 C1        -11.9328    5.8423   -3.5499 C.ar      1 <0>         0.0000
      2 C2        -10.8467    6.2547   -4.3119 C.ar      1 <0>         0.0000
      3 C3        -11.8739    4.6295   -2.8696 C.ar      1 <0>         0.0000
      4 C4        -10.6389    2.5988   -2.2754 C.ar      1 <0>         0.0000
      5 C5         -4.2456   -1.2820   -2.4819 C.ar      1 <0>         0.0000
      6 C6         -9.7047    5.4539   -4.3917 C.ar      1 <0>         0.0000
      7 C7         -5.0767   -0.2073   -2.7980 C.ar      1 <0>         0.0000
      8 C8         -9.4905    1.8267   -2.3749 C.ar      1 <0>         0.0000
      9 C9         -4.5212   -0.8033   -0.1298 C.ar      1 <0>         0.0000
     10 C10       -10.7251    3.8242   -2.9500 C.ar      1 <0>         0.0000
     11 C11        -3.9679   -1.5800   -1.1478 C.ar      1 <0>         0.0000
     12 C12        -9.6185    4.2367   -3.7216 C.ar      1 <0>         0.0000
     13 C13        -5.6300    0.5694   -1.7800 C.ar      1 <0>         0.0000
     14 C14        -5.3523    0.2714   -0.4459 C.ar      1 <0>         0.0000
     15 C15        -8.4599    2.3132   -3.1533 C.ar      1 <0>         0.0000
     16 C16        -3.8158   -4.0437   -0.6289 C.2       1 <0>         0.0000
     17 C17        -5.7561   -6.1453   -2.1153 C.3       1 <0>         0.0000
     18 C18        -3.0777   -2.7278   -0.8110 C.3       1 <0>         0.0000
     19 C19        -7.2057    1.5160   -3.2890 C.3       1 <0>         0.0000
     20 N1         -8.5028    3.4894   -3.8201 N.ar      1 <0>         0.0000
     21 N2         -3.3957   -5.0581   -1.5500 N.am      1 <0>         0.0000
     22 O1         -4.6871   -4.2172    0.2155 O.2       1 <0>         0.0000
     23 O2         -4.1282   -7.2649   -0.4019 O.2       1 <0>         0.0000
     24 O3         -3.5217   -7.2714   -2.8511 O.2       1 <0>         0.0000
     25 O4         -6.4458    1.6253   -2.0920 O.3       1 <0>         0.0000
     26 F1         -5.8806    1.0142    0.5364 F         1 <0>         0.0000
     27 S1         -4.0941   -6.6100   -1.6946 S.o2      1 <0>         0.0000
     28 H1        -12.8219    6.4620   -3.4853 H         1 <0>         0.0000
     29 H2        -10.8846    7.1995   -4.8463 H         1 <0>         0.0000
     30 H3        -12.7294    4.3160   -2.2754 H         1 <0>         0.0000
     31 H4        -11.4670    2.2394   -1.6687 H         1 <0>         0.0000
     32 H5         -3.8179   -1.8809   -3.2816 H         1 <0>         0.0000
     33 H6         -8.8676    5.7994   -4.9957 H         1 <0>         0.0000
     34 H7         -5.2905    0.0202   -3.8388 H         1 <0>         0.0000
     35 H8         -9.4168    0.8773   -1.8562 H         1 <0>         0.0000
     36 H9         -4.3093   -1.0273    0.9122 H         1 <0>         0.0000
     37 H10        -6.3456   -7.0543   -2.2447 H         1 <0>         0.0000
     38 H11        -6.1604   -5.5397   -1.3027 H         1 <0>         0.0000
     39 H12        -5.7289   -5.5717   -3.0430 H         1 <0>         0.0000
     40 H13        -2.3209   -2.8708   -1.5991 H         1 <0>         0.0000
     41 H14        -2.5188   -2.5213    0.1160 H         1 <0>         0.0000
     42 H15        -7.4239    0.4551   -3.4712 H         1 <0>         0.0000
     43 H16        -6.5965    1.8763   -4.1288 H         1 <0>         0.0000
     44 H17        -2.6604   -4.8196   -2.2285 H         1 <0>         0.0000
@<TRIPOS>BOND
     1    1    2 ar
     2    1    3 ar
     3    1   28 1
     4    2    6 ar
     5    2   29 1
     6    3   10 ar
     7    3   30 1
     8    4    8 ar
     9    4   10 ar
    10    4   31 1
    11    5    7 ar
    12    5   11 ar
    13    5   32 1
    14    6   12 ar
    15    6   33 1
    16    7   13 ar
    17    7   34 1
    18    8   15 ar
    19    8   35 1
    20    9   11 ar
    21    9   14 ar
    22    9   36 1
    23   10   12 ar
    24   11   18 1
    25   12   20 ar
    26   13   14 ar
    27   13   25 1
    28   14   26 1
    29   15   19 1
    30   15   20 ar
    31   16   18 1
    32   16   21 am
    33   16   22 2
    34   17   27 1
    35   17   37 1
    36   17   38 1
    37   17   39 1
    38   18   40 1
    39   18   41 1
    40   19   25 1
    41   19   42 1
    42   19   43 1
    43   21   27 1
    44   21   44 1
    45   23   27 2
    46   24   27 2
