@<TRIPOS>MOLECULE
*****
   18    18     0     0     0
SMALL
NO_CHARGES

@<TRIPOS>ATOM
      1 C1          1.8851   -1.0363   -0.1124 C.ar      1 <0>         0.0000
      2 C2          0.7638   -0.4841    1.9551 C.ar      1 <0>         0.0000
      3 C3          2.8783   -1.6520    2.0022 C.ar      1 <0>         0.0000
      4 C4          0.8066   -0.4630    0.5610 C.ar      1 <0>         0.0000
      5 C5          2.9210   -1.6309    0.6081 C.ar      1 <0>         0.0000
      6 C6          1.7997   -1.0786    2.6757 C.ar      1 <0>         0.0000
      7 C7          0.0571    1.9595   -0.4926 C.2       1 <0>         0.0000
      8 C8         -0.8810    2.8622   -1.2423 C.3       1 <0>         0.0000
      9 O1          1.1188    2.3461   -0.0184 O.2       1 <0>         0.0000
     10 S1         -0.5174    0.2959   -0.3595 S.3       1 <0>         0.0000
     11 Cl1         4.2521   -2.3382   -0.2227 Cl        1 <0>         0.0000
     12 Cl2         1.7470   -1.1055    4.3958 Cl        1 <0>         0.0000
     13 H1          1.9226   -1.0223   -1.1999 H         1 <0>         0.0000
     14 H2         -0.0761   -0.0387    2.4846 H         1 <0>         0.0000
     15 H3          3.6861   -2.1162    2.5640 H         1 <0>         0.0000
     16 H4         -0.6406    2.8566   -2.3090 H         1 <0>         0.0000
     17 H5         -0.7719    3.8855   -0.8703 H         1 <0>         0.0000
     18 H6         -1.9163    2.5474   -1.0846 H         1 <0>         0.0000
@<TRIPOS>BOND
     1    1    4 ar
     2    1    5 ar
     3    1   13 1
     4    2    4 ar
     5    2    6 ar
     6    2   14 1
     7    3    5 ar
     8    3    6 ar
     9    3   15 1
    10    4   10 1
    11    5   11 1
    12    6   12 1
    13    7    8 1
    14    7    9 2
    15    7   10 1
    16    8   16 1
    17    8   17 1
    18    8   18 1
