@<TRIPOS>MOLECULE
*****
   23    23     0     0     0
SMALL
NO_CHARGES

@<TRIPOS>ATOM
      1 C1          4.6965   -4.4143    3.9458 C.1       1 <0>         0.0000
      2 C2          1.8902   -0.9834   -0.1217 C.ar      1 <0>         0.0000
      3 C3          0.7824   -0.4554    0.5301 C.ar      1 <0>         0.0000
      4 C4          1.7773   -1.1047    2.6627 C.ar      1 <0>         0.0000
      5 C5          2.8916   -1.6604    2.0210 C.ar      1 <0>         0.0000
      6 C6          2.9154   -1.5913    0.6126 C.ar      1 <0>         0.0000
      7 C7          0.7521   -0.5329    1.9203 C.ar      1 <0>         0.0000
      8 C8          3.6670   -3.7709    3.1212 C.3       1 <0>         0.0000
      9 C9          3.9867   -2.2709    2.8935 C.3       1 <0>         0.0000
     10 N1          5.5260   -4.8761    4.6178 N.1       1 <0>         0.0000
     11 N2          4.0173   -1.5932    4.1968 N.3       1 <0>         0.0000
     12 N3          4.0201   -2.1515   -0.1792 N.pl3     1 <0>         0.0000
     13 O1          4.2500   -1.6468   -1.2821 O.3       1 <0>         0.0000
     14 O2          4.6489   -3.1101    0.2918 O.2       1 <0>         0.0000
     15 F1         -0.3129   -0.0236    2.5748 F         1 <0>         0.0000
     16 H1          1.9737   -0.9400   -1.2012 H         1 <0>         0.0000
     17 H2         -0.0350    0.0072   -0.0130 H         1 <0>         0.0000
     18 H3          1.7321   -1.1118    3.7462 H         1 <0>         0.0000
     19 H4          3.6104   -4.2849    2.1604 H         1 <0>         0.0000
     20 H5          2.7034   -3.8645    3.6315 H         1 <0>         0.0000
     21 H6          4.9419   -2.2182    2.3628 H         1 <0>         0.0000
     22 H7          4.3557   -0.6394    4.0773 H         1 <0>         0.0000
     23 H8          4.6883   -2.0640    4.8039 H         1 <0>         0.0000
@<TRIPOS>BOND
     1    1    8 1
     2    1   10 3
     3    2    3 ar
     4    2    6 ar
     5    2   16 1
     6    3    7 ar
     7    3   17 1
     8    4    5 ar
     9    4    7 ar
    10    4   18 1
    11    5    6 ar
    12    5    9 1
    13    6   12 1
    14    7   15 1
    15    8    9 1
    16    8   19 1
    17    8   20 1
    18    9   11 1
    19    9   21 1
    20   11   22 1
    21   11   23 1
    22   12   13 1
    23   12   14 2
