@<TRIPOS>MOLECULE
*****
   47    50     0     0     0
SMALL
NO_CHARGES

@<TRIPOS>ATOM
      1 C1          5.3163    0.4402    0.7101 C.1       1 <0>         0.0000
      2 C2          8.9528   -0.3155    0.8213 C.ar      1 <0>         0.0000
      3 C3          8.9566   -1.7162    0.7984 C.ar      1 <0>         0.0000
      4 C4          7.7405    0.3662    0.7621 C.ar      1 <0>         0.0000
      5 C5          7.7595   -2.4205    0.6992 C.ar      1 <0>         0.0000
      6 C6          4.9565   -3.7908    0.9963 C.2       1 <0>         0.0000
      7 C7          3.5827   -3.9900    0.6434 C.2       1 <0>         0.0000
      8 C8          6.5247   -0.3379    0.6781 C.ar      1 <0>         0.0000
      9 C9          6.5206   -1.7557    0.6339 C.ar      1 <0>         0.0000
     10 C10         5.2977   -2.5392    0.5414 C.2       1 <0>         0.0000
     11 C11         3.1772   -2.8584   -0.0148 C.2       1 <0>         0.0000
     12 C12         0.7482    1.4736    0.5168 C.3       1 <0>         0.0000
     13 C13         0.6536    1.0658   -0.9778 C.3       1 <0>         0.0000
     14 C14        -1.0802   -0.0737    1.4205 C.3       1 <0>         0.0000
     15 C15         1.3406   -0.8911    1.1527 C.3       1 <0>         0.0000
     16 C16        -0.9557   -0.9189   -0.8777 C.3       1 <0>         0.0000
     17 C17         0.4140    0.2988    1.4514 C.3       1 <0>         0.0000
     18 C18         0.5035   -0.4565   -1.1287 C.3       1 <0>         0.0000
     19 C19        -3.0857   -0.4301    0.1432 C.3       1 <0>         0.0000
     20 C20         1.8839   -2.4472   -0.6474 C.3       1 <0>         0.0000
     21 N1          4.3843    1.1358    0.7813 N.1       1 <0>         0.0000
     22 N2         -1.6728   -0.0856    0.0841 N.3       1 <0>         0.0000
     23 N3          1.5192   -1.0934   -0.2882 N.3       1 <0>         0.0000
     24 O1          4.2161   -1.9729   -0.0839 O.3       1 <0>         0.0000
     25 H1          9.8853    0.2374    0.8864 H         1 <0>         0.0000
     26 H2          9.8971   -2.2589    0.8409 H         1 <0>         0.0000
     27 H3          7.7154    1.4511    0.7940 H         1 <0>         0.0000
     28 H4          7.7743   -3.5048    0.6442 H         1 <0>         0.0000
     29 H5          5.5929   -4.4637    1.5558 H         1 <0>         0.0000
     30 H6          2.9677   -4.8530    0.8621 H         1 <0>         0.0000
     31 H7          1.7658    1.8046    0.7404 H         1 <0>         0.0000
     32 H8          0.0733    2.3101    0.7261 H         1 <0>         0.0000
     33 H9         -0.1928    1.5605   -1.4620 H         1 <0>         0.0000
     34 H10         1.5679    1.3669   -1.4971 H         1 <0>         0.0000
     35 H11        -1.2157   -1.0484    1.9328 H         1 <0>         0.0000
     36 H12        -1.6372    0.6677    2.0065 H         1 <0>         0.0000
     37 H13         2.3229   -0.7049    1.6023 H         1 <0>         0.0000
     38 H14         0.9312   -1.7972    1.6348 H         1 <0>         0.0000
     39 H15        -1.5049   -0.8551   -1.8245 H         1 <0>         0.0000
     40 H16        -0.9590   -1.9890   -0.5852 H         1 <0>         0.0000
     41 H17         0.6251    0.5994    2.4846 H         1 <0>         0.0000
     42 H18         0.7483   -0.7320   -2.1608 H         1 <0>         0.0000
     43 H19        -3.5332   -0.3429   -0.8526 H         1 <0>         0.0000
     44 H20        -3.6082    0.2632    0.8110 H         1 <0>         0.0000
     45 H21        -3.2684   -1.4590    0.5116 H         1 <0>         0.0000
     46 H22         1.9829   -2.4964   -1.7397 H         1 <0>         0.0000
     47 H23         1.1356   -3.2118   -0.3586 H         1 <0>         0.0000
@<TRIPOS>BOND
     1    1    8 1
     2    1   21 3
     3    2    3 ar
     4    2    4 ar
     5    2   25 1
     6    3    5 ar
     7    3   26 1
     8    4    8 ar
     9    4   27 1
    10    5    9 ar
    11    5   28 1
    12    6    7 1
    13    6   10 2
    14    6   29 1
    15    7   11 2
    16    7   30 1
    17    8    9 ar
    18    9   10 1
    19   10   24 1
    20   11   20 1
    21   11   24 1
    22   12   13 1
    23   12   17 1
    24   12   31 1
    25   12   32 1
    26   13   18 1
    27   13   33 1
    28   13   34 1
    29   14   17 1
    30   14   22 1
    31   14   35 1
    32   14   36 1
    33   15   17 1
    34   15   23 1
    35   15   37 1
    36   15   38 1
    37   16   18 1
    38   16   22 1
    39   16   39 1
    40   16   40 1
    41   17   41 1
    42   18   23 1
    43   18   42 1
    44   19   22 1
    45   19   43 1
    46   19   44 1
    47   19   45 1
    48   20   23 1
    49   20   46 1
    50   20   47 1
