@<TRIPOS>MOLECULE
*****
   38    40     0     0     0
SMALL
NO_CHARGES

@<TRIPOS>ATOM
      1 C1         -3.0667    1.6895  -10.0292 C.ar      1 <0>         0.0000
      2 C2         -4.2368    2.4552  -10.0002 C.ar      1 <0>         0.0000
      3 C3         -2.2770    1.5906   -8.8835 C.ar      1 <0>         0.0000
      4 C4         -4.6110    3.1303   -8.8362 C.ar      1 <0>         0.0000
      5 C5         -0.9667    1.6434   -4.5669 C.2       1 <0>         0.0000
      6 C6         -2.6458    2.2568   -7.7118 C.ar      1 <0>         0.0000
      7 C7         -3.8100    3.0382   -7.6956 C.ar      1 <0>         0.0000
      8 C8         -0.1029    2.4988   -5.3213 C.2       1 <0>         0.0000
      9 C9         -2.0542    1.4463   -5.4135 C.2       1 <0>         0.0000
     10 C10        -0.7013    1.1414   -3.2278 C.2       1 <0>         0.0000
     11 C11        -0.3147    0.4850   -0.4732 C.3       1 <0>         0.0000
     12 C12        -2.4891   -0.5471   -0.6939 C.3       1 <0>         0.0000
     13 C13        -0.9806    1.6967    0.1871 C.3       1 <0>         0.0000
     14 C14        -3.1060    0.6776   -0.0156 C.3       1 <0>         0.0000
     15 C15         1.2291    3.0482   -4.9095 C.3       1 <0>         0.0000
     16 N1         -0.6138    2.7946   -6.5156 N.2       1 <0>         0.0000
     17 N2         -1.5284    0.3585   -2.6219 N.2       1 <0>         0.0000
     18 N3         -1.8175    2.1465   -6.5625 N.pl3     1 <0>         0.0000
     19 N4         -1.2489   -0.1837   -1.3944 N.pl3     1 <0>         0.0000
     20 O1         -2.1700    1.3000    0.8720 O.3       1 <0>         0.0000
     21 Cl1        -4.2604    3.9230   -6.2582 Cl        1 <0>         0.0000
     22 Cl2        -3.4792    0.5098   -5.2174 Cl        1 <0>         0.0000
     23 H1         -2.7739    1.1691  -10.9363 H         1 <0>         0.0000
     24 H2         -4.8615    2.5340  -10.8856 H         1 <0>         0.0000
     25 H3         -1.3656    1.0008   -8.8753 H         1 <0>         0.0000
     26 H4         -5.5110    3.7361   -8.8089 H         1 <0>         0.0000
     27 H5          0.2447    1.4708   -2.7901 H         1 <0>         0.0000
     28 H6          0.6104    0.7556   -0.9865 H         1 <0>         0.0000
     29 H7         -0.0519   -0.2463    0.2977 H         1 <0>         0.0000
     30 H8         -2.2450   -1.3048    0.0587 H         1 <0>         0.0000
     31 H9         -3.1766   -0.9770   -1.4250 H         1 <0>         0.0000
     32 H10        -0.3254    2.1424    0.9408 H         1 <0>         0.0000
     33 H11        -1.2190    2.4610   -0.5673 H         1 <0>         0.0000
     34 H12        -3.4319    1.3973   -0.7817 H         1 <0>         0.0000
     35 H13        -3.9682    0.3996    0.5968 H         1 <0>         0.0000
     36 H14         1.9428    2.2461   -4.6906 H         1 <0>         0.0000
     37 H15         1.6362    3.6624   -5.7157 H         1 <0>         0.0000
     38 H16         1.1439    3.6703   -4.0115 H         1 <0>         0.0000
@<TRIPOS>BOND
     1    1    2 ar
     2    1    3 ar
     3    1   23 1
     4    2    4 ar
     5    2   24 1
     6    3    6 ar
     7    3   25 1
     8    4    7 ar
     9    4   26 1
    10    5    8 1
    11    5    9 2
    12    5   10 1
    13    6    7 ar
    14    6   18 1
    15    7   21 1
    16    8   15 1
    17    8   16 2
    18    9   18 1
    19    9   22 1
    20   10   17 2
    21   10   27 1
    22   11   13 1
    23   11   19 1
    24   11   28 1
    25   11   29 1
    26   12   14 1
    27   12   19 1
    28   12   30 1
    29   12   31 1
    30   13   20 1
    31   13   32 1
    32   13   33 1
    33   14   20 1
    34   14   34 1
    35   14   35 1
    36   15   36 1
    37   15   37 1
    38   15   38 1
    39   16   18 1
    40   17   19 1
