@<TRIPOS>MOLECULE
*****
   35    38     0     0     0
SMALL
NO_CHARGES

@<TRIPOS>ATOM
      1 C1          7.5304   -1.9479    2.9988 C.ar      1 <0>         0.0000
      2 C2          6.1617   -1.6146    2.8290 C.ar      1 <0>         0.0000
      3 C3          7.0838    4.2941   -4.0144 C.ar      1 <0>         0.0000
      4 C4          6.0531    4.4003   -4.9730 C.ar      1 <0>         0.0000
      5 C5          8.0135   -2.4488   -1.8178 C.ar      1 <0>         0.0000
      6 C6          8.3159   -2.2383    1.9037 C.ar      1 <0>         0.0000
      7 C7          5.6063   -1.5707    1.5672 C.ar      1 <0>         0.0000
      8 C8          7.0675    3.2762   -3.0689 C.ar      1 <0>         0.0000
      9 C9          8.5669   -2.5015   -0.5552 C.ar      1 <0>         0.0000
     10 C10         6.6575   -2.0912   -1.9984 C.ar      1 <0>         0.0000
     11 C11         4.9971    3.4925   -4.9985 C.ar      1 <0>         0.0000
     12 C12         7.7752   -2.2058    0.5880 C.ar      1 <0>         0.0000
     13 C13         6.3940   -1.8621    0.4206 C.ar      1 <0>         0.0000
     14 C14         6.0068    2.3507   -3.0809 C.ar      1 <0>         0.0000
     15 C15         5.8482   -1.7949   -0.9068 C.ar      1 <0>         0.0000
     16 C16         5.8044    1.2278   -2.2008 C.2       1 <0>         0.0000
     17 C17         4.9771    2.4694   -4.0414 C.ar      1 <0>         0.0000
     18 C18         4.6597    0.5028   -2.4863 C.2       1 <0>         0.0000
     19 C19         4.0045   -0.6080   -1.8048 C.2       1 <0>         0.0000
     20 N1          4.4761   -1.5444   -1.0582 N.2       1 <0>         0.0000
     21 O1          6.6894    1.0479   -1.1952 O.3       1 <0>         0.0000
     22 S1          3.7747    1.2145   -3.8576 S.3       1 <0>         0.0000
     23 H1          7.9571   -1.9754    3.9981 H         1 <0>         0.0000
     24 H2          5.5497   -1.3963    3.7002 H         1 <0>         0.0000
     25 H3          7.8959    5.0158   -4.0201 H         1 <0>         0.0000
     26 H4          6.0817    5.2040   -5.7039 H         1 <0>         0.0000
     27 H5          8.6195   -2.6761   -2.6908 H         1 <0>         0.0000
     28 H6          9.3648   -2.4953    2.0315 H         1 <0>         0.0000
     29 H7          4.5588   -1.3234    1.4282 H         1 <0>         0.0000
     30 H8          7.8541    3.1783   -2.3269 H         1 <0>         0.0000
     31 H9          9.6124   -2.7667   -0.4204 H         1 <0>         0.0000
     32 H10         6.2328   -2.0539   -2.9971 H         1 <0>         0.0000
     33 H11         4.2070    3.5804   -5.7391 H         1 <0>         0.0000
     34 H12         2.9192   -0.6332   -1.9426 H         1 <0>         0.0000
     35 H13         6.6094    0.1482   -0.8229 H         1 <0>         0.0000
@<TRIPOS>BOND
     1    1    2 ar
     2    1    6 ar
     3    1   23 1
     4    2    7 ar
     5    2   24 1
     6    3    4 ar
     7    3    8 ar
     8    3   25 1
     9    4   11 ar
    10    4   26 1
    11    5    9 ar
    12    5   10 ar
    13    5   27 1
    14    6   12 ar
    15    6   28 1
    16    7   13 ar
    17    7   29 1
    18    8   14 ar
    19    8   30 1
    20    9   12 ar
    21    9   31 1
    22   10   15 ar
    23   10   32 1
    24   11   17 ar
    25   11   33 1
    26   12   13 ar
    27   13   15 ar
    28   14   16 1
    29   14   17 ar
    30   15   20 1
    31   16   18 2
    32   16   21 1
    33   17   22 1
    34   18   19 1
    35   18   22 1
    36   19   20 2
    37   19   34 1
    38   21   35 1
