@<TRIPOS>MOLECULE
*****
   39    42     0     0     0
SMALL
NO_CHARGES

@<TRIPOS>ATOM
      1 C1         -3.5663   -5.8833    4.6012 C.ar      1 <0>         0.0000
      2 C2          4.6237    0.8476   -0.4552 C.ar      1 <0>         0.0000
      3 C3         -2.6959   -4.8245    4.7644 C.ar      1 <0>         0.0000
      4 C4          3.5700    0.1969   -1.1021 C.ar      1 <0>         0.0000
      5 C5         -4.2116   -6.1013    3.3597 C.ar      1 <0>         0.0000
      6 C6         -1.3658   -2.0206    2.6749 C.ar      1 <0>         0.0000
      7 C7          4.4323    1.2856    0.8568 C.ar      1 <0>         0.0000
      8 C8          2.2838    0.4908    0.8921 C.ar      1 <0>         0.0000
      9 C9         -2.4457   -3.9446    3.6812 C.ar      1 <0>         0.0000
     10 C10         2.3610    0.0036   -0.4259 C.ar      1 <0>         0.0000
     11 C11        -3.0828   -4.1380    2.4158 C.ar      1 <0>         0.0000
     12 C12        -1.5574   -2.8316    3.7728 C.ar      1 <0>         0.0000
     13 C13        -3.9664   -5.2478    2.3101 C.ar      1 <0>         0.0000
     14 C14        -2.0591   -2.3148    1.4713 C.ar      1 <0>         0.0000
     15 C15        -0.1837    0.0063   -0.9413 C.3       1 <0>         0.0000
     16 C16         0.5512   -1.8396   -0.2313 C.3       1 <0>         0.0000
     17 C17         1.1995   -0.7005   -1.0744 C.3       1 <0>         0.0000
     18 C18        -1.8751   -1.4115    0.2675 C.3       1 <0>         0.0000
     19 N1          3.2828    1.1144    1.5285 N.ar      1 <0>         0.0000
     20 N2         -2.8842   -3.3366    1.3313 N.ar      1 <0>         0.0000
     21 N3         -0.5192   -0.9006    0.1779 N.3       1 <0>         0.0000
     22 O1         -0.9368   -2.6351    4.9711 O.3       1 <0>         0.0000
     23 F1         -4.5838   -5.4632    1.1294 F         1 <0>         0.0000
     24 H1         -3.7641   -6.5611    5.4266 H         1 <0>         0.0000
     25 H2          5.5744    1.0123   -0.9548 H         1 <0>         0.0000
     26 H3         -2.1973   -4.6514    5.7118 H         1 <0>         0.0000
     27 H4          3.6868   -0.1586   -2.1240 H         1 <0>         0.0000
     28 H5         -4.8978   -6.9309    3.2186 H         1 <0>         0.0000
     29 H6         -0.6917   -1.1682    2.6976 H         1 <0>         0.0000
     30 H7          5.2318    1.7948    1.3931 H         1 <0>         0.0000
     31 H8          1.3584    0.3648    1.4524 H         1 <0>         0.0000
     32 H9         -0.1821    1.0710   -0.6835 H         1 <0>         0.0000
     33 H10        -0.8090   -0.1541   -1.8337 H         1 <0>         0.0000
     34 H11         0.1827   -2.6643   -0.8611 H         1 <0>         0.0000
     35 H12         1.1413   -2.2507    0.5943 H         1 <0>         0.0000
     36 H13         1.4616   -0.9880   -2.0943 H         1 <0>         0.0000
     37 H14        -2.1834   -1.9744   -0.6290 H         1 <0>         0.0000
     38 H15        -2.5543   -0.5535    0.3628 H         1 <0>         0.0000
     39 H16        -0.3590   -1.8567    4.9056 H         1 <0>         0.0000
@<TRIPOS>BOND
     1    1    3 ar
     2    1    5 ar
     3    1   24 1
     4    2    4 ar
     5    2    7 ar
     6    2   25 1
     7    3    9 ar
     8    3   26 1
     9    4   10 ar
    10    4   27 1
    11    5   13 ar
    12    5   28 1
    13    6   12 ar
    14    6   14 ar
    15    6   29 1
    16    7   19 ar
    17    7   30 1
    18    8   10 ar
    19    8   19 ar
    20    8   31 1
    21    9   11 ar
    22    9   12 ar
    23   10   17 1
    24   11   13 ar
    25   11   20 ar
    26   12   22 1
    27   13   23 1
    28   14   18 1
    29   14   20 ar
    30   15   17 1
    31   15   21 1
    32   15   32 1
    33   15   33 1
    34   16   17 1
    35   16   21 1
    36   16   34 1
    37   16   35 1
    38   17   36 1
    39   18   21 1
    40   18   37 1
    41   18   38 1
    42   22   39 1
