@<TRIPOS>MOLECULE
*****
   43    45     0     0     0
SMALL
NO_CHARGES

@<TRIPOS>ATOM
      1 C1         -1.1944    0.8955    8.5022 C.ar      1 <0>         0.0000
      2 C2         -1.1435   -0.5105    8.3963 C.ar      1 <0>         0.0000
      3 C3         -1.2484    1.6886    7.3567 C.ar      1 <0>         0.0000
      4 C4         -1.1608   -1.1559    7.1586 C.ar      1 <0>         0.0000
      5 C5         -1.2508    1.0493    6.1135 C.ar      1 <0>         0.0000
      6 C6         -1.2260   -0.3492    6.0173 C.ar      1 <0>         0.0000
      7 C7         -1.2760    1.5905    4.7442 C.2       1 <0>         0.0000
      8 C8         -0.5199   -0.4210    1.7544 C.2       1 <0>         0.0000
      9 C9         -0.4573    1.5847   -1.0967 C.3       1 <0>         0.0000
     10 C10        -1.3747    0.5829   -0.3860 C.3       1 <0>         0.0000
     11 C11         0.3797   -1.1240   -0.4098 C.3       1 <0>         0.0000
     12 C12         1.3858   -0.1699   -1.0801 C.3       1 <0>         0.0000
     13 C13         0.6206    0.8785   -1.9343 C.3       1 <0>         0.0000
     14 C14         2.3423    0.4403   -0.0444 C.3       1 <0>         0.0000
     15 C15         1.5532    1.9011   -2.5889 C.3       1 <0>         0.0000
     16 C16        -1.5061    0.4627    2.5331 C.3       1 <0>         0.0000
     17 N1         -1.3095   -0.7470    4.6724 N.pl3     1 <0>         0.0000
     18 N2         -1.2042    0.4618    3.9365 N.am      1 <0>         0.0000
     19 N3         -0.5816   -0.3677    0.3975 N.am      1 <0>         0.0000
     20 O1         -1.3592    2.7486    4.3299 O.2       1 <0>         0.0000
     21 O2          0.2578   -1.1689    2.3625 O.2       1 <0>         0.0000
     22 O3         -0.1197    0.1857   -2.9681 O.3       1 <0>         0.0000
     23 H1         -1.1881    1.3573    9.4855 H         1 <0>         0.0000
     24 H2         -1.0966   -1.1088    9.3026 H         1 <0>         0.0000
     25 H3         -1.2799    2.7731    7.4115 H         1 <0>         0.0000
     26 H4         -1.1344   -2.2398    7.0876 H         1 <0>         0.0000
     27 H5         -1.0541    2.2191   -1.7601 H         1 <0>         0.0000
     28 H6          0.0214    2.2343   -0.3573 H         1 <0>         0.0000
     29 H7         -2.0916    1.1015    0.2482 H         1 <0>         0.0000
     30 H8         -1.9449    0.0179   -1.1305 H         1 <0>         0.0000
     31 H9         -0.1776   -1.6767   -1.1726 H         1 <0>         0.0000
     32 H10         0.8875   -1.8321    0.2437 H         1 <0>         0.0000
     33 H11         1.9856   -0.7737   -1.7773 H         1 <0>         0.0000
     34 H12         1.8175    1.0834    0.6680 H         1 <0>         0.0000
     35 H13         3.1277    1.0338   -0.5195 H         1 <0>         0.0000
     36 H14         2.8243   -0.3521    0.5352 H         1 <0>         0.0000
     37 H15         2.3501    1.3991   -3.1522 H         1 <0>         0.0000
     38 H16         2.0266    2.5558   -1.8528 H         1 <0>         0.0000
     39 H17         0.9812    2.5226   -3.2843 H         1 <0>         0.0000
     40 H18        -2.5319    0.1115    2.3516 H         1 <0>         0.0000
     41 H19        -1.4467    1.5102    2.2288 H         1 <0>         0.0000
     42 H20        -0.5765   -1.3808    4.3441 H         1 <0>         0.0000
     43 H21         0.5225   -0.2409   -3.5581 H         1 <0>         0.0000
@<TRIPOS>BOND
     1    1    2 ar
     2    1    3 ar
     3    1   23 1
     4    2    4 ar
     5    2   24 1
     6    3    5 ar
     7    3   25 1
     8    4    6 ar
     9    4   26 1
    10    5    6 ar
    11    5    7 1
    12    6   17 1
    13    7   18 am
    14    7   20 2
    15    8   16 1
    16    8   19 am
    17    8   21 2
    18    9   10 1
    19    9   13 1
    20    9   27 1
    21    9   28 1
    22   10   19 1
    23   10   29 1
    24   10   30 1
    25   11   12 1
    26   11   19 1
    27   11   31 1
    28   11   32 1
    29   12   13 1
    30   12   14 1
    31   12   33 1
    32   13   15 1
    33   13   22 1
    34   14   34 1
    35   14   35 1
    36   14   36 1
    37   15   37 1
    38   15   38 1
    39   15   39 1
    40   16   18 1
    41   16   40 1
    42   16   41 1
    43   17   18 1
    44   17   42 1
    45   22   43 1
