@<TRIPOS>MOLECULE
*****
   21    21     0     0     0
SMALL
NO_CHARGES

@<TRIPOS>ATOM
      1 C1          2.2010   -1.3766   -0.0488 C.ar      1 <0>         0.0000
      2 C2          1.0559   -0.6774    0.3516 C.ar      1 <0>         0.0000
      3 C3          3.0265   -1.9868    0.8978 C.ar      1 <0>         0.0000
      4 C4          1.5439   -1.1888    2.6670 C.ar      1 <0>         0.0000
      5 C5          0.7184   -0.5804    1.7080 C.ar      1 <0>         0.0000
      6 C6          2.6726   -1.8757    2.2409 C.ar      1 <0>         0.0000
      7 C7         -0.1055    1.4196    2.9544 C.2       1 <0>         0.0000
      8 C8         -0.5052    0.1938    2.1618 C.3       1 <0>         0.0000
      9 N1         -0.1422    1.5416    4.2359 N.2       1 <0>         0.0000
     10 N2          0.3117    2.5204    2.2014 N.pl3     1 <0>         0.0000
     11 O1         -0.6659    0.3665    4.8589 O.3       1 <0>         0.0000
     12 F1          3.4672   -2.4660    3.1721 F         1 <0>         0.0000
     13 H1          2.4509   -1.4486   -1.1038 H         1 <0>         0.0000
     14 H2          0.4167   -0.2142   -0.3964 H         1 <0>         0.0000
     15 H3          3.9195   -2.5361    0.6162 H         1 <0>         0.0000
     16 H4          1.3099   -1.1233    3.7258 H         1 <0>         0.0000
     17 H5         -1.0875    0.5192    1.2953 H         1 <0>         0.0000
     18 H6         -1.1415   -0.4335    2.7874 H         1 <0>         0.0000
     19 H7          0.9040    2.2591    1.4179 H         1 <0>         0.0000
     20 H8          0.7522    3.2346    2.7750 H         1 <0>         0.0000
     21 H9         -0.6952    0.6361    5.7902 H         1 <0>         0.0000
@<TRIPOS>BOND
     1    1    2 ar
     2    1    3 ar
     3    1   13 1
     4    2    5 ar
     5    2   14 1
     6    3    6 ar
     7    3   15 1
     8    4    5 ar
     9    4    6 ar
    10    4   16 1
    11    5    8 1
    12    6   12 1
    13    7    8 1
    14    7    9 2
    15    7   10 1
    16    8   17 1
    17    8   18 1
    18    9   11 1
    19   10   19 1
    20   10   20 1
    21   11   21 1
