@<TRIPOS>MOLECULE
*****
   34    36     0     0     0
SMALL
NO_CHARGES

@<TRIPOS>ATOM
      1 C1         -0.2258   -2.1123    1.1963 C.ar      1 <0>         0.0000
      2 C2          0.8851   -1.2348    1.2699 C.ar      1 <0>         0.0000
      3 C3          2.3776   -5.2018   -1.5218 C.ar      1 <0>         0.0000
      4 C4         -0.1176   -3.2913    0.4931 C.ar      1 <0>         0.0000
      5 C5          2.0738   -1.5489    0.6443 C.ar      1 <0>         0.0000
      6 C6          1.1998   -4.8625   -0.8865 C.ar      1 <0>         0.0000
      7 C7          3.4908   -4.3406   -1.4595 C.ar      1 <0>         0.0000
      8 C8          1.0944   -3.6454   -0.1637 C.ar      1 <0>         0.0000
      9 C9          2.2238   -2.7599   -0.0933 C.ar      1 <0>         0.0000
     10 C10         3.4398   -3.1370   -0.7647 C.ar      1 <0>         0.0000
     11 C11         7.7261    1.7430    0.3259 C.ar      1 <0>         0.0000
     12 C12         8.6711    0.9884   -0.4363 C.ar      1 <0>         0.0000
     13 C13         7.0946   -0.5932   -0.7203 C.ar      1 <0>         0.0000
     14 C14         4.6131   -2.2542   -0.7145 C.2       1 <0>         0.0000
     15 C15         8.0559    3.0790    0.9356 C.3       1 <0>         0.0000
     16 N1          6.5097    1.2518    0.5059 N.ar      1 <0>         0.0000
     17 N2          8.3627   -0.1713   -0.9573 N.ar      1 <0>         0.0000
     18 N3          6.1614    0.0681   -0.0139 N.ar      1 <0>         0.0000
     19 N4          5.7062   -2.6083   -1.3095 N.2       1 <0>         0.0000
     20 N5          6.8168   -1.8148   -1.2866 N.pl3     1 <0>         0.0000
     21 O1          9.9310    1.4302   -0.6597 O.3       1 <0>         0.0000
     22 H1         -1.1562   -1.8519    1.6941 H         1 <0>         0.0000
     23 H2          0.7998   -0.3044    1.8254 H         1 <0>         0.0000
     24 H3          2.4520   -6.1351   -2.0740 H         1 <0>         0.0000
     25 H4         -0.9621   -3.9738    0.4288 H         1 <0>         0.0000
     26 H5          2.8990   -0.8507    0.7259 H         1 <0>         0.0000
     27 H6          0.3371   -5.5233   -0.9317 H         1 <0>         0.0000
     28 H7          4.4153   -4.6091   -1.9603 H         1 <0>         0.0000
     29 H8          4.5499   -1.3153   -0.1800 H         1 <0>         0.0000
     30 H9          8.3294    3.8210    0.1741 H         1 <0>         0.0000
     31 H10         7.1784    3.4510    1.4671 H         1 <0>         0.0000
     32 H11         8.8820    3.0087    1.6553 H         1 <0>         0.0000
     33 H12         7.5966   -2.2159   -1.7921 H         1 <0>         0.0000
     34 H13        10.0538    2.2938   -0.2324 H         1 <0>         0.0000
@<TRIPOS>BOND
     1    1    2 ar
     2    1    4 ar
     3    1   22 1
     4    2    5 ar
     5    2   23 1
     6    3    6 ar
     7    3    7 ar
     8    3   24 1
     9    4    8 ar
    10    4   25 1
    11    5    9 ar
    12    5   26 1
    13    6    8 ar
    14    6   27 1
    15    7   10 ar
    16    7   28 1
    17    8    9 ar
    18    9   10 ar
    19   10   14 1
    20   11   12 ar
    21   11   15 1
    22   11   16 ar
    23   12   17 ar
    24   12   21 1
    25   13   17 ar
    26   13   18 ar
    27   13   20 1
    28   14   19 2
    29   14   29 1
    30   15   30 1
    31   15   31 1
    32   15   32 1
    33   16   18 ar
    34   19   20 1
    35   20   33 1
    36   21   34 1
