@<TRIPOS>MOLECULE
*****
   43    45     0     0     0
SMALL
NO_CHARGES

@<TRIPOS>ATOM
      1 C1         -2.2565   -2.1581    7.5332 C.ar      1 <0>         0.0000
      2 C2         -1.5156   -0.9950    7.8267 C.ar      1 <0>         0.0000
      3 C3         -2.8450   -2.3224    6.2794 C.ar      1 <0>         0.0000
      4 C4         -1.3321    0.0171    6.8816 C.ar      1 <0>         0.0000
      5 C5         -2.6769   -1.3054    5.3368 C.ar      1 <0>         0.0000
      6 C6         -1.9159   -0.1691    5.6254 C.ar      1 <0>         0.0000
      7 C7         -3.1657   -1.1745    3.9565 C.2       1 <0>         0.0000
      8 C8         -1.1280   -0.4835    1.7632 C.2       1 <0>         0.0000
      9 C9         -0.1381    1.7750   -0.7053 C.3       1 <0>         0.0000
     10 C10        -1.1667    0.6591   -0.4829 C.3       1 <0>         0.0000
     11 C11         0.5958   -0.9353    0.0845 C.3       1 <0>         0.0000
     12 C12         1.6984    0.1293   -0.0687 C.3       1 <0>         0.0000
     13 C13         1.2419    1.2130   -1.0845 C.3       1 <0>         0.0000
     14 C14         2.1166    0.6868    1.3006 C.3       1 <0>         0.0000
     15 C15         2.2619    2.3446   -1.2401 C.3       1 <0>         0.0000
     16 C16        -2.4008    0.3038    2.1525 C.3       1 <0>         0.0000
     17 N1         -1.8395    0.6749    4.4970 N.pl3     1 <0>         0.0000
     18 N2         -2.7449    0.1074    3.5427 N.am      1 <0>         0.0000
     19 N3         -0.6640   -0.3098    0.4899 N.am      1 <0>         0.0000
     20 O1         -3.8026   -1.9471    3.2503 O.2       1 <0>         0.0000
     21 O2         -0.5962   -1.2371    2.5754 O.2       1 <0>         0.0000
     22 O3          1.0345    0.5882   -2.3738 O.3       1 <0>         0.0000
     23 H1         -2.3663   -2.9270    8.2927 H         1 <0>         0.0000
     24 H2         -1.0660   -0.8865    8.8104 H         1 <0>         0.0000
     25 H3         -3.4244   -3.2066    6.0294 H         1 <0>         0.0000
     26 H4         -0.7432    0.9010    7.1116 H         1 <0>         0.0000
     27 H5         -0.4777    2.4357   -1.5101 H         1 <0>         0.0000
     28 H6         -0.0455    2.3775    0.2043 H         1 <0>         0.0000
     29 H7         -2.1206    1.0726   -0.1587 H         1 <0>         0.0000
     30 H8         -1.3452    0.1361   -1.4285 H         1 <0>         0.0000
     31 H9          0.4328   -1.4475   -0.8692 H         1 <0>         0.0000
     32 H10         0.8649   -1.6718    0.8406 H         1 <0>         0.0000
     33 H11         2.5742   -0.3711   -0.5087 H         1 <0>         0.0000
     34 H12         1.2989    1.2261    1.7878 H         1 <0>         0.0000
     35 H13         2.9702    1.3650    1.2191 H         1 <0>         0.0000
     36 H14         2.3987   -0.1317    1.9687 H         1 <0>         0.0000
     37 H15         3.2567    1.9446   -1.4736 H         1 <0>         0.0000
     38 H16         2.3495    2.9470   -0.3320 H         1 <0>         0.0000
     39 H17         1.9556    3.0003   -2.0607 H         1 <0>         0.0000
     40 H18        -3.2506   -0.0497    1.5632 H         1 <0>         0.0000
     41 H19        -2.2800    1.3742    1.9657 H         1 <0>         0.0000
     42 H20        -2.1383    1.6277    4.7084 H         1 <0>         0.0000
     43 H21         1.8832    0.2165   -2.6639 H         1 <0>         0.0000
@<TRIPOS>BOND
     1    1    2 ar
     2    1    3 ar
     3    1   23 1
     4    2    4 ar
     5    2   24 1
     6    3    5 ar
     7    3   25 1
     8    4    6 ar
     9    4   26 1
    10    5    6 ar
    11    5    7 1
    12    6   17 1
    13    7   18 am
    14    7   20 2
    15    8   16 1
    16    8   19 am
    17    8   21 2
    18    9   10 1
    19    9   13 1
    20    9   27 1
    21    9   28 1
    22   10   19 1
    23   10   29 1
    24   10   30 1
    25   11   12 1
    26   11   19 1
    27   11   31 1
    28   11   32 1
    29   12   13 1
    30   12   14 1
    31   12   33 1
    32   13   15 1
    33   13   22 1
    34   14   34 1
    35   14   35 1
    36   14   36 1
    37   15   37 1
    38   15   38 1
    39   15   39 1
    40   16   18 1
    41   16   40 1
    42   16   41 1
    43   17   18 1
    44   17   42 1
    45   22   43 1
