@<TRIPOS>MOLECULE
*****
   43    45     0     0     0
SMALL
NO_CHARGES

@<TRIPOS>ATOM
      1 C1          4.4441   -2.3598   -5.3755 C.ar      1 <0>         0.0000
      2 C2          5.1690   -3.2090   -4.5122 C.ar      1 <0>         0.0000
      3 C3          3.7833   -1.2396   -4.8747 C.ar      1 <0>         0.0000
      4 C4          5.2651   -2.9570   -3.1430 C.ar      1 <0>         0.0000
      5 C5          3.8655   -0.9865   -3.5016 C.ar      1 <0>         0.0000
      6 C6          4.6002   -1.8283   -2.6523 C.ar      1 <0>         0.0000
      7 C7          3.2361    0.0488   -2.6676 C.2       1 <0>         0.0000
      8 C8          2.1644   -0.5804    0.3965 C.2       1 <0>         0.0000
      9 C9         -1.4399   -0.4944    1.1760 C.3       1 <0>         0.0000
     10 C10        -0.1156   -1.1976    0.9002 C.3       1 <0>         0.0000
     11 C11         0.3087    0.9220   -0.3801 C.3       1 <0>         0.0000
     12 C12        -0.9797    0.5093   -1.1021 C.3       1 <0>         0.0000
     13 C13        -2.0914    0.1246   -0.0866 C.3       1 <0>         0.0000
     14 C14        -1.3870    1.5597   -2.1380 C.3       1 <0>         0.0000
     15 C15        -2.9766    1.2992    0.3272 C.3       1 <0>         0.0000
     16 C16         3.2254    0.3708   -0.1718 C.3       1 <0>         0.0000
     17 N1          4.5782   -1.3348   -1.3363 N.pl3     1 <0>         0.0000
     18 N2          3.7323   -0.1977   -1.3988 N.am      1 <0>         0.0000
     19 N3          0.8577   -0.2296    0.3630 N.am      1 <0>         0.0000
     20 O1          2.4462    0.9580   -2.9502 O.2       1 <0>         0.0000
     21 O2          2.5560   -1.6762    0.8345 O.2       1 <0>         0.0000
     22 O3         -2.9964   -0.8156   -0.7023 O.3       1 <0>         0.0000
     23 H1          4.4037   -2.5871   -6.4369 H         1 <0>         0.0000
     24 H2          5.6717   -4.0798   -4.9249 H         1 <0>         0.0000
     25 H3          3.2123   -0.5764   -5.5182 H         1 <0>         0.0000
     26 H4          5.8356   -3.6092   -2.4876 H         1 <0>         0.0000
     27 H5         -2.1504   -1.1984    1.6190 H         1 <0>         0.0000
     28 H6         -1.2628    0.2895    1.9208 H         1 <0>         0.0000
     29 H7          0.3018   -1.6301    1.8109 H         1 <0>         0.0000
     30 H8         -0.2365   -2.0301    0.1930 H         1 <0>         0.0000
     31 H9          1.0254    1.2480   -1.1317 H         1 <0>         0.0000
     32 H10         0.1143    1.7601    0.3031 H         1 <0>         0.0000
     33 H11        -0.7303   -0.4074   -1.6548 H         1 <0>         0.0000
     34 H12        -1.5273    2.5457   -1.6826 H         1 <0>         0.0000
     35 H13        -2.3225    1.2759   -2.6285 H         1 <0>         0.0000
     36 H14        -0.6097    1.6512   -2.9026 H         1 <0>         0.0000
     37 H15        -3.5698    1.6567   -0.5166 H         1 <0>         0.0000
     38 H16        -2.3744    2.1283    0.7113 H         1 <0>         0.0000
     39 H17        -3.6646    0.9802    1.1162 H         1 <0>         0.0000
     40 H18         4.0387    0.4263    0.5564 H         1 <0>         0.0000
     41 H19         2.8796    1.3782   -0.3955 H         1 <0>         0.0000
     42 H20         4.2268   -1.9803   -0.6213 H         1 <0>         0.0000
     43 H21        -2.4792   -1.5777   -1.0096 H         1 <0>         0.0000
@<TRIPOS>BOND
     1    1    2 ar
     2    1    3 ar
     3    1   23 1
     4    2    4 ar
     5    2   24 1
     6    3    5 ar
     7    3   25 1
     8    4    6 ar
     9    4   26 1
    10    5    6 ar
    11    5    7 1
    12    6   17 1
    13    7   18 am
    14    7   20 2
    15    8   16 1
    16    8   19 am
    17    8   21 2
    18    9   10 1
    19    9   13 1
    20    9   27 1
    21    9   28 1
    22   10   19 1
    23   10   29 1
    24   10   30 1
    25   11   12 1
    26   11   19 1
    27   11   31 1
    28   11   32 1
    29   12   13 1
    30   12   14 1
    31   12   33 1
    32   13   15 1
    33   13   22 1
    34   14   34 1
    35   14   35 1
    36   14   36 1
    37   15   37 1
    38   15   38 1
    39   15   39 1
    40   16   18 1
    41   16   40 1
    42   16   41 1
    43   17   18 1
    44   17   42 1
    45   22   43 1
