@<TRIPOS>MOLECULE
*****
   43    45     0     0     0
SMALL
NO_CHARGES

@<TRIPOS>ATOM
      1 C1         -1.7630   -3.5651    4.8226 C.ar      1 <0>         0.0000
      2 C2         -1.5851   -4.4573    3.7435 C.ar      1 <0>         0.0000
      3 C3         -2.2416   -2.2748    4.6010 C.ar      1 <0>         0.0000
      4 C4         -1.8914   -4.0940    2.4312 C.ar      1 <0>         0.0000
      5 C5         -2.5398   -1.9016    3.2869 C.ar      1 <0>         0.0000
      6 C6         -2.3850   -2.8019    2.2237 C.ar      1 <0>         0.0000
      7 C7         -2.9992   -0.6234    2.7215 C.2       1 <0>         0.0000
      8 C8         -2.8109    0.2746   -0.8436 C.2       1 <0>         0.0000
      9 C9          0.7684    0.2744   -1.3282 C.3       1 <0>         0.0000
     10 C10        -0.6221    0.7685   -1.7770 C.3       1 <0>         0.0000
     11 C11        -0.9337    1.0640    0.6384 C.3       1 <0>         0.0000
     12 C12         0.0690   -0.0321    1.0761 C.3       1 <0>         0.0000
     13 C13         0.6797   -0.7313   -0.1689 C.3       1 <0>         0.0000
     14 C14         1.0930    0.5914    2.0313 C.3       1 <0>         0.0000
     15 C15         2.0324   -1.3889    0.1066 C.3       1 <0>         0.0000
     16 C16        -3.6887    0.0099    0.3887 C.3       1 <0>         0.0000
     17 N1         -2.7896   -2.2116    1.0136 N.pl3     1 <0>         0.0000
     18 N2         -3.0698   -0.8624    1.3581 N.am      1 <0>         0.0000
     19 N3         -1.5558    0.7741   -0.6480 N.am      1 <0>         0.0000
     20 O1         -3.2575    0.4577    3.2585 O.2       1 <0>         0.0000
     21 O2         -3.2555    0.0183   -1.9656 O.2       1 <0>         0.0000
     22 O3         -0.2680   -1.7865   -0.5137 O.3       1 <0>         0.0000
     23 H1         -1.5211   -3.8914    5.8301 H         1 <0>         0.0000
     24 H2         -1.2051   -5.4567    3.9397 H         1 <0>         0.0000
     25 H3         -2.3769   -1.5663    5.4132 H         1 <0>         0.0000
     26 H4         -1.7601   -4.7895    1.6071 H         1 <0>         0.0000
     27 H5          1.2843   -0.1746   -2.1855 H         1 <0>         0.0000
     28 H6          1.3950    1.1124   -1.0025 H         1 <0>         0.0000
     29 H7         -0.5460    1.7738   -2.2109 H         1 <0>         0.0000
     30 H8         -1.0486    0.1196   -2.5414 H         1 <0>         0.0000
     31 H9         -1.6827    1.2326    1.4104 H         1 <0>         0.0000
     32 H10        -0.3937    2.0138    0.5253 H         1 <0>         0.0000
     33 H11        -0.4669   -0.8094    1.6251 H         1 <0>         0.0000
     34 H12         1.7356    1.3190    1.5213 H         1 <0>         0.0000
     35 H13         1.7323   -0.1609    2.4993 H         1 <0>         0.0000
     36 H14         0.5685    1.1211    2.8333 H         1 <0>         0.0000
     37 H15         1.9556   -2.0845    0.9472 H         1 <0>         0.0000
     38 H16         2.8075   -0.6513    0.3310 H         1 <0>         0.0000
     39 H17         2.3592   -1.9550   -0.7737 H         1 <0>         0.0000
     40 H18        -4.6145   -0.4306    0.0107 H         1 <0>         0.0000
     41 H19        -3.9247    0.9342    0.9237 H         1 <0>         0.0000
     42 H20        -2.0519   -2.2316    0.2988 H         1 <0>         0.0000
     43 H21         0.0129   -2.1850   -1.3538 H         1 <0>         0.0000
@<TRIPOS>BOND
     1    1    2 ar
     2    1    3 ar
     3    1   23 1
     4    2    4 ar
     5    2   24 1
     6    3    5 ar
     7    3   25 1
     8    4    6 ar
     9    4   26 1
    10    5    6 ar
    11    5    7 1
    12    6   17 1
    13    7   18 am
    14    7   20 2
    15    8   16 1
    16    8   19 am
    17    8   21 2
    18    9   10 1
    19    9   13 1
    20    9   27 1
    21    9   28 1
    22   10   19 1
    23   10   29 1
    24   10   30 1
    25   11   12 1
    26   11   19 1
    27   11   31 1
    28   11   32 1
    29   12   13 1
    30   12   14 1
    31   12   33 1
    32   13   15 1
    33   13   22 1
    34   14   34 1
    35   14   35 1
    36   14   36 1
    37   15   37 1
    38   15   38 1
    39   15   39 1
    40   16   18 1
    41   16   40 1
    42   16   41 1
    43   17   18 1
    44   17   42 1
    45   22   43 1
