@<TRIPOS>MOLECULE
*****
   42    45     0     0     0
SMALL
NO_CHARGES

@<TRIPOS>ATOM
      1 C1          0.8362   -4.1011    1.9972 C.ar      1 <0>         0.0000
      2 C2         -0.2740   -4.1153    1.1462 C.ar      1 <0>         0.0000
      3 C3          0.8029   -4.8163    3.2039 C.ar      1 <0>         0.0000
      4 C4         -1.4323   -4.8386    1.4644 C.ar      1 <0>         0.0000
      5 C5         -5.7924   -5.5079    4.5534 C.ar      1 <0>         0.0000
      6 C6         -5.3183   -7.4590    5.8855 C.ar      1 <0>         0.0000
      7 C7         -0.3384   -5.5380    3.5323 C.ar      1 <0>         0.0000
      8 C8         -5.2636   -6.7984    4.6543 C.ar      1 <0>         0.0000
      9 C9         -1.4428   -5.5527    2.6663 C.ar      1 <0>         0.0000
     10 C10        -6.3609   -4.8733    5.6585 C.ar      1 <0>         0.0000
     11 C11        -6.3848   -5.5168    6.9185 C.ar      1 <0>         0.0000
     12 C12        -5.8675   -6.8183    6.9964 C.ar      1 <0>         0.0000
     13 C13        -3.7156   -6.5493    2.6745 C.2       1 <0>         0.0000
     14 C14        -0.6512   -6.3343    4.7788 C.3       1 <0>         0.0000
     15 C15        -7.7211   -2.6961    7.5637 C.3       1 <0>         0.0000
     16 C16        -1.9499   -7.0821    4.4050 C.3       1 <0>         0.0000
     17 C17        -8.0484   -3.2544    6.1792 C.3       1 <0>         0.0000
     18 C18        -6.6467   -3.5468    8.2408 C.3       1 <0>         0.0000
     19 C19        -4.6596   -7.4775    3.4372 C.3       1 <0>         0.0000
     20 N1         -2.4666   -6.3686    3.2117 N.am      1 <0>         0.0000
     21 O1         -4.0932   -5.9728    1.6527 O.2       1 <0>         0.0000
     22 O2         -6.8522   -3.6043    5.4561 O.3       1 <0>         0.0000
     23 O3         -6.9005   -4.9538    8.0563 O.3       1 <0>         0.0000
     24 Cl1        -5.8865   -7.6491    8.5391 Cl        1 <0>         0.0000
     25 H1          1.7230   -3.5350    1.7254 H         1 <0>         0.0000
     26 H2         -0.2438   -3.5564    0.2144 H         1 <0>         0.0000
     27 H3          1.6583   -4.8042    3.8756 H         1 <0>         0.0000
     28 H4         -2.2931   -4.8496    0.8104 H         1 <0>         0.0000
     29 H5         -5.7847   -4.9749    3.6071 H         1 <0>         0.0000
     30 H6         -4.9284   -8.4666    5.9946 H         1 <0>         0.0000
     31 H7          0.1471   -7.0267    5.0588 H         1 <0>         0.0000
     32 H8         -0.8190   -5.6630    5.6290 H         1 <0>         0.0000
     33 H9         -7.3572   -1.6652    7.4894 H         1 <0>         0.0000
     34 H10        -8.6390   -2.6825    8.1621 H         1 <0>         0.0000
     35 H11        -1.7396   -8.1258    4.1424 H         1 <0>         0.0000
     36 H12        -2.6840   -7.0655    5.2100 H         1 <0>         0.0000
     37 H13        -8.6936   -4.1351    6.2563 H         1 <0>         0.0000
     38 H14        -8.5556   -2.5102    5.5609 H         1 <0>         0.0000
     39 H15        -5.6533   -3.3066    7.8495 H         1 <0>         0.0000
     40 H16        -6.6377   -3.3929    9.3222 H         1 <0>         0.0000
     41 H17        -4.1567   -8.4010    3.7383 H         1 <0>         0.0000
     42 H18        -5.4446   -7.7435    2.7247 H         1 <0>         0.0000
@<TRIPOS>BOND
     1    1    2 ar
     2    1    3 ar
     3    1   25 1
     4    2    4 ar
     5    2   26 1
     6    3    7 ar
     7    3   27 1
     8    4    9 ar
     9    4   28 1
    10    5    8 ar
    11    5   10 ar
    12    5   29 1
    13    6    8 ar
    14    6   12 ar
    15    6   30 1
    16    7    9 ar
    17    7   14 1
    18    8   19 1
    19    9   20 1
    20   10   11 ar
    21   10   22 1
    22   11   12 ar
    23   11   23 1
    24   12   24 1
    25   13   19 1
    26   13   20 am
    27   13   21 2
    28   14   16 1
    29   14   31 1
    30   14   32 1
    31   15   17 1
    32   15   18 1
    33   15   33 1
    34   15   34 1
    35   16   20 1
    36   16   35 1
    37   16   36 1
    38   17   22 1
    39   17   37 1
    40   17   38 1
    41   18   23 1
    42   18   39 1
    43   18   40 1
    44   19   41 1
    45   19   42 1
