@<TRIPOS>MOLECULE
*****
   42    45     0     0     0
SMALL
NO_CHARGES

@<TRIPOS>ATOM
      1 C1          0.2043    1.5387    1.4166 C.ar      1 <0>         0.0000
      2 C2          1.4715    1.0101    1.1500 C.ar      1 <0>         0.0000
      3 C3         -0.9478    0.8842    0.9513 C.ar      1 <0>         0.0000
      4 C4          1.6147   -0.1912    0.4430 C.ar      1 <0>         0.0000
      5 C5          1.4334   -2.0038    3.0557 C.ar      1 <0>         0.0000
      6 C6         -0.3788   -3.3634    2.2492 C.ar      1 <0>         0.0000
      7 C7         -0.8121   -0.3053    0.2453 C.ar      1 <0>         0.0000
      8 C8          0.9475   -2.9289    2.1333 C.ar      1 <0>         0.0000
      9 C9          0.4611   -0.8568    0.0362 C.ar      1 <0>         0.0000
     10 C10         0.6173   -1.4770    4.0573 C.ar      1 <0>         0.0000
     11 C11        -0.7219   -1.9059    4.1822 C.ar      1 <0>         0.0000
     12 C12        -1.1910   -2.8527    3.2570 C.ar      1 <0>         0.0000
     13 C13         0.9258   -3.2946   -0.3374 C.2       1 <0>         0.0000
     14 C14        -1.8506   -1.2067   -0.3882 C.3       1 <0>         0.0000
     15 C15        -0.4876    0.2832    6.4805 C.3       1 <0>         0.0000
     16 C16        -0.9897   -2.0877   -1.3252 C.3       1 <0>         0.0000
     17 C17         0.3389    0.5840    5.2296 C.3       1 <0>         0.0000
     18 C18        -1.0523   -1.1357    6.4193 C.3       1 <0>         0.0000
     19 C19         1.7773   -3.3548    0.9349 C.3       1 <0>         0.0000
     20 N1          0.3476   -2.0816   -0.6784 N.am      1 <0>         0.0000
     21 O1          0.6704   -4.3154   -0.9718 O.2       1 <0>         0.0000
     22 O2          1.1849   -0.5290    4.8810 O.3       1 <0>         0.0000
     23 O3         -1.5995   -1.4266    5.1188 O.3       1 <0>         0.0000
     24 Cl1        -2.8593   -3.3822    3.3590 Cl        1 <0>         0.0000
     25 H1          0.1128    2.4746    1.9615 H         1 <0>         0.0000
     26 H2          2.3591    1.5373    1.4892 H         1 <0>         0.0000
     27 H3         -1.9325    1.3072    1.1356 H         1 <0>         0.0000
     28 H4          2.6012   -0.5860    0.2225 H         1 <0>         0.0000
     29 H5          2.4407   -1.6084    2.9747 H         1 <0>         0.0000
     30 H6         -0.7923   -4.0774    1.5436 H         1 <0>         0.0000
     31 H7         -2.3461   -1.8153    0.3784 H         1 <0>         0.0000
     32 H8         -2.6214   -0.6563   -0.9338 H         1 <0>         0.0000
     33 H9          0.1272    0.3753    7.3831 H         1 <0>         0.0000
     34 H10        -1.2970    1.0185    6.5534 H         1 <0>         0.0000
     35 H11        -1.3334   -3.1157   -1.4281 H         1 <0>         0.0000
     36 H12        -0.9119   -1.6405   -2.3218 H         1 <0>         0.0000
     37 H13        -0.3054    0.8218    4.3777 H         1 <0>         0.0000
     38 H14         1.0147    1.4269    5.3937 H         1 <0>         0.0000
     39 H15        -0.2811   -1.8742    6.6588 H         1 <0>         0.0000
     40 H16        -1.8817   -1.2646    7.1183 H         1 <0>         0.0000
     41 H17         2.6730   -2.7349    0.8580 H         1 <0>         0.0000
     42 H18         2.1031   -4.3945    1.0156 H         1 <0>         0.0000
@<TRIPOS>BOND
     1    1    2 ar
     2    1    3 ar
     3    1   25 1
     4    2    4 ar
     5    2   26 1
     6    3    7 ar
     7    3   27 1
     8    4    9 ar
     9    4   28 1
    10    5    8 ar
    11    5   10 ar
    12    5   29 1
    13    6    8 ar
    14    6   12 ar
    15    6   30 1
    16    7    9 ar
    17    7   14 1
    18    8   19 1
    19    9   20 1
    20   10   11 ar
    21   10   22 1
    22   11   12 ar
    23   11   23 1
    24   12   24 1
    25   13   19 1
    26   13   20 am
    27   13   21 2
    28   14   16 1
    29   14   31 1
    30   14   32 1
    31   15   17 1
    32   15   18 1
    33   15   33 1
    34   15   34 1
    35   16   20 1
    36   16   35 1
    37   16   36 1
    38   17   22 1
    39   17   37 1
    40   17   38 1
    41   18   23 1
    42   18   39 1
    43   18   40 1
    44   19   41 1
    45   19   42 1
