@<TRIPOS>MOLECULE
*****
   28    29     0     0     0
SMALL
NO_CHARGES

@<TRIPOS>ATOM
      1 C1         -3.8720    1.5295    3.1751 C.ar      1 <0>         0.0000
      2 C2         -4.1131    2.2254    4.3628 C.ar      1 <0>         0.0000
      3 C3         -2.5675    1.1631    2.8268 C.ar      1 <0>         0.0000
      4 C4         -3.0454    2.5538    5.2048 C.ar      1 <0>         0.0000
      5 C5         -1.4787    1.4833    3.6479 C.ar      1 <0>         0.0000
      6 C6         -1.7639    2.1764    4.8261 C.ar      1 <0>         0.0000
      7 C7         -0.4381   -1.2004    2.5906 C.2       1 <0>         0.0000
      8 C8         -1.2060   -3.2591    2.4718 C.3       1 <0>         0.0000
      9 C9         -1.0732   -2.8548    3.9611 C.3       1 <0>         0.0000
     10 C10         0.7215    2.3490    2.7638 C.3       1 <0>         0.0000
     11 C11        -0.0363    1.1280    3.3009 C.3       1 <0>         0.0000
     12 N1         -0.9127   -2.0239    1.7288 N.2       1 <0>         0.0000
     13 N2          0.0816    0.0417    2.3247 N.pl3     1 <0>         0.0000
     14 O1         -0.3892   -1.5725    3.9080 O.3       1 <0>         0.0000
     15 F1         -0.7260    2.5016    5.6517 F         1 <0>         0.0000
     16 H1         -4.6979    1.2654    2.5205 H         1 <0>         0.0000
     17 H2         -5.1246    2.5100    4.6392 H         1 <0>         0.0000
     18 H3         -2.3990    0.6021    1.9125 H         1 <0>         0.0000
     19 H4         -3.1921    3.0896    6.1379 H         1 <0>         0.0000
     20 H5         -0.4928   -4.0460    2.1947 H         1 <0>         0.0000
     21 H6         -2.2101   -3.6235    2.2336 H         1 <0>         0.0000
     22 H7         -2.0400   -2.6955    4.4488 H         1 <0>         0.0000
     23 H8         -0.4656   -3.5326    4.5636 H         1 <0>         0.0000
     24 H9          0.2632    2.7119    1.8364 H         1 <0>         0.0000
     25 H10         0.6951    3.1620    3.4924 H         1 <0>         0.0000
     26 H11         1.7647    2.0877    2.5630 H         1 <0>         0.0000
     27 H12         0.4563    0.7915    4.2154 H         1 <0>         0.0000
     28 H13        -0.0594    0.3024    1.3551 H         1 <0>         0.0000
@<TRIPOS>BOND
     1    1    2 ar
     2    1    3 ar
     3    1   16 1
     4    2    4 ar
     5    2   17 1
     6    3    5 ar
     7    3   18 1
     8    4    6 ar
     9    4   19 1
    10    5    6 ar
    11    5   11 1
    12    6   15 1
    13    7   12 2
    14    7   13 1
    15    7   14 1
    16    8    9 1
    17    8   12 1
    18    8   20 1
    19    8   21 1
    20    9   14 1
    21    9   22 1
    22    9   23 1
    23   10   11 1
    24   10   24 1
    25   10   25 1
    26   10   26 1
    27   11   13 1
    28   11   27 1
    29   13   28 1
