@<TRIPOS>MOLECULE
*****
   28    29     0     0     0
SMALL
NO_CHARGES

@<TRIPOS>ATOM
      1 C1         -3.8854    1.9430    3.7030 C.ar      1 <0>         0.0000
      2 C2         -4.1072    2.5000    4.9656 C.ar      1 <0>         0.0000
      3 C3         -2.5925    1.5779    3.3146 C.ar      1 <0>         0.0000
      4 C4         -3.0315    2.6897    5.8389 C.ar      1 <0>         0.0000
      5 C5         -1.4961    1.7607    4.1648 C.ar      1 <0>         0.0000
      6 C6         -1.7617    2.3176    5.4168 C.ar      1 <0>         0.0000
      7 C7         -0.3869   -0.8235    2.8210 C.2       1 <0>         0.0000
      8 C8         -0.9893   -2.8067    3.5633 C.3       1 <0>         0.0000
      9 C9         -0.9000   -2.8582    2.0132 C.3       1 <0>         0.0000
     10 C10         0.7421    2.6674    3.4280 C.3       1 <0>         0.0000
     11 C11        -0.0634    1.4082    3.7753 C.3       1 <0>         0.0000
     12 N1         -0.5655   -1.4478    3.9241 N.2       1 <0>         0.0000
     13 N2          0.0228    0.4719    2.6594 N.pl3     1 <0>         0.0000
     14 O1         -0.5972   -1.4869    1.6345 O.3       1 <0>         0.0000
     15 F1         -0.7171    2.5085    6.2747 F         1 <0>         0.0000
     16 H1         -4.7179    1.7859    3.0228 H         1 <0>         0.0000
     17 H2         -5.1097    2.7821    5.2753 H         1 <0>         0.0000
     18 H3         -2.4367    1.1262    2.3389 H         1 <0>         0.0000
     19 H4         -3.1631    3.1132    6.8301 H         1 <0>         0.0000
     20 H5         -2.0095   -2.9881    3.9223 H         1 <0>         0.0000
     21 H6         -0.3380   -3.5513    4.0334 H         1 <0>         0.0000
     22 H7         -0.0877   -3.4929    1.6475 H         1 <0>         0.0000
     23 H8         -1.8328   -3.1429    1.5210 H         1 <0>         0.0000
     24 H9          0.3116    3.1751    2.5567 H         1 <0>         0.0000
     25 H10         0.7296    3.3688    4.2647 H         1 <0>         0.0000
     26 H11         1.7797    2.4025    3.2045 H         1 <0>         0.0000
     27 H12         0.4024    0.9141    4.6308 H         1 <0>         0.0000
     28 H13        -0.1088    0.8442    1.7272 H         1 <0>         0.0000
@<TRIPOS>BOND
     1    1    2 ar
     2    1    3 ar
     3    1   16 1
     4    2    4 ar
     5    2   17 1
     6    3    5 ar
     7    3   18 1
     8    4    6 ar
     9    4   19 1
    10    5    6 ar
    11    5   11 1
    12    6   15 1
    13    7   12 2
    14    7   13 1
    15    7   14 1
    16    8    9 1
    17    8   12 1
    18    8   20 1
    19    8   21 1
    20    9   14 1
    21    9   22 1
    22    9   23 1
    23   10   11 1
    24   10   24 1
    25   10   25 1
    26   10   26 1
    27   11   13 1
    28   11   27 1
    29   13   28 1
