@<TRIPOS>MOLECULE
*****
   34    35     0     0     0
SMALL
NO_CHARGES

@<TRIPOS>ATOM
      1 C1          1.8681    2.9438   -0.2025 C.2       1 <0>         0.0000
      2 C2          0.5854    2.9966   -0.9105 C.2       1 <0>         0.0000
      3 C3          2.4068    1.7551    0.1270 C.2       1 <0>         0.0000
      4 C4          0.0409    1.8992   -1.4681 C.2       1 <0>         0.0000
      5 C5         -1.1257   -1.5715    0.8977 C.2       1 <0>         0.0000
      6 C6          2.3050   -0.5794   -3.0523 C.2       1 <0>         0.0000
      7 C7          0.7005    0.0647    0.9340 C.3       1 <0>         0.0000
      8 C8         -0.2290   -0.6068   -1.2284 C.3       1 <0>         0.0000
      9 C9          1.6804    0.4782   -0.1880 C.3       1 <0>         0.0000
     10 C10         0.7612    0.5633   -1.4374 C.3       1 <0>         0.0000
     11 C11        -2.8322   -3.1846    0.6738 C.3       1 <0>         0.0000
     12 C12         3.8414   -1.3237   -4.6824 C.3       1 <0>         0.0000
     13 N1         -0.3163   -0.7155    0.2263 N.am      1 <0>         0.0000
     14 N2          1.4664    0.4482   -2.7223 N.am      1 <0>         0.0000
     15 O1         -1.1396   -1.7184    2.1146 O.2       1 <0>         0.0000
     16 O2          2.4630   -1.6156   -2.4209 O.2       1 <0>         0.0000
     17 O3         -1.9402   -2.2535    0.0366 O.3       1 <0>         0.0000
     18 O4          2.9488   -0.2926   -4.2200 O.3       1 <0>         0.0000
     19 H1          2.3603    3.8757    0.0637 H         1 <0>         0.0000
     20 H2          0.0713    3.9523   -0.9867 H         1 <0>         0.0000
     21 H3          3.3486    1.6995    0.6675 H         1 <0>         0.0000
     22 H4         -0.9024    1.9511   -2.0071 H         1 <0>         0.0000
     23 H5          1.1774   -0.5380    1.7097 H         1 <0>         0.0000
     24 H6          0.2528    0.9430    1.4114 H         1 <0>         0.0000
     25 H7         -1.2042   -0.3949   -1.6740 H         1 <0>         0.0000
     26 H8          0.1656   -1.5250   -1.6690 H         1 <0>         0.0000
     27 H9          2.3844   -0.3406   -0.3502 H         1 <0>         0.0000
     28 H10        -3.4040   -3.6377   -0.1369 H         1 <0>         0.0000
     29 H11        -3.4975   -2.6678    1.3697 H         1 <0>         0.0000
     30 H12        -2.2696   -3.9475    1.2173 H         1 <0>         0.0000
     31 H13         4.2672   -0.9410   -5.6102 H         1 <0>         0.0000
     32 H14         3.2945   -2.2515   -4.8660 H         1 <0>         0.0000
     33 H15         4.6284   -1.5096   -3.9477 H         1 <0>         0.0000
     34 H16         1.5735    1.2977   -3.2620 H         1 <0>         0.0000
@<TRIPOS>BOND
     1    1    2 1
     2    1    3 2
     3    1   19 1
     4    2    4 2
     5    2   20 1
     6    3    9 1
     7    3   21 1
     8    4   10 1
     9    4   22 1
    10    5   13 am
    11    5   15 2
    12    5   17 1
    13    6   14 am
    14    6   16 2
    15    6   18 1
    16    7    9 1
    17    7   13 1
    18    7   23 1
    19    7   24 1
    20    8   10 1
    21    8   13 1
    22    8   25 1
    23    8   26 1
    24    9   10 1
    25    9   27 1
    26   10   14 1
    27   11   17 1
    28   11   28 1
    29   11   29 1
    30   11   30 1
    31   12   18 1
    32   12   31 1
    33   12   32 1
    34   12   33 1
    35   14   34 1
