@<TRIPOS>MOLECULE
*****
   29    30     0     0     0
SMALL
NO_CHARGES

@<TRIPOS>ATOM
      1 C1          2.3076   -5.4255    0.5884 C.ar      1 <0>         0.0000
      2 C2          2.7605   -6.2565    1.6200 C.ar      1 <0>         0.0000
      3 C3          1.0353   -4.8563    0.6528 C.ar      1 <0>         0.0000
      4 C4          1.9444   -6.5103    2.7251 C.ar      1 <0>         0.0000
      5 C5          0.1887   -5.0969    1.7468 C.ar      1 <0>         0.0000
      6 C6          0.6896   -5.9195    2.7556 C.ar      1 <0>         0.0000
      7 C7         -0.8624   -2.6380    3.4708 C.cat     1 <0>         0.0000
      8 C8         -0.2172   -2.5126    5.6799 C.3       1 <0>         0.0000
      9 C9         -0.5826   -1.1198    5.1330 C.3       1 <0>         0.0000
     10 C10        -2.0204   -4.5970    0.5568 C.3       1 <0>         0.0000
     11 C11        -1.2068   -4.5023    1.8486 C.3       1 <0>         0.0000
     12 N1         -0.6638   -3.3684    4.5667 N.pl3     1 <0>         0.0000
     13 N2         -1.1532   -3.0692    2.2577 N.pl3     1 <0>         0.0000
     14 O1         -0.7614   -1.3350    3.6858 O.3       1 <0>         0.0000
     15 F1         -0.1024   -6.1452    3.8637 F         1 <0>         0.0000
     16 H1          2.9433   -5.2297   -0.2695 H         1 <0>         0.0000
     17 H2          3.7462   -6.7086    1.5664 H         1 <0>         0.0000
     18 H3          0.6952   -4.2246   -0.1629 H         1 <0>         0.0000
     19 H4          2.2622   -7.1504    3.5421 H         1 <0>         0.0000
     20 H5          0.8566   -2.6340    5.8467 H         1 <0>         0.0000
     21 H6         -0.7586   -2.7535    6.5957 H         1 <0>         0.0000
     22 H7         -1.5321   -0.7439    5.5160 H         1 <0>         0.0000
     23 H8          0.1998   -0.3727    5.2499 H         1 <0>         0.0000
     24 H9         -1.5610   -4.0274   -0.2565 H         1 <0>         0.0000
     25 H10        -2.0792   -5.6404    0.2417 H         1 <0>         0.0000
     26 H11        -3.0355   -4.2228    0.7150 H         1 <0>         0.0000
     27 H12        -1.7594   -5.0244    2.6328 H         1 <0>         0.0000
     28 H13        -0.5494   -4.3797    4.5537 H         1 <0>         0.0000
     29 H14        -1.2666   -2.3516    1.5478 H         1 <0>         0.0000
@<TRIPOS>BOND
     1    1    2 ar
     2    1    3 ar
     3    1   16 1
     4    2    4 ar
     5    2   17 1
     6    3    5 ar
     7    3   18 1
     8    4    6 ar
     9    4   19 1
    10    5    6 ar
    11    5   11 1
    12    6   15 1
    13    7   12 2
    14    7   13 1
    15    7   14 1
    16    8    9 1
    17    8   12 1
    18    8   20 1
    19    8   21 1
    20    9   14 1
    21    9   22 1
    22    9   23 1
    23   10   11 1
    24   10   24 1
    25   10   25 1
    26   10   26 1
    27   11   13 1
    28   11   27 1
    29   12   28 1
    30   13   29 1
