@<TRIPOS>MOLECULE
*****
   34    35     0     0     0
SMALL
NO_CHARGES

@<TRIPOS>ATOM
      1 C1         -0.5524    2.9254    0.7776 C.2       1 <0>         0.0000
      2 C2          0.8272    3.1275    0.3223 C.2       1 <0>         0.0000
      3 C3         -1.0476    1.6892    0.9700 C.2       1 <0>         0.0000
      4 C4          1.5680    2.0935   -0.1088 C.2       1 <0>         0.0000
      5 C5         -1.3566   -1.2454   -2.2879 C.2       1 <0>         0.0000
      6 C6          2.7792   -0.6206    0.9474 C.2       1 <0>         0.0000
      7 C7         -0.9816   -0.7059    0.0821 C.3       1 <0>         0.0000
      8 C8          0.2693    0.5412   -1.5989 C.3       1 <0>         0.0000
      9 C9         -0.2118    0.4485    0.7554 C.3       1 <0>         0.0000
     10 C10         0.9655    0.7140   -0.2274 C.3       1 <0>         0.0000
     11 C11        -1.6264   -1.6042   -4.6043 C.3       1 <0>         0.0000
     12 C12         3.5588    0.1558    3.0336 C.3       1 <0>         0.0000
     13 N1         -0.6807   -0.5402   -1.3442 N.am      1 <0>         0.0000
     14 N2          1.9859   -0.3391   -0.1347 N.am      1 <0>         0.0000
     15 O1         -2.2013   -2.0994   -2.0497 O.2       1 <0>         0.0000
     16 O2          3.4864   -1.6132    1.0379 O.2       1 <0>         0.0000
     17 O3         -0.9666   -0.8835   -3.5467 O.3       1 <0>         0.0000
     18 O4          2.7006    0.3523    1.8937 O.3       1 <0>         0.0000
     19 H1         -1.1657    3.7978    0.9900 H         1 <0>         0.0000
     20 H2          1.2457    4.1307    0.3434 H         1 <0>         0.0000
     21 H3         -2.0543    1.5531    1.3604 H         1 <0>         0.0000
     22 H4          2.5933    2.2184   -0.4449 H         1 <0>         0.0000
     23 H5         -0.6305   -1.6830    0.4307 H         1 <0>         0.0000
     24 H6         -2.0588   -0.6588    0.2605 H         1 <0>         0.0000
     25 H7         -0.2406    1.4691   -1.8752 H         1 <0>         0.0000
     26 H8          0.9734    0.2830   -2.3923 H         1 <0>         0.0000
     27 H9          0.1700    0.1216    1.7293 H         1 <0>         0.0000
     28 H10        -1.2089   -1.2050   -5.5292 H         1 <0>         0.0000
     29 H11        -2.7056   -1.4379   -4.5678 H         1 <0>         0.0000
     30 H12        -1.4260   -2.6752   -4.5240 H         1 <0>         0.0000
     31 H13         3.3762    1.0143    3.6802 H         1 <0>         0.0000
     32 H14         4.6058    0.1232    2.7237 H         1 <0>         0.0000
     33 H15         3.3073   -0.7747    3.5476 H         1 <0>         0.0000
     34 H16         1.9136   -1.1198   -0.7757 H         1 <0>         0.0000
@<TRIPOS>BOND
     1    1    2 1
     2    1    3 2
     3    1   19 1
     4    2    4 2
     5    2   20 1
     6    3    9 1
     7    3   21 1
     8    4   10 1
     9    4   22 1
    10    5   13 am
    11    5   15 2
    12    5   17 1
    13    6   14 am
    14    6   16 2
    15    6   18 1
    16    7    9 1
    17    7   13 1
    18    7   23 1
    19    7   24 1
    20    8   10 1
    21    8   13 1
    22    8   25 1
    23    8   26 1
    24    9   10 1
    25    9   27 1
    26   10   14 1
    27   11   17 1
    28   11   28 1
    29   11   29 1
    30   11   30 1
    31   12   18 1
    32   12   31 1
    33   12   32 1
    34   12   33 1
    35   14   34 1
