@<TRIPOS>MOLECULE
*****
   28    29     0     0     0
SMALL
NO_CHARGES

@<TRIPOS>ATOM
      1 C1         -2.7894    3.4745    3.0154 C.ar      1 <0>         0.0000
      2 C2         -3.7222    2.7589    3.7713 C.ar      1 <0>         0.0000
      3 C3         -1.5487    2.9054    2.7105 C.ar      1 <0>         0.0000
      4 C4         -3.4134    1.4716    4.2217 C.ar      1 <0>         0.0000
      5 C5         -1.2079    1.6182    3.1478 C.ar      1 <0>         0.0000
      6 C6         -2.1725    0.9362    3.8982 C.ar      1 <0>         0.0000
      7 C7          0.6840   -1.1549    1.6966 C.2       1 <0>         0.0000
      8 C8          2.2890   -2.6556    1.8500 C.3       1 <0>         0.0000
      9 C9          1.1500   -3.2269    0.9648 C.3       1 <0>         0.0000
     10 C10         1.2460    1.9016    2.4541 C.3       1 <0>         0.0000
     11 C11         0.1161    0.9425    2.8353 C.3       1 <0>         0.0000
     12 N1          1.7813   -1.3628    2.3282 N.2       1 <0>         0.0000
     13 N2         -0.1066   -0.0424    1.7572 N.pl3     1 <0>         0.0000
     14 O1          0.2283   -2.1123    0.8214 O.3       1 <0>         0.0000
     15 F1         -1.8844   -0.3205    4.3352 F         1 <0>         0.0000
     16 H1         -3.0252    4.4751    2.6644 H         1 <0>         0.0000
     17 H2         -4.6867    3.1968    4.0132 H         1 <0>         0.0000
     18 H3         -0.8318    3.4738    2.1275 H         1 <0>         0.0000
     19 H4         -4.1108    0.8862    4.8132 H         1 <0>         0.0000
     20 H5          2.5212   -3.3148    2.6929 H         1 <0>         0.0000
     21 H6          3.2157   -2.5098    1.2806 H         1 <0>         0.0000
     22 H7          1.4670   -3.5311   -0.0351 H         1 <0>         0.0000
     23 H8          0.6084   -4.0499    1.4414 H         1 <0>         0.0000
     24 H9          1.0272    2.4266    1.5198 H         1 <0>         0.0000
     25 H10         1.4141    2.6371    3.2476 H         1 <0>         0.0000
     26 H11         2.1622    1.3242    2.3147 H         1 <0>         0.0000
     27 H12         0.4329    0.3890    3.7261 H         1 <0>         0.0000
     28 H13        -1.0634   -0.1951    1.4647 H         1 <0>         0.0000
@<TRIPOS>BOND
     1    1    2 ar
     2    1    3 ar
     3    1   16 1
     4    2    4 ar
     5    2   17 1
     6    3    5 ar
     7    3   18 1
     8    4    6 ar
     9    4   19 1
    10    5    6 ar
    11    5   11 1
    12    6   15 1
    13    7   12 2
    14    7   13 1
    15    7   14 1
    16    8    9 1
    17    8   12 1
    18    8   20 1
    19    8   21 1
    20    9   14 1
    21    9   22 1
    22    9   23 1
    23   10   11 1
    24   10   24 1
    25   10   25 1
    26   10   26 1
    27   11   13 1
    28   11   27 1
    29   13   28 1
