@<TRIPOS>MOLECULE
*****
   28    29     0     0     0
SMALL
NO_CHARGES

@<TRIPOS>ATOM
      1 C1         -2.8779    1.8025    4.8138 C.ar      1 <0>         0.0000
      2 C2         -3.8325    2.1091    3.8396 C.ar      1 <0>         0.0000
      3 C3         -1.5618    1.5190    4.4359 C.ar      1 <0>         0.0000
      4 C4         -3.4680    2.1301    2.4892 C.ar      1 <0>         0.0000
      5 C5         -1.1632    1.5425    3.0933 C.ar      1 <0>         0.0000
      6 C6         -2.1507    1.8480    2.1534 C.ar      1 <0>         0.0000
      7 C7         -0.0902   -1.1569    2.1852 C.2       1 <0>         0.0000
      8 C8         -0.7847   -3.2420    2.3124 C.3       1 <0>         0.0000
      9 C9         -0.4963   -2.7207    3.7422 C.3       1 <0>         0.0000
     10 C10         0.9954    2.4206    2.0719 C.3       1 <0>         0.0000
     11 C11         0.2691    1.2208    2.6900 C.3       1 <0>         0.0000
     12 N1         -0.6222   -2.0625    1.4506 N.2       1 <0>         0.0000
     13 N2          0.3562    0.0748    1.7692 N.pl3     1 <0>         0.0000
     14 O1          0.1233   -1.4256    3.5162 O.3       1 <0>         0.0000
     15 F1         -1.8112    1.8657    0.8291 F         1 <0>         0.0000
     16 H1         -3.1578    1.7775    5.8633 H         1 <0>         0.0000
     17 H2         -4.8585    2.3267    4.1231 H         1 <0>         0.0000
     18 H3         -0.8241    1.2627    5.1923 H         1 <0>         0.0000
     19 H4         -4.1832    2.3571    1.7044 H         1 <0>         0.0000
     20 H5         -0.0809   -4.0292    2.0129 H         1 <0>         0.0000
     21 H6         -1.7961   -3.6502    2.2209 H         1 <0>         0.0000
     22 H7         -1.4063   -2.5569    4.3284 H         1 <0>         0.0000
     23 H8          0.2040   -3.3315    4.3155 H         1 <0>         0.0000
     24 H9          0.5219    2.7362    1.1381 H         1 <0>         0.0000
     25 H10         0.9765    3.2677    2.7633 H         1 <0>         0.0000
     26 H11         2.0364    2.1569    1.8635 H         1 <0>         0.0000
     27 H12         0.8014    0.9288    3.5969 H         1 <0>         0.0000
     28 H13         0.0324    0.2714    0.8274 H         1 <0>         0.0000
@<TRIPOS>BOND
     1    1    2 ar
     2    1    3 ar
     3    1   16 1
     4    2    4 ar
     5    2   17 1
     6    3    5 ar
     7    3   18 1
     8    4    6 ar
     9    4   19 1
    10    5    6 ar
    11    5   11 1
    12    6   15 1
    13    7   12 2
    14    7   13 1
    15    7   14 1
    16    8    9 1
    17    8   12 1
    18    8   20 1
    19    8   21 1
    20    9   14 1
    21    9   22 1
    22    9   23 1
    23   10   11 1
    24   10   24 1
    25   10   25 1
    26   10   26 1
    27   11   13 1
    28   11   27 1
    29   13   28 1
