@<TRIPOS>MOLECULE
*****
   51    54     0     0     0
SMALL
NO_CHARGES

@<TRIPOS>ATOM
      1 C1         -7.7059   -7.9122  -11.8387 C.ar      1 <0>         0.0000
      2 C2         -8.1450   -6.5877  -12.1053 C.ar      1 <0>         0.0000
      3 C3         -6.7230   -8.1423  -10.8995 C.ar      1 <0>         0.0000
      4 C4         -5.1245   -7.2229   -9.2123 C.ar      1 <0>         0.0000
      5 C5         -2.6714   -0.5430   -6.0259 C.ar      1 <0>         0.0000
      6 C6         -1.3150   -2.2433   -5.0045 C.ar      1 <0>         0.0000
      7 C7         -7.5974   -5.5164  -11.4311 C.ar      1 <0>         0.0000
      8 C8         -3.3444   -1.5126   -6.7732 C.ar      1 <0>         0.0000
      9 C9         -1.9731   -3.2220   -5.7461 C.ar      1 <0>         0.0000
     10 C10        -4.6099   -6.1193   -8.5689 C.ar      1 <0>         0.0000
     11 C11        -6.1396   -7.0581  -10.1892 C.ar      1 <0>         0.0000
     12 C12        -1.6469   -0.8829   -5.1361 C.ar      1 <0>         0.0000
     13 C13        -6.5825   -5.7232  -10.4574 C.ar      1 <0>         0.0000
     14 C14        -2.9913   -2.8631   -6.6400 C.ar      1 <0>         0.0000
     15 C15        -5.1192   -4.8375   -8.9090 C.ar      1 <0>         0.0000
     16 C16         0.2753    0.7326   -5.3048 C.2       1 <0>         0.0000
     17 C17        -1.1089    0.1338   -0.7480 C.3       1 <0>         0.0000
     18 C18         0.3745    0.5258   -0.8468 C.3       1 <0>         0.0000
     19 C19        -1.3854   -0.6654   -2.0421 C.3       1 <0>         0.0000
     20 C20         0.5383    0.8640   -2.3354 C.3       1 <0>         0.0000
     21 C21        -0.2835   -0.2292   -3.0562 C.3       1 <0>         0.0000
     22 C22        -4.6135   -3.5721   -8.2508 C.3       1 <0>         0.0000
     23 C23        -0.8866    0.2290   -4.4118 C.3       1 <0>         0.0000
     24 N1         -6.0629   -4.6397   -9.8110 N.ar      1 <0>         0.0000
     25 O1          0.4978    1.9178   -5.4471 O.2       1 <0>         0.0000
     26 O2          1.0630   -0.1987   -5.8791 O.3       1 <0>         0.0000
     27 O3         -1.7620    1.3268   -4.2042 O.3       1 <0>         0.0000
     28 O4         -3.5789   -3.8912   -7.3228 O.3       1 <0>         0.0000
     29 H1         -8.1494   -8.7436  -12.3800 H         1 <0>         0.0000
     30 H2         -8.9203   -6.4216  -12.8488 H         1 <0>         0.0000
     31 H3         -6.3828   -9.1545  -10.6917 H         1 <0>         0.0000
     32 H4         -4.7605   -8.2214   -8.9796 H         1 <0>         0.0000
     33 H5         -2.9542    0.4996   -6.1221 H         1 <0>         0.0000
     34 H6         -0.5556   -2.5644   -4.2977 H         1 <0>         0.0000
     35 H7         -7.9200   -4.4970  -11.6214 H         1 <0>         0.0000
     36 H8         -4.1347   -1.2034   -7.4474 H         1 <0>         0.0000
     37 H9         -1.7183   -4.2719   -5.6358 H         1 <0>         0.0000
     38 H10        -3.8337   -6.2049   -7.8180 H         1 <0>         0.0000
     39 H11        -1.3454   -0.4340    0.1572 H         1 <0>         0.0000
     40 H12        -1.7231    1.0410   -0.7374 H         1 <0>         0.0000
     41 H13         0.6470    1.3572   -0.1892 H         1 <0>         0.0000
     42 H14         1.0110   -0.3281   -0.5805 H         1 <0>         0.0000
     43 H15        -1.3213   -1.7423   -1.8579 H         1 <0>         0.0000
     44 H16        -2.3854   -0.4659   -2.4325 H         1 <0>         0.0000
     45 H17         0.1040    1.8496   -2.5306 H         1 <0>         0.0000
     46 H18         1.5807    0.8920   -2.6665 H         1 <0>         0.0000
     47 H19         0.3892   -1.0727   -3.2432 H         1 <0>         0.0000
     48 H20        -4.2381   -2.8922   -9.0255 H         1 <0>         0.0000
     49 H21        -5.4480   -3.0766   -7.7390 H         1 <0>         0.0000
     50 H22         0.6343   -1.0726   -5.8005 H         1 <0>         0.0000
     51 H23        -1.2559    2.1247   -4.4523 H         1 <0>         0.0000
@<TRIPOS>BOND
     1    1    2 ar
     2    1    3 ar
     3    1   29 1
     4    2    7 ar
     5    2   30 1
     6    3   11 ar
     7    3   31 1
     8    4   10 ar
     9    4   11 ar
    10    4   32 1
    11    5    8 ar
    12    5   12 ar
    13    5   33 1
    14    6    9 ar
    15    6   12 ar
    16    6   34 1
    17    7   13 ar
    18    7   35 1
    19    8   14 ar
    20    8   36 1
    21    9   14 ar
    22    9   37 1
    23   10   15 ar
    24   10   38 1
    25   11   13 ar
    26   12   23 1
    27   13   24 ar
    28   14   28 1
    29   15   22 1
    30   15   24 ar
    31   16   23 1
    32   16   25 2
    33   16   26 1
    34   17   18 1
    35   17   19 1
    36   17   39 1
    37   17   40 1
    38   18   20 1
    39   18   41 1
    40   18   42 1
    41   19   21 1
    42   19   43 1
    43   19   44 1
    44   20   21 1
    45   20   45 1
    46   20   46 1
    47   21   23 1
    48   21   47 1
    49   22   28 1
    50   22   48 1
    51   22   49 1
    52   23   27 1
    53   26   50 1
    54   27   51 1
