@<TRIPOS>MOLECULE
*****
   55    57     0     0     0
SMALL
NO_CHARGES

@<TRIPOS>ATOM
      1 C1          0.0073  -10.1721    4.5185 C.ar      1 <0>         0.0000
      2 C2         -0.4507   -9.6576    5.7533 C.ar      1 <0>         0.0000
      3 C3         -0.0585   -9.3954    3.3791 C.ar      1 <0>         0.0000
      4 C4         -0.9435   -8.3714    5.8281 C.ar      1 <0>         0.0000
      5 C5         -0.7235   -8.1175   -2.5344 C.ar      1 <0>         0.0000
      6 C6          1.3884   -8.3287   -1.3988 C.ar      1 <0>         0.0000
      7 C7         -1.1567   -5.9700    2.3281 C.ar      1 <0>         0.0000
      8 C8         -0.2147   -8.8231   -3.6354 C.ar      1 <0>         0.0000
      9 C9          1.9106   -9.0310   -2.4797 C.ar      1 <0>         0.0000
     10 C10        -1.5445   -5.4316    3.5776 C.ar      1 <0>         0.0000
     11 C11        -0.5869   -8.0765    3.4123 C.ar      1 <0>         0.0000
     12 C12        -1.0186   -7.5457    4.6741 C.ar      1 <0>         0.0000
     13 C13         0.0634   -7.8567   -1.4124 C.ar      1 <0>         0.0000
     14 C14        -0.6906   -7.2705    2.2239 C.ar      1 <0>         0.0000
     15 C15         1.1046   -9.2732   -3.5982 C.ar      1 <0>         0.0000
     16 C16        -1.4922   -6.1993    4.7149 C.ar      1 <0>         0.0000
     17 C17         0.1148  -10.7753  -10.1635 C.3       1 <0>         0.0000
     18 C18         3.5076  -11.8467   -9.2942 C.3       1 <0>         0.0000
     19 C19        -0.4784   -7.0785   -0.2340 C.3       1 <0>         0.0000
     20 C20         0.8580  -10.2586   -8.9398 C.3       1 <0>         0.0000
     21 C21         2.2221  -12.4110   -8.7081 C.3       1 <0>         0.0000
     22 C22         1.9953  -10.8245   -6.7658 C.3       1 <0>         0.0000
     23 C23         0.9967  -10.1421   -5.8286 C.3       1 <0>         0.0000
     24 N1         -0.2771   -7.8273    1.0005 N.pl3     1 <0>         0.0000
     25 N2          1.3444  -11.3684   -8.0180 N.4       1 <0>         0.0000
     26 O1          1.7116   -9.9894   -4.6273 O.3       1 <0>         0.0000
     27 Cl1        -2.0196   -5.4902    6.2361 Cl        1 <0>         0.0000
     28 H1          0.4227  -11.1751    4.4701 H         1 <0>         0.0000
     29 H2         -0.4010  -10.2721    6.6479 H         1 <0>         0.0000
     30 H3          0.3355   -9.7944    2.4496 H         1 <0>         0.0000
     31 H4         -1.2777   -7.9727    6.7794 H         1 <0>         0.0000
     32 H5         -1.7538   -7.7718   -2.5623 H         1 <0>         0.0000
     33 H6          2.0079   -8.1415   -0.5264 H         1 <0>         0.0000
     34 H7         -1.2510   -5.3396    1.4516 H         1 <0>         0.0000
     35 H8         -0.8629   -9.0120   -4.4849 H         1 <0>         0.0000
     36 H9          2.9346   -9.3929   -2.4754 H         1 <0>         0.0000
     37 H10        -1.9052   -4.4093    3.6301 H         1 <0>         0.0000
     38 H11         0.7675  -11.2949  -10.8677 H         1 <0>         0.0000
     39 H12        -0.7131  -11.4378   -9.8895 H         1 <0>         0.0000
     40 H13        -0.3155   -9.9181  -10.6878 H         1 <0>         0.0000
     41 H14         3.3225  -11.1181  -10.0868 H         1 <0>         0.0000
     42 H15         4.1513  -11.3951   -8.5362 H         1 <0>         0.0000
     43 H16         4.0628  -12.6762   -9.7399 H         1 <0>         0.0000
     44 H17         0.0651   -6.1303   -0.1480 H         1 <0>         0.0000
     45 H18        -1.5358   -6.8236   -0.4092 H         1 <0>         0.0000
     46 H19         0.2060   -9.6302   -8.3325 H         1 <0>         0.0000
     47 H20         1.7368   -9.6710   -9.2077 H         1 <0>         0.0000
     48 H21         2.4305  -13.1658   -7.9470 H         1 <0>         0.0000
     49 H22         1.6026  -12.8737   -9.4767 H         1 <0>         0.0000
     50 H23         2.4472  -11.6676   -6.2405 H         1 <0>         0.0000
     51 H24         2.7832  -10.1351   -7.0679 H         1 <0>         0.0000
     52 H25         0.6693   -9.1696   -6.2169 H         1 <0>         0.0000
     53 H26         0.1047  -10.7760   -5.6876 H         1 <0>         0.0000
     54 H27        -0.5583   -8.7966    0.8980 H         1 <0>         0.0000
     55 H28         0.5071  -11.8777   -7.7147 H         1 <0>         0.0000
@<TRIPOS>BOND
     1    1    2 ar
     2    1    3 ar
     3    1   28 1
     4    2    4 ar
     5    2   29 1
     6    3   11 ar
     7    3   30 1
     8    4   12 ar
     9    4   31 1
    10    5    8 ar
    11    5   13 ar
    12    5   32 1
    13    6    9 ar
    14    6   13 ar
    15    6   33 1
    16    7   10 ar
    17    7   14 ar
    18    7   34 1
    19    8   15 ar
    20    8   35 1
    21    9   15 ar
    22    9   36 1
    23   10   16 ar
    24   10   37 1
    25   11   12 ar
    26   11   14 ar
    27   12   16 ar
    28   13   19 1
    29   14   24 1
    30   15   26 1
    31   16   27 1
    32   17   20 1
    33   17   38 1
    34   17   39 1
    35   17   40 1
    36   18   21 1
    37   18   41 1
    38   18   42 1
    39   18   43 1
    40   19   24 1
    41   19   44 1
    42   19   45 1
    43   20   25 1
    44   20   46 1
    45   20   47 1
    46   21   25 1
    47   21   48 1
    48   21   49 1
    49   22   23 1
    50   22   25 1
    51   22   50 1
    52   22   51 1
    53   23   26 1
    54   23   52 1
    55   23   53 1
    56   24   54 1
    57   25   55 1
