@<TRIPOS>MOLECULE
*****
   54    56     0     0     0
SMALL
NO_CHARGES

@<TRIPOS>ATOM
      1 C1         -1.5972  -10.3240    2.8236 C.ar      1 <0>         0.0000
      2 C2         -2.4673  -10.1173    3.9186 C.ar      1 <0>         0.0000
      3 C3         -1.3579   -9.2988    1.9304 C.ar      1 <0>         0.0000
      4 C4         -3.0617   -8.8871    4.1090 C.ar      1 <0>         0.0000
      5 C5         -0.4451   -6.9615   -3.4244 C.ar      1 <0>         0.0000
      6 C6          1.4205   -7.0346   -1.9090 C.ar      1 <0>         0.0000
      7 C7         -2.3299   -5.7217    1.3660 C.ar      1 <0>         0.0000
      8 C8          0.3556   -7.4700   -4.4568 C.ar      1 <0>         0.0000
      9 C9          2.2295   -7.5415   -2.9186 C.ar      1 <0>         0.0000
     10 C10        -3.1440   -5.5002    2.4997 C.ar      1 <0>         0.0000
     11 C11        -1.9734   -8.0268    2.0773 C.ar      1 <0>         0.0000
     12 C12        -2.8299   -7.8113    3.2096 C.ar      1 <0>         0.0000
     13 C13         0.0669   -6.7331   -2.1462 C.ar      1 <0>         0.0000
     14 C14        -1.7507   -6.9617    1.1300 C.ar      1 <0>         0.0000
     15 C15         1.7015   -7.7623   -4.2035 C.ar      1 <0>         0.0000
     16 C16        -3.4003   -6.5158    3.3883 C.ar      1 <0>         0.0000
     17 C17         4.9583  -10.4561   -9.4843 C.3       1 <0>         0.0000
     18 C18         2.3851   -8.0833  -10.8319 C.3       1 <0>         0.0000
     19 C19        -0.8037   -6.1998   -1.0335 C.3       1 <0>         0.0000
     20 C20         3.4350  -10.4529   -9.2692 C.3       1 <0>         0.0000
     21 C21         3.0428   -8.0208   -9.4532 C.3       1 <0>         0.0000
     22 C22         3.2598   -9.0537   -7.2675 C.3       1 <0>         0.0000
     23 C23         2.0934   -8.4986   -6.4548 C.3       1 <0>         0.0000
     24 N1         -0.9287   -7.1970    0.0289 N.pl3     1 <0>         0.0000
     25 N2          2.8610   -9.2451   -8.6631 N.3       1 <0>         0.0000
     26 O1          2.5751   -8.2595   -5.1289 O.3       1 <0>         0.0000
     27 Cl1        -4.4521   -6.1887    4.7664 Cl        1 <0>         0.0000
     28 H1         -1.1078  -11.2852    2.6918 H         1 <0>         0.0000
     29 H2         -2.6577  -10.9259    4.6194 H         1 <0>         0.0000
     30 H3         -0.6561   -9.4686    1.1198 H         1 <0>         0.0000
     31 H4         -3.7155   -8.7257    4.9589 H         1 <0>         0.0000
     32 H5         -1.4903   -6.7413   -3.6308 H         1 <0>         0.0000
     33 H6          1.8365   -6.8714   -0.9178 H         1 <0>         0.0000
     34 H7         -2.1799   -4.9010    0.6747 H         1 <0>         0.0000
     35 H8         -0.0794   -7.6334   -5.4360 H         1 <0>         0.0000
     36 H9          3.2759   -7.7724   -2.7409 H         1 <0>         0.0000
     37 H10        -3.5850   -4.5207    2.6561 H         1 <0>         0.0000
     38 H11         5.2724   -9.6798  -10.1893 H         1 <0>         0.0000
     39 H12         5.4976  -10.2953   -8.5447 H         1 <0>         0.0000
     40 H13         5.2777  -11.4216   -9.8920 H         1 <0>         0.0000
     41 H14         2.8862   -8.7913  -11.4989 H         1 <0>         0.0000
     42 H15         1.3354   -8.3809  -10.7429 H         1 <0>         0.0000
     43 H16         2.4275   -7.0990  -11.3099 H         1 <0>         0.0000
     44 H17        -0.3530   -5.2977   -0.6025 H         1 <0>         0.0000
     45 H18        -1.7860   -5.9066   -1.4359 H         1 <0>         0.0000
     46 H19         3.1572  -11.2969   -8.6283 H         1 <0>         0.0000
     47 H20         2.9321  -10.6268  -10.2255 H         1 <0>         0.0000
     48 H21         2.5872   -7.1996   -8.8905 H         1 <0>         0.0000
     49 H22         4.1106   -7.7572   -9.5625 H         1 <0>         0.0000
     50 H23         4.1288   -8.3848   -7.1565 H         1 <0>         0.0000
     51 H24         3.5477  -10.0160   -6.8340 H         1 <0>         0.0000
     52 H25         1.2723   -9.2252   -6.4411 H         1 <0>         0.0000
     53 H26         1.7191   -7.5637   -6.8900 H         1 <0>         0.0000
     54 H27        -0.9852   -8.1384   -0.3401 H         1 <0>         0.0000
@<TRIPOS>BOND
     1    1    2 ar
     2    1    3 ar
     3    1   28 1
     4    2    4 ar
     5    2   29 1
     6    3   11 ar
     7    3   30 1
     8    4   12 ar
     9    4   31 1
    10    5    8 ar
    11    5   13 ar
    12    5   32 1
    13    6    9 ar
    14    6   13 ar
    15    6   33 1
    16    7   10 ar
    17    7   14 ar
    18    7   34 1
    19    8   15 ar
    20    8   35 1
    21    9   15 ar
    22    9   36 1
    23   10   16 ar
    24   10   37 1
    25   11   12 ar
    26   11   14 ar
    27   12   16 ar
    28   13   19 1
    29   14   24 1
    30   15   26 1
    31   16   27 1
    32   17   20 1
    33   17   38 1
    34   17   39 1
    35   17   40 1
    36   18   21 1
    37   18   41 1
    38   18   42 1
    39   18   43 1
    40   19   24 1
    41   19   44 1
    42   19   45 1
    43   20   25 1
    44   20   46 1
    45   20   47 1
    46   21   25 1
    47   21   48 1
    48   21   49 1
    49   22   23 1
    50   22   25 1
    51   22   50 1
    52   22   51 1
    53   23   26 1
    54   23   52 1
    55   23   53 1
    56   24   54 1
