@<TRIPOS>MOLECULE
*****
   55    57     0     0     0
SMALL
NO_CHARGES

@<TRIPOS>ATOM
      1 C1         -0.8097  -10.9626    3.0087 C.ar      1 <0>         0.0000
      2 C2         -1.0724  -10.4251    4.2898 C.ar      1 <0>         0.0000
      3 C3         -0.8746  -10.1525    1.8927 C.ar      1 <0>         0.0000
      4 C4         -1.3727   -9.0863    4.4312 C.ar      1 <0>         0.0000
      5 C5         -1.7983   -8.5648   -3.9543 C.ar      1 <0>         0.0000
      6 C6          0.3029   -9.1606   -2.9417 C.ar      1 <0>         0.0000
      7 C7         -1.5829   -6.5818    1.0044 C.ar      1 <0>         0.0000
      8 C8         -1.4569   -9.2770   -5.1138 C.ar      1 <0>         0.0000
      9 C9          0.6588   -9.8747   -4.0817 C.ar      1 <0>         0.0000
     10 C10        -1.7726   -6.0304    2.2935 C.ar      1 <0>         0.0000
     11 C11        -1.2091   -8.7752    1.9967 C.ar      1 <0>         0.0000
     12 C12        -1.4419   -8.2261    3.3023 C.ar      1 <0>         0.0000
     13 C13        -0.9315   -8.4920   -2.8630 C.ar      1 <0>         0.0000
     14 C14        -1.3118   -7.9295    0.8367 C.ar      1 <0>         0.0000
     15 C15        -0.2257   -9.9273   -5.1640 C.ar      1 <0>         0.0000
     16 C16        -1.7189   -6.8294    3.4090 C.ar      1 <0>         0.0000
     17 C17         0.3309  -15.0086   -6.4735 C.3       1 <0>         0.0000
     18 C18         1.7060  -13.9570   -9.7654 C.3       1 <0>         0.0000
     19 C19        -1.2865   -7.6958   -1.6264 C.3       1 <0>         0.0000
     20 C20        -0.2527  -13.9031   -7.3426 C.3       1 <0>         0.0000
     21 C21         1.9962  -13.3305   -8.4095 C.3       1 <0>         0.0000
     22 C22         0.1167  -11.6472   -8.3897 C.3       1 <0>         0.0000
     23 C23        -0.6542  -10.7996   -7.3816 C.3       1 <0>         0.0000
     24 N1         -1.0941   -8.5056   -0.4300 N.pl3     1 <0>         0.0000
     25 N2          0.7576  -12.8254   -7.6887 N.4       1 <0>         0.0000
     26 O1          0.2151  -10.6633   -6.2681 O.3       1 <0>         0.0000
     27 Cl1        -1.9974   -6.0987    4.9840 Cl        1 <0>         0.0000
     28 H1         -0.5445  -12.0114    2.9056 H         1 <0>         0.0000
     29 H2         -1.0239  -11.0654    5.1662 H         1 <0>         0.0000
     30 H3         -0.6306  -10.5745    0.9226 H         1 <0>         0.0000
     31 H4         -1.5568   -8.6725    5.4163 H         1 <0>         0.0000
     32 H5         -2.7598   -8.0593   -3.9142 H         1 <0>         0.0000
     33 H6          0.9832   -9.1162   -2.0962 H         1 <0>         0.0000
     34 H7         -1.6745   -5.9202    0.1510 H         1 <0>         0.0000
     35 H8         -2.1552   -9.3024   -5.9433 H         1 <0>         0.0000
     36 H9          1.6186  -10.3799   -4.1482 H         1 <0>         0.0000
     37 H10        -1.9832   -4.9707    2.3956 H         1 <0>         0.0000
     38 H11         1.0545  -15.6284   -7.0071 H         1 <0>         0.0000
     39 H12         0.8023  -14.6068   -5.5707 H         1 <0>         0.0000
     40 H13        -0.4853  -15.6611   -6.1530 H         1 <0>         0.0000
     41 H14         1.0971  -14.8607   -9.6863 H         1 <0>         0.0000
     42 H15         1.2189  -13.2591  -10.4511 H         1 <0>         0.0000
     43 H16         2.6586  -14.2457  -10.2170 H         1 <0>         0.0000
     44 H17        -0.6199   -6.8282   -1.5585 H         1 <0>         0.0000
     45 H18        -2.3112   -7.3020   -1.7167 H         1 <0>         0.0000
     46 H19        -1.0626  -13.3958   -6.8174 H         1 <0>         0.0000
     47 H20        -0.6463  -14.2852   -8.2853 H         1 <0>         0.0000
     48 H21         2.6542  -12.4638   -8.5039 H         1 <0>         0.0000
     49 H22         2.4793  -14.0398   -7.7369 H         1 <0>         0.0000
     50 H23         0.9283  -11.0613   -8.8238 H         1 <0>         0.0000
     51 H24        -0.5291  -12.0138   -9.1880 H         1 <0>         0.0000
     52 H25        -0.8806   -9.8308   -7.8421 H         1 <0>         0.0000
     53 H26        -1.6013  -11.2661   -7.0847 H         1 <0>         0.0000
     54 H27        -1.5367   -9.4141   -0.5220 H         1 <0>         0.0000
     55 H28         1.0754  -12.4251   -6.7932 H         1 <0>         0.0000
@<TRIPOS>BOND
     1    1    2 ar
     2    1    3 ar
     3    1   28 1
     4    2    4 ar
     5    2   29 1
     6    3   11 ar
     7    3   30 1
     8    4   12 ar
     9    4   31 1
    10    5    8 ar
    11    5   13 ar
    12    5   32 1
    13    6    9 ar
    14    6   13 ar
    15    6   33 1
    16    7   10 ar
    17    7   14 ar
    18    7   34 1
    19    8   15 ar
    20    8   35 1
    21    9   15 ar
    22    9   36 1
    23   10   16 ar
    24   10   37 1
    25   11   12 ar
    26   11   14 ar
    27   12   16 ar
    28   13   19 1
    29   14   24 1
    30   15   26 1
    31   16   27 1
    32   17   20 1
    33   17   38 1
    34   17   39 1
    35   17   40 1
    36   18   21 1
    37   18   41 1
    38   18   42 1
    39   18   43 1
    40   19   24 1
    41   19   44 1
    42   19   45 1
    43   20   25 1
    44   20   46 1
    45   20   47 1
    46   21   25 1
    47   21   48 1
    48   21   49 1
    49   22   23 1
    50   22   25 1
    51   22   50 1
    52   22   51 1
    53   23   26 1
    54   23   52 1
    55   23   53 1
    56   24   54 1
    57   25   55 1
