@<TRIPOS>MOLECULE
*****
   55    57     0     0     0
SMALL
NO_CHARGES

@<TRIPOS>ATOM
      1 C1          1.2712  -10.8647    3.3908 C.ar      1 <0>         0.0000
      2 C2          0.6777  -10.9314    4.6724 C.ar      1 <0>         0.0000
      3 C3          1.0316   -9.7779    2.5739 C.ar      1 <0>         0.0000
      4 C4         -0.1247   -9.9019    5.1184 C.ar      1 <0>         0.0000
      5 C5          0.2683   -6.5255   -2.6150 C.ar      1 <0>         0.0000
      6 C6          2.2842   -6.8685   -1.3460 C.ar      1 <0>         0.0000
      7 C7         -0.8797   -6.5549    2.6106 C.ar      1 <0>         0.0000
      8 C8          0.9904   -6.6218   -3.8050 C.ar      1 <0>         0.0000
      9 C9          3.0258   -6.9726   -2.5274 C.ar      1 <0>         0.0000
     10 C10        -1.4136   -6.5896    3.9205 C.ar      1 <0>         0.0000
     11 C11         0.1879   -8.7119    2.9881 C.ar      1 <0>         0.0000
     12 C12        -0.3861   -8.7683    4.3024 C.ar      1 <0>         0.0000
     13 C13         0.9030   -6.6403   -1.3708 C.ar      1 <0>         0.0000
     14 C14        -0.0951   -7.5905    2.1314 C.ar      1 <0>         0.0000
     15 C15         2.3674   -6.8424   -3.7521 C.ar      1 <0>         0.0000
     16 C16        -1.1866   -7.6691    4.7382 C.ar      1 <0>         0.0000
     17 C17         3.8724   -3.4542   -7.4770 C.3       1 <0>         0.0000
     18 C18         5.1797   -6.3081   -9.4846 C.3       1 <0>         0.0000
     19 C19         0.1253   -6.5030   -0.0794 C.3       1 <0>         0.0000
     20 C20         4.7005   -4.6047   -6.9213 C.3       1 <0>         0.0000
     21 C21         3.8880   -6.2669   -8.6816 C.3       1 <0>         0.0000
     22 C22         4.8147   -7.0774   -6.4786 C.3       1 <0>         0.0000
     23 C23         4.4285   -7.0673   -5.0024 C.3       1 <0>         0.0000
     24 N1          0.4733   -7.5761    0.8425 N.pl3     1 <0>         0.0000
     25 N2          4.0916   -5.9647   -7.2065 N.4       1 <0>         0.0000
     26 O1          3.0160   -6.9273   -4.9881 O.3       1 <0>         0.0000
     27 Cl1        -1.9025   -7.6755    6.3444 Cl        1 <0>         0.0000
     28 H1          1.9249  -11.6649    3.0545 H         1 <0>         0.0000
     29 H2          0.8648  -11.7895    5.3120 H         1 <0>         0.0000
     30 H3          1.5270   -9.7278    1.6093 H         1 <0>         0.0000
     31 H4         -0.5656   -9.9471    6.1079 H         1 <0>         0.0000
     32 H5         -0.8055   -6.3625   -2.6599 H         1 <0>         0.0000
     33 H6          2.7846   -6.9737   -0.3878 H         1 <0>         0.0000
     34 H7         -1.1195   -5.7012    1.9874 H         1 <0>         0.0000
     35 H8          0.4938   -6.5434   -4.7682 H         1 <0>         0.0000
     36 H9          4.0931   -7.1575   -2.4671 H         1 <0>         0.0000
     37 H10        -2.0247   -5.7639    4.2705 H         1 <0>         0.0000
     38 H11         3.8824   -3.4146   -8.5682 H         1 <0>         0.0000
     39 H12         2.8348   -3.4990   -7.1307 H         1 <0>         0.0000
     40 H13         4.2983   -2.5162   -7.1117 H         1 <0>         0.0000
     41 H14         5.6827   -5.3388   -9.5170 H         1 <0>         0.0000
     42 H15         5.8796   -7.0592   -9.1095 H         1 <0>         0.0000
     43 H16         4.9314   -6.5797  -10.5139 H         1 <0>         0.0000
     44 H17         0.3889   -5.5507    0.3954 H         1 <0>         0.0000
     45 H18        -0.9536   -6.4591   -0.2978 H         1 <0>         0.0000
     46 H19         4.7721   -4.5306   -5.8357 H         1 <0>         0.0000
     47 H20         5.7125   -4.6175   -7.3278 H         1 <0>         0.0000
     48 H21         3.3673   -7.2263   -8.7151 H         1 <0>         0.0000
     49 H22         3.2050   -5.5072   -9.0628 H         1 <0>         0.0000
     50 H23         4.4960   -8.0133   -6.9398 H         1 <0>         0.0000
     51 H24         5.8895   -6.9561   -6.6164 H         1 <0>         0.0000
     52 H25         4.7488   -8.0140   -4.5519 H         1 <0>         0.0000
     53 H26         4.9088   -6.2485   -4.4534 H         1 <0>         0.0000
     54 H27         0.4232   -8.4831    0.3895 H         1 <0>         0.0000
     55 H28         3.1572   -5.9640   -6.7703 H         1 <0>         0.0000
@<TRIPOS>BOND
     1    1    2 ar
     2    1    3 ar
     3    1   28 1
     4    2    4 ar
     5    2   29 1
     6    3   11 ar
     7    3   30 1
     8    4   12 ar
     9    4   31 1
    10    5    8 ar
    11    5   13 ar
    12    5   32 1
    13    6    9 ar
    14    6   13 ar
    15    6   33 1
    16    7   10 ar
    17    7   14 ar
    18    7   34 1
    19    8   15 ar
    20    8   35 1
    21    9   15 ar
    22    9   36 1
    23   10   16 ar
    24   10   37 1
    25   11   12 ar
    26   11   14 ar
    27   12   16 ar
    28   13   19 1
    29   14   24 1
    30   15   26 1
    31   16   27 1
    32   17   20 1
    33   17   38 1
    34   17   39 1
    35   17   40 1
    36   18   21 1
    37   18   41 1
    38   18   42 1
    39   18   43 1
    40   19   24 1
    41   19   44 1
    42   19   45 1
    43   20   25 1
    44   20   46 1
    45   20   47 1
    46   21   25 1
    47   21   48 1
    48   21   49 1
    49   22   23 1
    50   22   25 1
    51   22   50 1
    52   22   51 1
    53   23   26 1
    54   23   52 1
    55   23   53 1
    56   24   54 1
    57   25   55 1
