@<TRIPOS>MOLECULE
*****
   50    50     0     0     0
SMALL
NO_CHARGES

@<TRIPOS>ATOM
      1 C1         -2.2084   -0.2848   -1.2377 C.2       1 <0>         0.0000
      2 C2         -1.8439   -3.2816   -0.1042 C.2       1 <0>         0.0000
      3 C3         -2.1023    0.5849   -2.4750 C.3       1 <0>         0.0000
      4 C4         -1.0662   -0.1395   -3.3507 C.3       1 <0>         0.0000
      5 C5         -0.2367   -0.9806   -2.3507 C.3       1 <0>         0.0000
      6 C6         -6.9315   -5.4931    1.5380 C.3       1 <0>         0.0000
      7 C7         -6.5611   -7.7941    0.5787 C.3       1 <0>         0.0000
      8 C8         -2.3396   -7.4604    1.5101 C.3       1 <0>         0.0000
      9 C9         -3.3489   -7.2398   -0.8061 C.3       1 <0>         0.0000
     10 C10        -0.9108   -2.0660   -0.1041 C.3       1 <0>         0.0000
     11 C11        -4.1318   -4.0850    0.0746 C.3       1 <0>         0.0000
     12 C12        -4.0062   -4.9437    1.3468 C.3       1 <0>         0.0000
     13 C13        -6.0181   -6.3680    0.6752 C.3       1 <0>         0.0000
     14 C14        -3.6249   -7.4138    0.6832 C.3       1 <0>         0.0000
     15 C15         1.0496   -0.2558   -1.9296 C.3       1 <0>         0.0000
     16 N1         -1.1514   -1.1607   -1.2267 N.am      1 <0>         0.0000
     17 N2         -3.1570   -3.0131    0.1412 N.am      1 <0>         0.0000
     18 N3         -4.5938   -6.3461    1.2582 N.4       1 <0>         0.0000
     19 O1         -3.0864   -0.2546   -0.3719 O.2       1 <0>         0.0000
     20 O2         -1.4306   -4.4323   -0.2843 O.2       1 <0>         0.0000
     21 F1          1.8585   -0.0839   -2.9948 F         1 <0>         0.0000
     22 F2          0.7894    0.9606   -1.3983 F         1 <0>         0.0000
     23 F3          1.7419   -0.9608   -1.0007 F         1 <0>         0.0000
     24 H1         -3.0814    0.6950   -2.9438 H         1 <0>         0.0000
     25 H2         -1.7673    1.5792   -2.1650 H         1 <0>         0.0000
     26 H3         -1.5627   -0.8202   -4.0462 H         1 <0>         0.0000
     27 H4         -0.4402    0.5351   -3.9350 H         1 <0>         0.0000
     28 H5          0.0721   -1.9434   -2.7670 H         1 <0>         0.0000
     29 H6         -6.9940   -5.8744    2.5637 H         1 <0>         0.0000
     30 H7         -6.6265   -4.4463    1.5723 H         1 <0>         0.0000
     31 H8         -7.9397   -5.5219    1.1188 H         1 <0>         0.0000
     32 H9         -6.5404   -8.3032    1.5488 H         1 <0>         0.0000
     33 H10        -6.0361   -8.4064   -0.1556 H         1 <0>         0.0000
     34 H11        -7.6061   -7.7397    0.2646 H         1 <0>         0.0000
     35 H12        -1.6600   -6.6414    1.2669 H         1 <0>         0.0000
     36 H13        -2.5365   -7.4672    2.5885 H         1 <0>         0.0000
     37 H14        -1.8231   -8.3943    1.2732 H         1 <0>         0.0000
     38 H15        -2.6909   -6.3894   -0.9928 H         1 <0>         0.0000
     39 H16        -4.2614   -7.1457   -1.4008 H         1 <0>         0.0000
     40 H17        -2.8320   -8.1395   -1.1522 H         1 <0>         0.0000
     41 H18        -1.0355   -1.5081    0.8301 H         1 <0>         0.0000
     42 H19         0.1081   -2.4409   -0.1536 H         1 <0>         0.0000
     43 H20        -3.9506   -4.6842   -0.8186 H         1 <0>         0.0000
     44 H21        -5.1243   -3.6388   -0.0089 H         1 <0>         0.0000
     45 H22        -4.4870   -4.4462    2.1893 H         1 <0>         0.0000
     46 H23        -2.9546   -5.0668    1.5843 H         1 <0>         0.0000
     47 H24        -5.9288   -5.9428   -0.3249 H         1 <0>         0.0000
     48 H25        -4.1682   -8.3436    0.8502 H         1 <0>         0.0000
     49 H26        -3.4433   -2.0304    0.1828 H         1 <0>         0.0000
     50 H27        -4.7072   -6.6388    2.2343 H         1 <0>         0.0000
@<TRIPOS>BOND
     1    1    3 1
     2    1   16 am
     3    1   19 2
     4    2   10 1
     5    2   17 am
     6    2   20 2
     7    3    4 1
     8    3   24 1
     9    3   25 1
    10    4    5 1
    11    4   26 1
    12    4   27 1
    13    5   15 1
    14    5   16 1
    15    5   28 1
    16    6   13 1
    17    6   29 1
    18    6   30 1
    19    6   31 1
    20    7   13 1
    21    7   32 1
    22    7   33 1
    23    7   34 1
    24    8   14 1
    25    8   35 1
    26    8   36 1
    27    8   37 1
    28    9   14 1
    29    9   38 1
    30    9   39 1
    31    9   40 1
    32   10   16 1
    33   10   41 1
    34   10   42 1
    35   11   12 1
    36   11   17 1
    37   11   43 1
    38   11   44 1
    39   12   18 1
    40   12   45 1
    41   12   46 1
    42   13   18 1
    43   13   47 1
    44   14   18 1
    45   14   48 1
    46   15   21 1
    47   15   22 1
    48   15   23 1
    49   17   49 1
    50   18   50 1
