@<TRIPOS>MOLECULE
*****
   74    76     0     0     0
SMALL
NO_CHARGES

@<TRIPOS>ATOM
      1 C1          3.2936    1.6711   -3.2116 C.ar      1 <0>         0.0000
      2 C2          2.8377    0.6532   -2.3735 C.ar      1 <0>         0.0000
      3 C3          1.2855    2.9142   -2.7802 C.ar      1 <0>         0.0000
      4 C4          0.8266    1.8924   -1.9435 C.ar      1 <0>         0.0000
      5 C5          2.5298    2.8267   -3.4150 C.ar      1 <0>         0.0000
      6 C6          1.6019    0.7511   -1.7173 C.ar      1 <0>         0.0000
      7 C7          2.7397    5.3543   -3.8547 C.3       1 <0>         0.0000
      8 C8          2.0854   -0.6150    0.3649 C.3       1 <0>         0.0000
      9 C9          4.1202    6.0028   -3.9347 C.3       1 <0>         0.0000
     10 C10         1.5959    0.4207    1.3645 C.3       1 <0>         0.0000
     11 C11         3.0060    3.9110   -4.3773 C.3       1 <0>         0.0000
     12 C12         1.1156   -0.3796   -0.8058 C.3       1 <0>         0.0000
     13 C13         2.4024    3.6742   -5.7673 C.3       1 <0>         0.0000
     14 C14         0.8206   -1.6430   -1.6203 C.3       1 <0>         0.0000
     15 C15         6.6843    4.9531   -5.5423 C.3       1 <0>         0.0000
     16 C16        -0.2061    1.8584    3.0737 C.3       1 <0>         0.0000
     17 C17         7.1548    4.6767   -1.6658 C.3       1 <0>         0.0000
     18 C18         7.0434    2.7274   -3.2306 C.3       1 <0>         0.0000
     19 C19         8.8239    4.4787   -3.5215 C.3       1 <0>         0.0000
     20 C20        -2.6292    1.4300    0.0292 C.3       1 <0>         0.0000
     21 C21        -2.5894   -0.1152    2.0127 C.3       1 <0>         0.0000
     22 C22        -2.9375    2.3535    2.3045 C.3       1 <0>         0.0000
     23 C23         6.4166    5.0800   -4.0339 C.3       1 <0>         0.0000
     24 C24        -0.6283    1.4880    1.6413 C.3       1 <0>         0.0000
     25 C25         7.3561    4.2295   -3.1262 C.3       1 <0>         0.0000
     26 C26        -2.1791    1.2762    1.4986 C.3       1 <0>         0.0000
     27 N1          5.0003    4.8633   -3.6628 N.3       1 <0>         0.0000
     28 N2          0.1359    0.2782    1.2783 N.3       1 <0>         0.0000
     29 O1          4.4373    3.8451   -4.5600 O.3       1 <0>         0.0000
     30 O2         -0.1154   -0.0040   -0.1558 O.3       1 <0>         0.0000
     31 H1          4.2521    1.5805   -3.7103 H         1 <0>         0.0000
     32 H2          3.4610   -0.2274   -2.2319 H         1 <0>         0.0000
     33 H3          0.6559    3.7881   -2.9334 H         1 <0>         0.0000
     34 H4         -0.1390    1.9762   -1.4590 H         1 <0>         0.0000
     35 H5          2.3969    5.3312   -2.8194 H         1 <0>         0.0000
     36 H6          1.9945    5.8796   -4.4574 H         1 <0>         0.0000
     37 H7          3.1314   -0.4750    0.0892 H         1 <0>         0.0000
     38 H8          1.9509   -1.6234    0.7677 H         1 <0>         0.0000
     39 H9          4.2970    6.4456   -4.9278 H         1 <0>         0.0000
     40 H10         4.2778    6.7678   -3.1695 H         1 <0>         0.0000
     41 H11         1.9226    0.2033    2.3831 H         1 <0>         0.0000
     42 H12         1.9427    1.4273    1.0788 H         1 <0>         0.0000
     43 H13         2.7175    4.4644   -6.4562 H         1 <0>         0.0000
     44 H14         1.3099    3.6612   -5.7101 H         1 <0>         0.0000
     45 H15         2.7353    2.7105   -6.1635 H         1 <0>         0.0000
     46 H16         0.4463   -2.4307   -0.9604 H         1 <0>         0.0000
     47 H17         1.7230   -1.9988   -2.1267 H         1 <0>         0.0000
     48 H18         0.0645   -1.4322   -2.3819 H         1 <0>         0.0000
     49 H19         6.6737    3.9126   -5.8718 H         1 <0>         0.0000
     50 H20         7.6540    5.3895   -5.7933 H         1 <0>         0.0000
     51 H21         5.9217    5.4844   -6.1181 H         1 <0>         0.0000
     52 H22        -0.4462    1.0563    3.7785 H         1 <0>         0.0000
     53 H23        -0.7097    2.7686    3.3992 H         1 <0>         0.0000
     54 H24         0.8665    2.0536    3.1342 H         1 <0>         0.0000
     55 H25         7.4415    5.7273   -1.5311 H         1 <0>         0.0000
     56 H26         6.1083    4.5661   -1.3700 H         1 <0>         0.0000
     57 H27         7.7722    4.0747   -0.9894 H         1 <0>         0.0000
     58 H28         7.1012    2.3660   -4.2624 H         1 <0>         0.0000
     59 H29         6.0414    2.5167   -2.8527 H         1 <0>         0.0000
     60 H30         7.7624    2.1530   -2.6349 H         1 <0>         0.0000
     61 H31         9.0628    4.0587   -4.5032 H         1 <0>         0.0000
     62 H32         9.4941    4.0110   -2.7918 H         1 <0>         0.0000
     63 H33         9.0576    5.5504   -3.5449 H         1 <0>         0.0000
     64 H34        -2.3535    2.4176   -0.3617 H         1 <0>         0.0000
     65 H35        -2.1868    0.6716   -0.6146 H         1 <0>         0.0000
     66 H36        -3.7204    1.3462   -0.0342 H         1 <0>         0.0000
     67 H37        -2.2774   -0.2704    3.0509 H         1 <0>         0.0000
     68 H38        -2.1411   -0.9060    1.4076 H         1 <0>         0.0000
     69 H39        -3.6799   -0.2200    1.9723 H         1 <0>         0.0000
     70 H40        -2.8316    2.2221    3.3850 H         1 <0>         0.0000
     71 H41        -4.0065    2.2982    2.0734 H         1 <0>         0.0000
     72 H42        -2.5993    3.3649    2.0472 H         1 <0>         0.0000
     73 H43         6.6016    6.1258   -3.7544 H         1 <0>         0.0000
     74 H44        -0.3398    2.3215    0.9772 H         1 <0>         0.0000
@<TRIPOS>BOND
     1    1    2 ar
     2    1    5 ar
     3    1   31 1
     4    2    6 ar
     5    2   32 1
     6    3    4 ar
     7    3    5 ar
     8    3   33 1
     9    4    6 ar
    10    4   34 1
    11    5   11 1
    12    6   12 1
    13    7    9 1
    14    7   11 1
    15    7   35 1
    16    7   36 1
    17    8   10 1
    18    8   12 1
    19    8   37 1
    20    8   38 1
    21    9   27 1
    22    9   39 1
    23    9   40 1
    24   10   28 1
    25   10   41 1
    26   10   42 1
    27   11   13 1
    28   11   29 1
    29   12   14 1
    30   12   30 1
    31   13   43 1
    32   13   44 1
    33   13   45 1
    34   14   46 1
    35   14   47 1
    36   14   48 1
    37   15   23 1
    38   15   49 1
    39   15   50 1
    40   15   51 1
    41   16   24 1
    42   16   52 1
    43   16   53 1
    44   16   54 1
    45   17   25 1
    46   17   55 1
    47   17   56 1
    48   17   57 1
    49   18   25 1
    50   18   58 1
    51   18   59 1
    52   18   60 1
    53   19   25 1
    54   19   61 1
    55   19   62 1
    56   19   63 1
    57   20   26 1
    58   20   64 1
    59   20   65 1
    60   20   66 1
    61   21   26 1
    62   21   67 1
    63   21   68 1
    64   21   69 1
    65   22   26 1
    66   22   70 1
    67   22   71 1
    68   22   72 1
    69   23   25 1
    70   23   27 1
    71   23   73 1
    72   24   26 1
    73   24   28 1
    74   24   74 1
    75   27   29 1
    76   28   30 1
