@<TRIPOS>MOLECULE
*****
   56    59     0     0     0
SMALL
NO_CHARGES

@<TRIPOS>ATOM
      1 C1          1.5672   -4.3425   -0.2916 C.ar      1 <0>         0.0000
      2 C2          2.0792   -3.2898    1.8265 C.ar      1 <0>         0.0000
      3 C3          1.2117    5.2820   -3.7046 C.ar      1 <0>         0.0000
      4 C4          2.0127    4.2552   -4.2294 C.ar      1 <0>         0.0000
      5 C5          0.7819   -5.2937    0.3618 C.ar      1 <0>         0.0000
      6 C6          1.2991   -4.2284    2.4962 C.ar      1 <0>         0.0000
      7 C7          0.1685    3.5536   -5.6578 C.ar      1 <0>         0.0000
      8 C8          2.2251   -3.3308    0.4283 C.ar      1 <0>         0.0000
      9 C9         -0.0942    5.4470   -4.1536 C.ar      1 <0>         0.0000
     10 C10        -0.6082    4.5785   -5.1321 C.ar      1 <0>         0.0000
     11 C11         1.4899    3.3915   -5.2039 C.ar      1 <0>         0.0000
     12 C12         0.6632   -5.2165    1.7462 C.ar      1 <0>         0.0000
     13 C13         3.0842   -2.2840   -0.2190 C.2       1 <0>         0.0000
     14 C14        -1.1466    6.4531   -3.7327 C.3       1 <0>         0.0000
     15 C15        -2.0475    4.9345   -5.4448 C.3       1 <0>         0.0000
     16 C16        -2.1813    6.3728   -4.8838 C.3       1 <0>         0.0000
     17 C17         4.3827   -1.4414   -2.2283 C.3       1 <0>         0.0000
     18 C18         1.8771   -1.5450   -2.2961 C.3       1 <0>         0.0000
     19 C19         4.3665   -1.3100   -3.7515 C.3       1 <0>         0.0000
     20 C20         1.9587   -1.4112   -3.8173 C.3       1 <0>         0.0000
     21 C21         3.1542   -2.2149   -1.7394 C.3       1 <0>         0.0000
     22 C22         4.0105    0.8444   -6.0166 C.3       1 <0>         0.0000
     23 C23         3.1661   -0.3851   -5.6571 C.3       1 <0>         0.0000
     24 C24         3.5223    2.1066   -5.3209 C.3       1 <0>         0.0000
     25 N1          3.1435   -0.6554   -4.2184 N.3       1 <0>         0.0000
     26 O1          3.6899   -1.4736    0.4753 O.2       1 <0>         0.0000
     27 O2          2.1913    2.3649   -5.7811 O.3       1 <0>         0.0000
     28 F1         -0.0973   -6.1355    2.3879 F         1 <0>         0.0000
     29 H1          1.6612   -4.4046   -1.3703 H         1 <0>         0.0000
     30 H2          2.5923   -2.5052    2.3731 H         1 <0>         0.0000
     31 H3          1.6279    5.9468   -2.9505 H         1 <0>         0.0000
     32 H4          3.0321    4.1441   -3.8789 H         1 <0>         0.0000
     33 H5          0.2693   -6.0825   -0.1799 H         1 <0>         0.0000
     34 H6          1.1768   -4.2086    3.5748 H         1 <0>         0.0000
     35 H7         -0.2101    2.8746   -6.4178 H         1 <0>         0.0000
     36 H8         -1.6023    6.1528   -2.7789 H         1 <0>         0.0000
     37 H9         -0.7482    7.4634   -3.5933 H         1 <0>         0.0000
     38 H10        -2.2861    4.8690   -6.5113 H         1 <0>         0.0000
     39 H11        -2.7251    4.2466   -4.9205 H         1 <0>         0.0000
     40 H12        -3.1989    6.6110   -4.5608 H         1 <0>         0.0000
     41 H13        -1.9048    7.0891   -5.6653 H         1 <0>         0.0000
     42 H14         5.3001   -1.9484   -1.9104 H         1 <0>         0.0000
     43 H15         4.3888   -0.4480   -1.7725 H         1 <0>         0.0000
     44 H16         1.7789   -0.5473   -1.8543 H         1 <0>         0.0000
     45 H17         0.9824   -2.1152   -2.0258 H         1 <0>         0.0000
     46 H18         5.2295   -0.7182   -4.0702 H         1 <0>         0.0000
     47 H19         4.4775   -2.3120   -4.2159 H         1 <0>         0.0000
     48 H20         1.9477   -2.4226   -4.2747 H         1 <0>         0.0000
     49 H21         1.0730   -0.8816   -4.1824 H         1 <0>         0.0000
     50 H22         3.2033   -3.2347   -2.1425 H         1 <0>         0.0000
     51 H23         5.0624    0.6919   -5.7499 H         1 <0>         0.0000
     52 H24         3.9780    0.9896   -7.1025 H         1 <0>         0.0000
     53 H25         2.1394   -0.1919   -5.9790 H         1 <0>         0.0000
     54 H26         3.5236   -1.2612   -6.2299 H         1 <0>         0.0000
     55 H27         3.5169    1.9538   -4.2359 H         1 <0>         0.0000
     56 H28         4.1702    2.9602   -5.5619 H         1 <0>         0.0000
@<TRIPOS>BOND
     1    1    5 ar
     2    1    8 ar
     3    1   29 1
     4    2    6 ar
     5    2    8 ar
     6    2   30 1
     7    3    4 ar
     8    3    9 ar
     9    3   31 1
    10    4   11 ar
    11    4   32 1
    12    5   12 ar
    13    5   33 1
    14    6   12 ar
    15    6   34 1
    16    7   10 ar
    17    7   11 ar
    18    7   35 1
    19    8   13 1
    20    9   10 ar
    21    9   14 1
    22   10   15 1
    23   11   27 1
    24   12   28 1
    25   13   21 1
    26   13   26 2
    27   14   16 1
    28   14   36 1
    29   14   37 1
    30   15   16 1
    31   15   38 1
    32   15   39 1
    33   16   40 1
    34   16   41 1
    35   17   19 1
    36   17   21 1
    37   17   42 1
    38   17   43 1
    39   18   20 1
    40   18   21 1
    41   18   44 1
    42   18   45 1
    43   19   25 1
    44   19   46 1
    45   19   47 1
    46   20   25 1
    47   20   48 1
    48   20   49 1
    49   21   50 1
    50   22   23 1
    51   22   24 1
    52   22   51 1
    53   22   52 1
    54   23   25 1
    55   23   53 1
    56   23   54 1
    57   24   27 1
    58   24   55 1
    59   24   56 1
