@<TRIPOS>MOLECULE
*****
   28    29     0     0     0
SMALL
NO_CHARGES

@<TRIPOS>ATOM
      1 C1          3.0402   -1.9708    6.3409 C.ar      1 <0>         0.0000
      2 C2          3.5808   -0.7264    6.6646 C.ar      1 <0>         0.0000
      3 C3          3.1732   -2.4736    5.0466 C.ar      1 <0>         0.0000
      4 C4          4.2543    0.0153    5.6940 C.ar      1 <0>         0.0000
      5 C5          3.8466   -1.7320    4.0760 C.ar      1 <0>         0.0000
      6 C6          4.3872   -0.4875    4.3997 C.ar      1 <0>         0.0000
      7 C7          3.1049   -2.0420    1.7589 C.2       1 <0>         0.0000
      8 C8          1.8946   -1.1882    1.9159 C.2       1 <0>         0.0000
      9 C9          1.7191   -1.8084   -0.2165 C.2       1 <0>         0.0000
     10 C10         3.9722   -2.2791    2.7317 C.2       1 <0>         0.0000
     11 C11         4.8520    1.9080    1.7465 C.3       1 <0>         0.0000
     12 C12         4.5179    1.5491    3.1787 C.3       1 <0>         0.0000
     13 N1          1.1757   -1.1211    0.7346 N.2       1 <0>         0.0000
     14 O1          1.5966   -0.6289    2.9625 O.2       1 <0>         0.0000
     15 O2          5.0494    0.2588    3.4702 O.3       1 <0>         0.0000
     16 S1          3.1925   -2.6531    0.1568 S.3       1 <0>         0.0000
     17 S2          1.0565   -1.9199   -1.8117 S.3       1 <0>         0.0000
     18 H1          2.5146   -2.5472    7.0966 H         1 <0>         0.0000
     19 H2          3.4765   -0.3357    7.6724 H         1 <0>         0.0000
     20 H3          2.7447   -3.4449    4.8110 H         1 <0>         0.0000
     21 H4          4.6735    0.9837    5.9536 H         1 <0>         0.0000
     22 H5          4.8393   -2.8850    2.5317 H         1 <0>         0.0000
     23 H6          5.9344    1.9337    1.5930 H         1 <0>         0.0000
     24 H7          4.4139    1.1816    1.0542 H         1 <0>         0.0000
     25 H8          4.4351    2.8867    1.4867 H         1 <0>         0.0000
     26 H9          3.4339    1.5251    3.3254 H         1 <0>         0.0000
     27 H10         4.9570    2.2754    3.8691 H         1 <0>         0.0000
     28 H11         1.9939   -2.7206   -2.3353 H         1 <0>         0.0000
@<TRIPOS>BOND
     1    1    2 ar
     2    1    3 ar
     3    1   18 1
     4    2    4 ar
     5    2   19 1
     6    3    5 ar
     7    3   20 1
     8    4    6 ar
     9    4   21 1
    10    5    6 ar
    11    5   10 1
    12    6   15 1
    13    7    8 1
    14    7   10 2
    15    7   16 1
    16    8   13 1
    17    8   14 2
    18    9   13 2
    19    9   16 1
    20    9   17 1
    21   10   22 1
    22   11   12 1
    23   11   23 1
    24   11   24 1
    25   11   25 1
    26   12   15 1
    27   12   26 1
    28   12   27 1
    29   17   28 1
