@<TRIPOS>MOLECULE
*****
   53    57     0     0     0
SMALL
NO_CHARGES

@<TRIPOS>ATOM
      1 C1         -1.4938    0.9116   -4.0998 C.ar      1 <0>         0.0000
      2 C2         -1.3126    0.4150   -2.8025 C.ar      1 <0>         0.0000
      3 C3         -8.8769   -6.5513   -5.3083 C.ar      1 <0>         0.0000
      4 C4         -9.0980   -7.4580   -3.0757 C.ar      1 <0>         0.0000
      5 C5         -1.9666    0.0668   -5.1029 C.ar      1 <0>         0.0000
      6 C6         -1.6108   -0.9195   -2.5344 C.ar      1 <0>         0.0000
      7 C7         -9.6369   -7.6053   -5.8157 C.ar      1 <0>         0.0000
      8 C8         -9.8567   -8.5152   -3.5727 C.ar      1 <0>         0.0000
      9 C9         -8.6038   -6.4597   -3.9340 C.ar      1 <0>         0.0000
     10 C10        -2.2682   -1.2803   -4.8436 C.ar      1 <0>         0.0000
     11 C11        -2.0840   -1.7749   -3.5413 C.ar      1 <0>         0.0000
     12 C12       -10.1263   -8.5784   -4.9427 C.ar      1 <0>         0.0000
     13 C13        -7.7835   -5.3849   -3.3644 C.2       1 <0>         0.0000
     14 C14        -6.7878   -3.3922   -3.0156 C.2       1 <0>         0.0000
     15 C15        -4.0071   -4.2223   -1.5694 C.2       1 <0>         0.0000
     16 C16        -2.7498   -2.1699   -5.9755 C.3       1 <0>         0.0000
     17 C17        -3.4019   -3.4681   -5.4890 C.3       1 <0>         0.0000
     18 C18        -2.5309   -4.1201   -4.4128 C.3       1 <0>         0.0000
     19 C19        -9.1676   -2.1781   -4.6015 C.3       1 <0>         0.0000
     20 C20        -9.9122   -3.4554   -4.9021 C.3       1 <0>         0.0000
     21 C21        -2.4265   -3.2106   -3.1794 C.3       1 <0>         0.0000
     22 C22        -8.3996   -3.4387   -4.9116 C.3       1 <0>         0.0000
     23 C23        -5.4479   -4.1526   -1.0293 C.3       1 <0>         0.0000
     24 N1         -7.0300   -5.5565   -2.3062 N.2       1 <0>         0.0000
     25 N2         -7.6901   -4.0777   -3.8376 N.am      1 <0>         0.0000
     26 N3         -6.4397   -4.3338   -2.0775 N.am      1 <0>         0.0000
     27 N4         -3.6851   -3.2136   -2.4202 N.am      1 <0>         0.0000
     28 O1         -6.3935   -2.2265   -3.1120 O.2       1 <0>         0.0000
     29 O2         -3.2401   -5.1258   -1.2381 O.2       1 <0>         0.0000
     30 Cl1       -11.0906   -9.8992   -5.5743 Cl        1 <0>         0.0000
     31 H1         -1.2696    1.9514   -4.3245 H         1 <0>         0.0000
     32 H2         -0.9440    1.0635   -2.0119 H         1 <0>         0.0000
     33 H3         -8.4836   -5.8130   -5.9974 H         1 <0>         0.0000
     34 H4         -8.8811   -7.3970   -2.0142 H         1 <0>         0.0000
     35 H5         -2.1101    0.4551   -6.1097 H         1 <0>         0.0000
     36 H6         -1.4814   -1.3145   -1.5288 H         1 <0>         0.0000
     37 H7         -9.8416   -7.6752   -6.8792 H         1 <0>         0.0000
     38 H8        -10.2405   -9.2808   -2.9061 H         1 <0>         0.0000
     39 H9         -3.4407   -1.6063   -6.6126 H         1 <0>         0.0000
     40 H10        -1.8868   -2.4210   -6.6081 H         1 <0>         0.0000
     41 H11        -4.3957   -3.2530   -5.0766 H         1 <0>         0.0000
     42 H12        -3.5480   -4.1515   -6.3327 H         1 <0>         0.0000
     43 H13        -2.9283   -5.0898   -4.1004 H         1 <0>         0.0000
     44 H14        -1.5224   -4.2950   -4.8094 H         1 <0>         0.0000
     45 H15        -9.1421   -1.3933   -5.3501 H         1 <0>         0.0000
     46 H16        -9.1402   -1.8275   -3.5762 H         1 <0>         0.0000
     47 H17       -10.3938   -3.9705   -4.0774 H         1 <0>         0.0000
     48 H18       -10.4128   -3.5654   -5.8590 H         1 <0>         0.0000
     49 H19        -1.6650   -3.6119   -2.5059 H         1 <0>         0.0000
     50 H20        -7.8925   -3.4875   -5.8718 H         1 <0>         0.0000
     51 H21        -5.5821   -4.9548   -0.3064 H         1 <0>         0.0000
     52 H22        -5.6311   -3.1854   -0.5515 H         1 <0>         0.0000
     53 H23        -4.4069   -2.5401   -2.6732 H         1 <0>         0.0000
@<TRIPOS>BOND
     1    1    2 ar
     2    1    5 ar
     3    1   31 1
     4    2    6 ar
     5    2   32 1
     6    3    7 ar
     7    3    9 ar
     8    3   33 1
     9    4    8 ar
    10    4    9 ar
    11    4   34 1
    12    5   10 ar
    13    5   35 1
    14    6   11 ar
    15    6   36 1
    16    7   12 ar
    17    7   37 1
    18    8   12 ar
    19    8   38 1
    20    9   13 1
    21   10   11 ar
    22   10   16 1
    23   11   21 1
    24   12   30 1
    25   13   24 2
    26   13   25 1
    27   14   25 am
    28   14   26 am
    29   14   28 2
    30   15   23 1
    31   15   27 am
    32   15   29 2
    33   16   17 1
    34   16   39 1
    35   16   40 1
    36   17   18 1
    37   17   41 1
    38   17   42 1
    39   18   21 1
    40   18   43 1
    41   18   44 1
    42   19   20 1
    43   19   22 1
    44   19   45 1
    45   19   46 1
    46   20   22 1
    47   20   47 1
    48   20   48 1
    49   21   27 1
    50   21   49 1
    51   22   25 1
    52   22   50 1
    53   23   26 1
    54   23   51 1
    55   23   52 1
    56   24   26 1
    57   27   53 1
