@<TRIPOS>MOLECULE
*****
   30    31     0     0     0
SMALL
NO_CHARGES

@<TRIPOS>ATOM
      1 C1         -2.6390   -2.3150   -0.4560 C.ar      1 <0>         0.0000
      2 C2         -2.4010   -1.2760    0.4420 C.ar      1 <0>         0.0000
      3 C3         -1.5850   -2.8600   -1.1870 C.ar      1 <0>         0.0000
      4 C4          7.4170   -1.3150   -0.6930 C.ar      1 <0>         0.0000
      5 C5          6.8120   -2.1750    0.2170 C.ar      1 <0>         0.0000
      6 C6         -1.1120   -0.7810    0.6140 C.ar      1 <0>         0.0000
      7 C7         -0.2930   -2.3700   -1.0240 C.ar      1 <0>         0.0000
      8 C8          6.6840   -0.2710   -1.2470 C.ar      1 <0>         0.0000
      9 C9          5.4800   -1.9670    0.5440 C.ar      1 <0>         0.0000
     10 C10        -0.0590   -1.3330   -0.1170 C.ar      1 <0>         0.0000
     11 C11         4.8100   -0.9060   -0.0990 C.ar      1 <0>         0.0000
     12 C12         2.4320   -1.4120   -0.0760 C.2       1 <0>         0.0000
     13 C13         4.8320   -2.8750    1.5760 C.3       1 <0>         0.0000
     14 N1          5.4040   -0.0690   -0.9470 N.ar      1 <0>         0.0000
     15 N2          1.2280   -0.7800    0.0820 N.am      1 <0>         0.0000
     16 N3          3.4850   -0.5650    0.0950 N.am      1 <0>         0.0000
     17 O1          2.5550   -2.6000   -0.3290 O.2       1 <0>         0.0000
     18 H1         -3.6210   -2.6920   -0.5830 H         1 <0>         0.0000
     19 H2         -3.2060   -0.8650    0.9960 H         1 <0>         0.0000
     20 H3         -1.7670   -3.6490   -1.8710 H         1 <0>         0.0000
     21 H4          8.4320   -1.4500   -0.9600 H         1 <0>         0.0000
     22 H5          7.3640   -2.9680    0.6540 H         1 <0>         0.0000
     23 H6         -0.9330    0.0050    1.2990 H         1 <0>         0.0000
     24 H7          0.5020   -2.7810   -1.5910 H         1 <0>         0.0000
     25 H8          7.1440    0.3950   -1.9340 H         1 <0>         0.0000
     26 H9          5.5870   -3.1870    2.2960 H         1 <0>         0.0000
     27 H10         4.4270   -3.7440    1.0560 H         1 <0>         0.0000
     28 H11         4.0380   -2.3340    2.0910 H         1 <0>         0.0000
     29 H12         1.2730    0.1680    0.4630 H         1 <0>         0.0000
     30 H13         3.2960    0.4290   -0.0320 H         1 <0>         0.0000
@<TRIPOS>BOND
     1    1    2 ar
     2    1    3 ar
     3    1   18 1
     4    2    6 ar
     5    2   19 1
     6    3    7 ar
     7    3   20 1
     8    4    5 ar
     9    4    8 ar
    10    4   21 1
    11    5    9 ar
    12    5   22 1
    13    6   10 ar
    14    6   23 1
    15    7   10 ar
    16    7   24 1
    17    8   14 ar
    18    8   25 1
    19    9   11 ar
    20    9   13 1
    21   10   15 1
    22   11   14 ar
    23   11   16 1
    24   12   15 am
    25   12   16 am
    26   12   17 2
    27   13   26 1
    28   13   27 1
    29   13   28 1
    30   15   29 1
    31   16   30 1
