@<TRIPOS>MOLECULE
*****
   29    31     0     0     0
SMALL
NO_CHARGES

@<TRIPOS>ATOM
      1 C1          1.6130   -0.7998    0.0661 C.ar      1 <0>         0.0000
      2 C2          0.2550   -0.9764   -0.2326 C.ar      1 <0>         0.0000
      3 C3          2.4902   -1.8924    0.0655 C.ar      1 <0>         0.0000
      4 C4         -0.2432   -2.2489   -0.5386 C.ar      1 <0>         0.0000
      5 C5          1.9920   -3.1608   -0.2347 C.ar      1 <0>         0.0000
      6 C6          0.6340   -3.3341   -0.5348 C.ar      1 <0>         0.0000
      7 C7         -0.8016   -4.4891   -3.0584 C.2       1 <0>         0.0000
      8 C8          2.7281   -4.4836   -0.3112 C.3       1 <0>         0.0000
      9 C9          1.5781   -5.5228   -0.3150 C.3       1 <0>         0.0000
     10 C10        -2.1667   -3.7855   -4.6383 C.3       1 <0>         0.0000
     11 C11        -2.9374   -3.8349   -3.2946 C.3       1 <0>         0.0000
     12 C12         0.3460   -4.7847   -0.8894 C.3       1 <0>         0.0000
     13 N1         -0.7776   -4.1017   -4.2805 N.2       1 <0>         0.0000
     14 N2          0.2535   -5.0066   -2.3485 N.pl3     1 <0>         0.0000
     15 O1         -1.9961   -4.4555   -2.3777 O.3       1 <0>         0.0000
     16 H1          1.9868    0.1927    0.3051 H         1 <0>         0.0000
     17 H2         -0.4145   -0.1199   -0.2219 H         1 <0>         0.0000
     18 H3          3.5423   -1.7495    0.3031 H         1 <0>         0.0000
     19 H4         -1.2954   -2.3933   -0.7693 H         1 <0>         0.0000
     20 H5          3.3255   -4.5376   -1.2312 H         1 <0>         0.0000
     21 H6          3.4215   -4.6327    0.5223 H         1 <0>         0.0000
     22 H7          1.8061   -6.4314   -0.8781 H         1 <0>         0.0000
     23 H8          1.3566   -5.8149    0.7158 H         1 <0>         0.0000
     24 H9         -2.5498   -4.5209   -5.3573 H         1 <0>         0.0000
     25 H10        -2.2285   -2.7996   -5.1102 H         1 <0>         0.0000
     26 H11        -3.1795   -2.8409   -2.9043 H         1 <0>         0.0000
     27 H12        -3.8407   -4.4481   -3.3128 H         1 <0>         0.0000
     28 H13        -0.5876   -5.1467   -0.4578 H         1 <0>         0.0000
     29 H14         1.1210   -4.8451   -2.8511 H         1 <0>         0.0000
@<TRIPOS>BOND
     1    1    2 ar
     2    1    3 ar
     3    1   16 1
     4    2    4 ar
     5    2   17 1
     6    3    5 ar
     7    3   18 1
     8    4    6 ar
     9    4   19 1
    10    5    6 ar
    11    5    8 1
    12    6   12 1
    13    7   13 2
    14    7   14 1
    15    7   15 1
    16    8    9 1
    17    8   20 1
    18    8   21 1
    19    9   12 1
    20    9   22 1
    21    9   23 1
    22   10   11 1
    23   10   13 1
    24   10   24 1
    25   10   25 1
    26   11   15 1
    27   11   26 1
    28   11   27 1
    29   12   14 1
    30   12   28 1
    31   14   29 1
