@<TRIPOS>MOLECULE
*****
   52    56     0     0     0
SMALL
NO_CHARGES

@<TRIPOS>ATOM
      1 C1         -8.2306   -3.0619    8.2924 C.ar      1 <0>         0.0000
      2 C2         -7.5872   -0.8913    7.4491 C.ar      1 <0>         0.0000
      3 C3         -5.6815   -4.0312    7.2971 C.ar      1 <0>         0.0000
      4 C4         -9.2860   -2.4772    8.9923 C.ar      1 <0>         0.0000
      5 C5         -8.6426   -0.3065    8.1489 C.ar      1 <0>         0.0000
      6 C6         -4.6218   -4.6470    6.6243 C.ar      1 <0>         0.0000
      7 C7         -5.8485   -2.2943    5.5964 C.ar      1 <0>         0.0000
      8 C8         -4.0733   -2.6311    3.7031 C.2       1 <0>         0.0000
      9 C9         -4.7843   -2.8969    4.9030 C.ar      1 <0>         0.0000
     10 C10        -7.3812   -2.2690    7.5208 C.ar      1 <0>         0.0000
     11 C11        -6.2855   -2.8760    6.7944 C.ar      1 <0>         0.0000
     12 C12        -9.4920   -1.0995    8.9205 C.ar      1 <0>         0.0000
     13 C13        -4.2096   -4.0461    5.4364 C.ar      1 <0>         0.0000
     14 C14        -3.1260   -3.6218    3.5861 C.2       1 <0>         0.0000
     15 C15        -2.0937   -3.8751    2.5482 C.2       1 <0>         0.0000
     16 C16         2.0978   -4.9942    1.0798 C.3       1 <0>         0.0000
     17 C17         1.6642   -5.3253    3.4933 C.3       1 <0>         0.0000
     18 C18         2.1778   -6.5184    0.8889 C.3       1 <0>         0.0000
     19 C19         1.8775   -6.8289    3.2553 C.3       1 <0>         0.0000
     20 C20        -0.0285   -6.8807    1.7959 C.3       1 <0>         0.0000
     21 C21         1.1075   -4.6772    2.2132 C.3       1 <0>         0.0000
     22 C22        -0.2286   -5.3523    1.8442 C.3       1 <0>         0.0000
     23 C23       -10.6203   -0.4743    9.6690 C.3       1 <0>         0.0000
     24 N1          1.4022   -7.2457    1.9180 N.3       1 <0>         0.0000
     25 N2         -1.2906   -4.9882    2.7500 N.am      1 <0>         0.0000
     26 O1         -1.9912   -3.0989    1.6018 O.2       1 <0>         0.0000
     27 O2         -3.2003   -4.4850    4.6326 O.3       1 <0>         0.0000
     28 O3        -10.1115    0.2028   10.8117 O.3       1 <0>         0.0000
     29 H1         -8.0827   -4.1372    8.3589 H         1 <0>         0.0000
     30 H2         -6.9341   -0.2598    6.8514 H         1 <0>         0.0000
     31 H3         -6.0306   -4.4730    8.2286 H         1 <0>         0.0000
     32 H4         -9.9422   -3.1026    9.5918 H         1 <0>         0.0000
     33 H5         -8.7962    0.7677    8.0869 H         1 <0>         0.0000
     34 H6         -4.1477   -5.5422    7.0087 H         1 <0>         0.0000
     35 H7         -6.3182   -1.3964    5.2037 H         1 <0>         0.0000
     36 H8         -4.2355   -1.8154    3.0119 H         1 <0>         0.0000
     37 H9          3.0888   -4.5922    1.3224 H         1 <0>         0.0000
     38 H10         1.7732   -4.5182    0.1471 H         1 <0>         0.0000
     39 H11         0.9741   -5.1704    4.3308 H         1 <0>         0.0000
     40 H12         2.6157   -4.8551    3.7690 H         1 <0>         0.0000
     41 H13         1.8132   -6.7921   -0.1091 H         1 <0>         0.0000
     42 H14         3.2259   -6.8415    0.9176 H         1 <0>         0.0000
     43 H15         2.9404   -7.0789    3.3643 H         1 <0>         0.0000
     44 H16         1.3600   -7.4067    4.0313 H         1 <0>         0.0000
     45 H17        -0.5966   -7.3887    2.5863 H         1 <0>         0.0000
     46 H18        -0.4274   -7.2751    0.8525 H         1 <0>         0.0000
     47 H19         0.9961   -3.5942    2.3326 H         1 <0>         0.0000
     48 H20        -0.5490   -4.9981    0.8565 H         1 <0>         0.0000
     49 H21       -11.1631    0.2492    9.0453 H         1 <0>         0.0000
     50 H22       -11.3444   -1.2311   10.0005 H         1 <0>         0.0000
     51 H23        -1.3954   -5.5478    3.5915 H         1 <0>         0.0000
     52 H24       -10.8744    0.5930   11.2676 H         1 <0>         0.0000
@<TRIPOS>BOND
     1    1    4 ar
     2    1   10 ar
     3    1   29 1
     4    2    5 ar
     5    2   10 ar
     6    2   30 1
     7    3    6 ar
     8    3   11 ar
     9    3   31 1
    10    4   12 ar
    11    4   32 1
    12    5   12 ar
    13    5   33 1
    14    6   13 ar
    15    6   34 1
    16    7    9 ar
    17    7   11 ar
    18    7   35 1
    19    8    9 1
    20    8   14 2
    21    8   36 1
    22    9   13 ar
    23   10   11 1
    24   12   23 1
    25   13   27 1
    26   14   15 1
    27   14   27 1
    28   15   25 am
    29   15   26 2
    30   16   18 1
    31   16   21 1
    32   16   37 1
    33   16   38 1
    34   17   19 1
    35   17   21 1
    36   17   39 1
    37   17   40 1
    38   18   24 1
    39   18   41 1
    40   18   42 1
    41   19   24 1
    42   19   43 1
    43   19   44 1
    44   20   22 1
    45   20   24 1
    46   20   45 1
    47   20   46 1
    48   21   22 1
    49   21   47 1
    50   22   25 1
    51   22   48 1
    52   23   28 1
    53   23   49 1
    54   23   50 1
    55   25   51 1
    56   28   52 1
