@<TRIPOS>MOLECULE
*****
   54    58     0     0     0
SMALL
NO_CHARGES

@<TRIPOS>ATOM
      1 C1         -3.2791    1.4303    3.0987 C.2       1 <0>         0.0000
      2 C2         -3.4276    2.4485    4.0873 C.2       1 <0>         0.0000
      3 C3         -2.6766    3.5662    3.7936 C.2       1 <0>         0.0000
      4 C4         -3.9008    0.1289    3.0592 C.2       1 <0>         0.0000
      5 C5         -2.4242    1.8166    2.1000 C.2       1 <0>         0.0000
      6 C6         -2.6383   -0.2429    0.8796 C.2       1 <0>         0.0000
      7 C7         -0.3529    5.9615    5.1338 C.2       1 <0>         0.0000
      8 C8          2.2021    0.6160    0.3195 C.3       1 <0>         0.0000
      9 C9          0.8506    0.1543    0.9030 C.3       1 <0>         0.0000
     10 C10         1.4030    1.5790   -0.5828 C.3       1 <0>         0.0000
     11 C11        -3.2517   -3.1837    1.5914 C.3       1 <0>         0.0000
     12 C12         0.4703    4.4277    6.7234 C.3       1 <0>         0.0000
     13 C13        -0.9212    3.9855    6.2965 C.3       1 <0>         0.0000
     14 C14         0.2842    1.5378    0.4905 C.3       1 <0>         0.0000
     15 C15        -3.9977   -3.0115    2.8844 C.3       1 <0>         0.0000
     16 C16        -4.1197   -1.9697    1.7999 C.3       1 <0>         0.0000
     17 C17        -4.2840    2.3380    5.2952 C.3       1 <0>         0.0000
     18 C18        -3.2514   -2.7450    4.1468 C.3       1 <0>         0.0000
     19 C19        -2.5508    4.8306    4.5525 C.3       1 <0>         0.0000
     20 C20        -1.1431    1.5627   -0.0153 C.3       1 <0>         0.0000
     21 N1         -3.5362   -0.6329    1.9234 N.am      1 <0>         0.0000
     22 N2         -2.0697    1.0510    0.9940 N.am      1 <0>         0.0000
     23 N3          0.6876    5.6730    6.0321 N.am      1 <0>         0.0000
     24 N4         -1.2984    4.9318    5.2668 N.am      1 <0>         0.0000
     25 O1         -4.6626   -0.2533    3.9435 O.2       1 <0>         0.0000
     26 O2         -2.3755   -0.9996   -0.0630 O.2       1 <0>         0.0000
     27 O3         -0.4076    6.9305    4.3882 O.2       1 <0>         0.0000
     28 S1         -1.8013    3.3792    2.3343 S.3       1 <0>         0.0000
     29 H1          2.7838   -0.1501   -0.1987 H         1 <0>         0.0000
     30 H2          2.8458    1.1248    1.0462 H         1 <0>         0.0000
     31 H3          0.4112   -0.6960    0.3684 H         1 <0>         0.0000
     32 H4          0.8465   -0.0593    1.9749 H         1 <0>         0.0000
     33 H5          1.8618    2.5564   -0.7534 H         1 <0>         0.0000
     34 H6          1.1238    1.1429   -1.5492 H         1 <0>         0.0000
     35 H7         -2.1761   -3.0532    1.5929 H         1 <0>         0.0000
     36 H8         -3.6051   -3.9426    0.9035 H         1 <0>         0.0000
     37 H9          0.5449    4.5996    7.8005 H         1 <0>         0.0000
     38 H10         1.2429    3.7215    6.4062 H         1 <0>         0.0000
     39 H11        -0.9236    2.9733    5.8817 H         1 <0>         0.0000
     40 H12        -1.6409    4.0566    7.1179 H         1 <0>         0.0000
     41 H13         0.4264    2.2963    1.2703 H         1 <0>         0.0000
     42 H14        -4.8577   -3.6486    3.0566 H         1 <0>         0.0000
     43 H15        -5.0588   -1.9491    1.2564 H         1 <0>         0.0000
     44 H16        -3.7168    1.9147    6.1363 H         1 <0>         0.0000
     45 H17        -4.6757    3.3182    5.6051 H         1 <0>         0.0000
     46 H18        -5.1587    1.6955    5.1141 H         1 <0>         0.0000
     47 H19        -2.3771   -2.0975    3.9725 H         1 <0>         0.0000
     48 H20        -2.8817   -3.6767    4.6042 H         1 <0>         0.0000
     49 H21        -3.8856   -2.2429    4.8949 H         1 <0>         0.0000
     50 H22        -2.6155    5.7110    3.8910 H         1 <0>         0.0000
     51 H23        -3.3540    4.9473    5.2992 H         1 <0>         0.0000
     52 H24        -1.4182    2.5986   -0.2630 H         1 <0>         0.0000
     53 H25        -1.2150    0.9384   -0.9181 H         1 <0>         0.0000
     54 H26         1.5142    6.2518    6.1419 H         1 <0>         0.0000
@<TRIPOS>BOND
     1    1    2 1
     2    1    5 2
     3    1    4 1
     4    2    3 2
     5    2   17 1
     6    3   19 1
     7    3   28 1
     8    4   21 am
     9    4   25 2
    10    5   22 1
    11    5   28 1
    12    6   22 am
    13    6   21 am
    14    6   26 2
    15    7   23 am
    16    7   24 am
    17    7   27 2
    18    8   10 1
    19    8    9 1
    20    8   29 1
    21    8   30 1
    22    9   14 1
    23    9   31 1
    24    9   32 1
    25   10   14 1
    26   10   33 1
    27   10   34 1
    28   11   15 1
    29   11   16 1
    30   11   35 1
    31   11   36 1
    32   12   13 1
    33   12   23 1
    34   12   37 1
    35   12   38 1
    36   13   24 1
    37   13   39 1
    38   13   40 1
    39   14   20 1
    40   14   41 1
    41   15   16 1
    42   15   18 1
    43   15   42 1
    44   16   21 1
    45   16   43 1
    46   17   44 1
    47   17   45 1
    48   17   46 1
    49   18   47 1
    50   18   48 1
    51   18   49 1
    52   19   24 1
    53   19   50 1
    54   19   51 1
    55   20   22 1
    56   20   52 1
    57   20   53 1
    58   23   54 1
