@<TRIPOS>MOLECULE
*****
   23    24     0     0     0
SMALL
NO_CHARGES

@<TRIPOS>ATOM
      1 C1          3.3207   -0.2233   -3.0607 C.ar      1 <0>         0.0000
      2 C2          4.4447   -0.6055   -2.3284 C.ar      1 <0>         0.0000
      3 C3          2.3225    0.5420   -2.4576 C.ar      1 <0>         0.0000
      4 C4          4.5705   -0.2225   -0.9931 C.ar      1 <0>         0.0000
      5 C5          2.4483    0.9250   -1.1223 C.ar      1 <0>         0.0000
      6 C6          3.5722    0.5428   -0.3900 C.ar      1 <0>         0.0000
      7 C7          0.0441    0.9568   -0.5110 C.2       1 <0>         0.0000
      8 C8          1.2349    3.0860   -1.2338 C.2       1 <0>         0.0000
      9 C9         -1.0443    1.4466   -1.1284 C.2       1 <0>         0.0000
     10 C10         0.0756    3.4488   -1.8083 C.2       1 <0>         0.0000
     11 C11         1.3548    1.7436   -0.5121 C.3       1 <0>         0.0000
     12 N1         -1.0425    2.6567   -1.7724 N.pl3     1 <0>         0.0000
     13 Cl1         3.7627    0.9979    1.2640 Cl        1 <0>         0.0000
     14 H1          3.2234   -0.5209   -4.1008 H         1 <0>         0.0000
     15 H2          5.2223   -1.2003   -2.7986 H         1 <0>         0.0000
     16 H3          1.4510    0.8347   -3.0374 H         1 <0>         0.0000
     17 H4          5.4531   -0.5275   -0.4367 H         1 <0>         0.0000
     18 H5         -0.0003   -0.0003   -0.0004 H         1 <0>         0.0000
     19 H6          2.0954    3.7468   -1.2724 H         1 <0>         0.0000
     20 H7         -1.9925    0.9253   -1.1536 H         1 <0>         0.0000
     21 H8         -0.0555    4.3883   -2.3296 H         1 <0>         0.0000
     22 H9          1.6298    1.9436    0.5301 H         1 <0>         0.0000
     23 H10        -1.8918    2.9807   -2.2171 H         1 <0>         0.0000
@<TRIPOS>BOND
     1    1    2 ar
     2    1    3 ar
     3    1   14 1
     4    2    4 ar
     5    2   15 1
     6    3    5 ar
     7    3   16 1
     8    4    6 ar
     9    4   17 1
    10    5    6 ar
    11    5   11 1
    12    6   13 1
    13    7    9 2
    14    7   11 1
    15    7   18 1
    16    8   10 2
    17    8   11 1
    18    8   19 1
    19    9   12 1
    20    9   20 1
    21   10   12 1
    22   10   21 1
    23   11   22 1
    24   12   23 1
