@<TRIPOS>MOLECULE
*****
   19    19     0     0     0
SMALL
NO_CHARGES

@<TRIPOS>ATOM
      1 C1          1.8851   -1.0363   -0.1124 C.ar      1 <0>         0.0000
      2 C2          2.8783   -1.6520    2.0022 C.ar      1 <0>         0.0000
      3 C3          0.8066   -0.4630    0.5610 C.ar      1 <0>         0.0000
      4 C4          1.7997   -1.0786    2.6757 C.ar      1 <0>         0.0000
      5 C5          2.9210   -1.6309    0.6081 C.ar      1 <0>         0.0000
      6 C6          0.7638   -0.4841    1.9551 C.ar      1 <0>         0.0000
      7 N1         -1.6543   -1.0947    2.9130 N.pl3     1 <0>         0.0000
      8 N2          4.0181   -2.2155   -0.0776 N.pl3     1 <0>         0.0000
      9 O1          4.0366   -2.1867   -1.3321 O.3       1 <0>         0.0000
     10 O2          4.9396   -2.7457    0.5893 O.2       1 <0>         0.0000
     11 O3         -1.1887    1.2440    1.9381 O.2       1 <0>         0.0000
     12 O4         -0.1348    0.6055    4.1329 O.2       1 <0>         0.0000
     13 S1         -0.5863    0.2336    2.7981 S.o2      1 <0>         0.0000
     14 Cl1        -2.7800   -1.0593    4.2063 Cl        1 <0>         0.0000
     15 H1          1.9054   -1.0144   -1.1994 H         1 <0>         0.0000
     16 H2          3.6786   -2.1128    2.5762 H         1 <0>         0.0000
     17 H3          0.0049   -0.0026   -0.0100 H         1 <0>         0.0000
     18 H4          1.7760   -1.1014    3.7618 H         1 <0>         0.0000
     19 H5         -1.9868   -1.5410    2.0492 H         1 <0>         0.0000
@<TRIPOS>BOND
     1    1    3 ar
     2    1    5 ar
     3    1   15 1
     4    2    4 ar
     5    2    5 ar
     6    2   16 1
     7    3    6 ar
     8    3   17 1
     9    4    6 ar
    10    4   18 1
    11    5    8 1
    12    6   13 1
    13    7   13 1
    14    7   14 1
    15    7   19 1
    16    8    9 1
    17    8   10 2
    18   11   13 2
    19   12   13 2
