@<TRIPOS>MOLECULE
*****
   27    29     0     0     0
SMALL
NO_CHARGES

@<TRIPOS>ATOM
      1 C1          1.0442    2.2494   -1.2234 C.ar      1 <0>         0.0000
      2 C2          0.8324    1.4843   -0.0782 C.ar      1 <0>         0.0000
      3 C3         -1.7841   -0.7503    3.6327 C.2       1 <0>         0.0000
      4 C4          0.5013    1.8055   -2.4111 C.ar      1 <0>         0.0000
      5 C5          0.1611   -1.1351    4.6548 C.2       1 <0>         0.0000
      6 C6         -0.3796   -0.7129    3.4625 C.2       1 <0>         0.0000
      7 C7          0.1003    0.2929   -0.1383 C.ar      1 <0>         0.0000
      8 C8         -0.4018   -0.0606   -1.3986 C.ar      1 <0>         0.0000
      9 C9         -2.0017   -1.1930    4.9168 C.2       1 <0>         0.0000
     10 C10         0.3954   -0.3117    2.2727 C.2       1 <0>         0.0000
     11 C11        -1.1373   -1.6190    0.7614 C.3       1 <0>         0.0000
     12 C12        -0.9360   -2.1915   -0.6252 C.3       1 <0>         0.0000
     13 N1         -0.2211    0.6743   -2.5237 N.ar      1 <0>         0.0000
     14 N2         -0.1872   -0.5233    1.0100 N.am      1 <0>         0.0000
     15 O1          1.5005    0.1706    2.5119 O.2       1 <0>         0.0000
     16 O2         -0.8211   -1.4298    5.5465 O.3       1 <0>         0.0000
     17 O3         -1.1538   -1.1898   -1.6117 O.3       1 <0>         0.0000
     18 Br1        -3.7047   -1.4427    5.7105 Br        1 <0>         0.0000
     19 H1          1.6102    3.1730   -1.1782 H         1 <0>         0.0000
     20 H2          1.2433    1.8794    0.8422 H         1 <0>         0.0000
     21 H3         -2.5397   -0.4862    2.9054 H         1 <0>         0.0000
     22 H4          0.6322    2.3670   -3.3298 H         1 <0>         0.0000
     23 H5          1.1712   -1.2748    5.0127 H         1 <0>         0.0000
     24 H6         -2.1438   -1.1965    0.8706 H         1 <0>         0.0000
     25 H7         -1.0180   -2.4206    1.4958 H         1 <0>         0.0000
     26 H8          0.0633   -2.6283   -0.7494 H         1 <0>         0.0000
     27 H9         -1.6631   -2.9907   -0.8036 H         1 <0>         0.0000
@<TRIPOS>BOND
     1    1    2 ar
     2    1    4 ar
     3    1   19 1
     4    2    7 ar
     5    2   20 1
     6    3    6 1
     7    3    9 2
     8    3   21 1
     9    4   13 ar
    10    4   22 1
    11    5    6 2
    12    5   16 1
    13    5   23 1
    14    6   10 1
    15    7    8 ar
    16    7   14 1
    17    8   13 ar
    18    8   17 1
    19    9   16 1
    20    9   18 1
    21   10   14 am
    22   10   15 2
    23   11   12 1
    24   11   14 1
    25   11   24 1
    26   11   25 1
    27   12   17 1
    28   12   26 1
    29   12   27 1
