@<TRIPOS>MOLECULE
*****
   29    30     0     0     0
SMALL
NO_CHARGES

@<TRIPOS>ATOM
      1 C1          3.7557    3.3817    0.0525 C.ar      1 <0>         0.0000
      2 C2          6.0955    2.8889    1.2484 C.ar      1 <0>         0.0000
      3 C3          4.1721    2.0755    0.3299 C.ar      1 <0>         0.0000
      4 C4          5.6545    4.1966    0.9672 C.ar      1 <0>         0.0000
      5 C5          3.3557    0.8711   -0.0823 C.2       1 <0>         0.0000
      6 C6          0.3878   -0.8163    1.0558 C.3       1 <0>         0.0000
      7 C7         -0.3521    0.3205   -0.5688 C.3       1 <0>         0.0000
      8 C8          1.0753   -0.0717   -0.1179 C.3       1 <0>         0.0000
      9 C9         -2.1252   -0.5600    0.9534 C.3       1 <0>         0.0000
     10 C10        -2.6437   -1.8303    1.6097 C.3       1 <0>         0.0000
     11 N1          5.3547    1.8362    0.9226 N.ar      1 <0>         0.0000
     12 N2          4.5042    4.4490    0.3714 N.ar      1 <0>         0.0000
     13 N3         -0.8730   -0.7816    0.2719 N.3       1 <0>         0.0000
     14 N4          2.0082    0.9907    0.1691 N.am      1 <0>         0.0000
     15 O1          3.8669   -0.0972   -0.6277 O.2       1 <0>         0.0000
     16 F1         -3.8011   -1.5746    2.2731 F         1 <0>         0.0000
     17 F2         -2.8937   -2.8109    0.7192 F         1 <0>         0.0000
     18 F3         -1.7614   -2.3218    2.5185 F         1 <0>         0.0000
     19 Cl1         6.6632    5.5513    1.4170 Cl        1 <0>         0.0000
     20 H1          2.8170    3.5827   -0.4590 H         1 <0>         0.0000
     21 H2          7.0515    2.7112    1.7347 H         1 <0>         0.0000
     22 H3          0.7466   -1.8142    1.3170 H         1 <0>         0.0000
     23 H4          0.3439   -0.1929    1.9650 H         1 <0>         0.0000
     24 H5         -0.6302    1.3207   -0.1924 H         1 <0>         0.0000
     25 H6         -0.5994    0.2514   -1.6327 H         1 <0>         0.0000
     26 H7          1.5600   -0.7590   -0.8083 H         1 <0>         0.0000
     27 H8         -2.0709    0.2115    1.7427 H         1 <0>         0.0000
     28 H9         -2.8816   -0.2477    0.2275 H         1 <0>         0.0000
     29 H10         1.7066    1.7280    0.7947 H         1 <0>         0.0000
@<TRIPOS>BOND
     1    1    3 ar
     2    1   12 ar
     3    1   20 1
     4    2    4 ar
     5    2   11 ar
     6    2   21 1
     7    3    5 1
     8    3   11 ar
     9    4   12 ar
    10    4   19 1
    11    5   14 am
    12    5   15 2
    13    6    8 1
    14    6   13 1
    15    6   22 1
    16    6   23 1
    17    7    8 1
    18    7   13 1
    19    7   24 1
    20    7   25 1
    21    8   14 1
    22    8   26 1
    23    9   10 1
    24    9   13 1
    25    9   27 1
    26    9   28 1
    27   10   16 1
    28   10   17 1
    29   10   18 1
    30   14   29 1
