@<TRIPOS>MOLECULE
*****
   29    30     0     0     0
SMALL
NO_CHARGES

@<TRIPOS>ATOM
      1 C1          3.6465    3.6915   -0.0286 C.ar      1 <0>         0.0000
      2 C2          5.4489    4.5883    1.0386 C.ar      1 <0>         0.0000
      3 C3          4.0683    2.4032    0.3165 C.ar      1 <0>         0.0000
      4 C4          5.8624    3.2848    1.3755 C.ar      1 <0>         0.0000
      5 C5          3.3219    1.1662   -0.1360 C.2       1 <0>         0.0000
      6 C6          0.4119   -0.6673    0.7840 C.3       1 <0>         0.0000
      7 C7         -0.3577    0.5097   -0.7927 C.3       1 <0>         0.0000
      8 C8          1.0799    0.1606   -0.3458 C.3       1 <0>         0.0000
      9 C9         -2.0917   -0.5146    0.7203 C.3       1 <0>         0.0000
     10 C10        -3.2666   -0.6084   -0.2428 C.3       1 <0>         0.0000
     11 N1          4.3397    4.7836    0.3301 N.ar      1 <0>         0.0000
     12 N2          5.1962    2.2062    1.0199 N.ar      1 <0>         0.0000
     13 N3         -0.8414   -0.6508   -0.0062 N.3       1 <0>         0.0000
     14 N4          1.9576    1.2538   -0.0017 N.am      1 <0>         0.0000
     15 O1          3.9046    0.2033   -0.6160 O.2       1 <0>         0.0000
     16 F1         -4.4648   -0.4274    0.4657 F         1 <0>         0.0000
     17 Cl1         7.3278    3.0760    2.3090 Cl        1 <0>         0.0000
     18 H1          2.7521    3.8516   -0.6259 H         1 <0>         0.0000
     19 H2          6.0241    5.4586    1.3444 H         1 <0>         0.0000
     20 H3          0.8133   -1.6613    1.0025 H         1 <0>         0.0000
     21 H4          0.3408   -0.0842    1.7180 H         1 <0>         0.0000
     22 H5         -0.6897    1.4770   -0.3735 H         1 <0>         0.0000
     23 H6         -0.5834    0.4851   -1.8632 H         1 <0>         0.0000
     24 H7          1.6031   -0.4737   -1.0586 H         1 <0>         0.0000
     25 H8         -2.1627   -1.3281    1.4504 H         1 <0>         0.0000
     26 H9         -2.1537    0.4393    1.2775 H         1 <0>         0.0000
     27 H10        -3.3017   -1.5892   -0.7247 H         1 <0>         0.0000
     28 H11        -3.2214    0.1714   -1.0107 H         1 <0>         0.0000
     29 H12         1.5838    1.9938    0.5803 H         1 <0>         0.0000
@<TRIPOS>BOND
     1    1    3 ar
     2    1   11 ar
     3    1   18 1
     4    2    4 ar
     5    2   11 ar
     6    2   19 1
     7    3    5 1
     8    3   12 ar
     9    4   12 ar
    10    4   17 1
    11    5   14 am
    12    5   15 2
    13    6    8 1
    14    6   13 1
    15    6   20 1
    16    6   21 1
    17    7    8 1
    18    7   13 1
    19    7   22 1
    20    7   23 1
    21    8   14 1
    22    8   24 1
    23    9   10 1
    24    9   13 1
    25    9   25 1
    26    9   26 1
    27   10   16 1
    28   10   27 1
    29   10   28 1
    30   14   29 1
