@<TRIPOS>MOLECULE
*****
   30    31     0     0     0
SMALL
NO_CHARGES

@<TRIPOS>ATOM
      1 C1          0.5352    2.0831   -5.2329 C.ar      1 <0>         0.0000
      2 C2          1.8745    1.0531   -6.7693 C.ar      1 <0>         0.0000
      3 C3          0.7061    1.0029   -4.3680 C.ar      1 <0>         0.0000
      4 C4          2.0354   -0.0361   -5.8850 C.ar      1 <0>         0.0000
      5 C5          0.0391    0.9737   -3.0285 C.2       1 <0>         0.0000
      6 C6          0.3152   -1.1162    0.0769 C.3       1 <0>         0.0000
      7 C7         -0.5512    0.8475   -0.1069 C.3       1 <0>         0.0000
      8 C8         -0.4050   -0.3583   -1.0620 C.3       1 <0>         0.0000
      9 C9          0.7367    0.4434    2.1385 C.3       1 <0>         0.0000
     10 C10         0.9356   -0.6265    3.1998 C.3       1 <0>         0.0000
     11 N1          1.1275    2.1022   -6.4375 N.ar      1 <0>         0.0000
     12 N2          1.4595   -0.0630   -4.6979 N.ar      1 <0>         0.0000
     13 N3          0.3726   -0.1103   -2.2469 N.am      1 <0>         0.0000
     14 N4         -0.1818   -0.0692    1.0755 N.4       1 <0>         0.0000
     15 O1         -0.7283    1.8507   -2.6344 O.2       1 <0>         0.0000
     16 F1         -0.3370   -1.0494    3.6080 F         1 <0>         0.0000
     17 Cl1         3.0156   -1.3927   -6.3559 Cl        1 <0>         0.0000
     18 H1         -0.0810    2.9320   -4.9525 H         1 <0>         0.0000
     19 H2          2.3581    1.0559   -7.7429 H         1 <0>         0.0000
     20 H3         -0.0067   -2.1262    0.3281 H         1 <0>         0.0000
     21 H4          1.4019   -1.0531    0.0096 H         1 <0>         0.0000
     22 H5          0.2307    1.5946   -0.2267 H         1 <0>         0.0000
     23 H6         -1.5266    1.3152    0.0044 H         1 <0>         0.0000
     24 H7         -1.3820   -0.8006   -1.2891 H         1 <0>         0.0000
     25 H8          0.2623    1.3318    2.5632 H         1 <0>         0.0000
     26 H9          1.6821    0.7292    1.6719 H         1 <0>         0.0000
     27 H10         1.4657   -0.2186    4.0630 H         1 <0>         0.0000
     28 H11         1.4691   -1.5021    2.8193 H         1 <0>         0.0000
     29 H12         0.8505   -0.8737   -2.7217 H         1 <0>         0.0000
     30 H13        -1.0254   -0.4126    1.5480 H         1 <0>         0.0000
@<TRIPOS>BOND
     1    1    3 ar
     2    1   11 ar
     3    1   18 1
     4    2    4 ar
     5    2   11 ar
     6    2   19 1
     7    3    5 1
     8    3   12 ar
     9    4   12 ar
    10    4   17 1
    11    5   13 am
    12    5   15 2
    13    6    8 1
    14    6   14 1
    15    6   20 1
    16    6   21 1
    17    7    8 1
    18    7   14 1
    19    7   22 1
    20    7   23 1
    21    8   13 1
    22    8   24 1
    23    9   10 1
    24    9   14 1
    25    9   25 1
    26    9   26 1
    27   10   16 1
    28   10   27 1
    29   10   28 1
    30   13   29 1
    31   14   30 1
