@<TRIPOS>MOLECULE
*****
   41    43     0     0     0
SMALL
NO_CHARGES

@<TRIPOS>ATOM
      1 C1          3.3213   -2.4011   -8.5903 C.ar      1 <0>         0.0000
      2 C2          6.5875   -3.1320   -7.2101 C.2       1 <0>         0.0000
      3 C3          2.8270   -1.4309   -7.7315 C.ar      1 <0>         0.0000
      4 C4          6.5115   -3.9289   -8.3062 C.2       1 <0>         0.0000
      5 C5          5.3207   -2.4217   -7.1341 C.ar      1 <0>         0.0000
      6 C6          4.5868   -2.8759   -8.2490 C.ar      1 <0>         0.0000
      7 C7          4.6926   -1.4358   -6.3184 C.ar      1 <0>         0.0000
      8 C8          0.1090   -2.3593   -4.0990 C.3       1 <0>         0.0000
      9 C9         -0.1358   -2.2977   -2.5847 C.3       1 <0>         0.0000
     10 C10         0.8147   -1.0382   -4.4102 C.3       1 <0>         0.0000
     11 C11         1.1715   -1.7100   -2.0634 C.3       1 <0>         0.0000
     12 C12         6.5522   -1.3807   -4.6862 C.3       1 <0>         0.0000
     13 C13         3.4645    0.6067   -4.1610 C.3       1 <0>         0.0000
     14 C14         4.8803    0.4610   -4.7670 C.3       1 <0>         0.0000
     15 C15         3.0784   -0.5988   -3.3126 C.3       1 <0>         0.0000
     16 N1          3.4694   -0.9732   -6.6340 N.ar      1 <0>         0.0000
     17 N2          5.2573   -0.9023   -5.1622 N.pl3     1 <0>         0.0000
     18 N3          1.5817   -0.6847   -3.1186 N.4       1 <0>         0.0000
     19 O1          5.3019   -3.7930   -8.9540 O.3       1 <0>         0.0000
     20 H1          2.7788   -2.7440   -9.4637 H         1 <0>         0.0000
     21 H2          7.4487   -3.0667   -6.5645 H         1 <0>         0.0000
     22 H3          1.8547   -0.9815   -7.9263 H         1 <0>         0.0000
     23 H4          7.2030   -4.6270   -8.7562 H         1 <0>         0.0000
     24 H5          0.7560   -3.2054   -4.3496 H         1 <0>         0.0000
     25 H6         -0.8108   -2.4598   -4.6780 H         1 <0>         0.0000
     26 H7         -0.9799   -1.6410   -2.3494 H         1 <0>         0.0000
     27 H8         -0.3361   -3.2743   -2.1397 H         1 <0>         0.0000
     28 H9          1.5341   -1.0845   -5.2282 H         1 <0>         0.0000
     29 H10         0.1069   -0.2283   -4.5933 H         1 <0>         0.0000
     30 H11         1.1152   -1.2151   -1.0929 H         1 <0>         0.0000
     31 H12         1.9627   -2.4614   -2.0360 H         1 <0>         0.0000
     32 H13         6.7149   -1.0106   -3.6722 H         1 <0>         0.0000
     33 H14         7.3916   -1.0456   -5.3104 H         1 <0>         0.0000
     34 H15         6.5552   -2.4709   -4.6377 H         1 <0>         0.0000
     35 H16         2.7585    0.7157   -4.9832 H         1 <0>         0.0000
     36 H17         3.4355    1.5226   -3.5583 H         1 <0>         0.0000
     37 H18         4.9477    1.1428   -5.6225 H         1 <0>         0.0000
     38 H19         5.6197    0.7891   -4.0338 H         1 <0>         0.0000
     39 H20         3.3756   -1.5278   -3.8009 H         1 <0>         0.0000
     40 H21         3.5279   -0.5691   -2.3162 H         1 <0>         0.0000
     41 H22         1.2612    0.2346   -2.8064 H         1 <0>         0.0000
@<TRIPOS>BOND
     1    1    3 ar
     2    1    6 ar
     3    1   20 1
     4    2    4 2
     5    2    5 1
     6    2   21 1
     7    3   16 ar
     8    3   22 1
     9    4   19 1
    10    4   23 1
    11    5    6 ar
    12    5    7 ar
    13    6   19 1
    14    7   16 ar
    15    7   17 1
    16    8    9 1
    17    8   10 1
    18    8   24 1
    19    8   25 1
    20    9   11 1
    21    9   26 1
    22    9   27 1
    23   10   18 1
    24   10   28 1
    25   10   29 1
    26   11   18 1
    27   11   30 1
    28   11   31 1
    29   12   17 1
    30   12   32 1
    31   12   33 1
    32   12   34 1
    33   13   14 1
    34   13   15 1
    35   13   35 1
    36   13   36 1
    37   14   17 1
    38   14   37 1
    39   14   38 1
    40   15   18 1
    41   15   39 1
    42   15   40 1
    43   18   41 1
