@<TRIPOS>MOLECULE
*****
   31    33     0     0     0
SMALL
NO_CHARGES

@<TRIPOS>ATOM
      1 C1          1.3220    2.4677   -0.3640 C.ar      1 <0>         0.0000
      2 C2          0.8395    3.5445    0.3777 C.ar      1 <0>         0.0000
      3 C3         -1.0560    2.1719    1.0528 C.ar      1 <0>         0.0000
      4 C4          0.6580    1.2342   -0.4077 C.ar      1 <0>         0.0000
      5 C5         -0.5449    1.0977    0.3078 C.ar      1 <0>         0.0000
      6 C6         -0.3578    3.3732    1.0809 C.ar      1 <0>         0.0000
      7 C7         -1.0874   -3.6672   -0.2358 C.3       1 <0>         0.0000
      8 C8          0.1856   -3.4059    0.6284 C.3       1 <0>         0.0000
      9 C9         -1.7780   -2.2934   -0.3898 C.3       1 <0>         0.0000
     10 C10         0.1291   -1.9144    1.0092 C.3       1 <0>         0.0000
     11 C11         0.1484   -0.9940   -1.4107 C.3       1 <0>         0.0000
     12 C12         1.2067    0.0889   -1.2266 C.3       1 <0>         0.0000
     13 C13        -0.6661   -1.2657   -0.1408 C.3       1 <0>         0.0000
     14 O1         -1.3004   -0.0347    0.2965 O.3       1 <0>         0.0000
     15 O2          2.3668   -0.5208   -0.6185 O.3       1 <0>         0.0000
     16 Cl1        -0.9991    4.7120    2.0214 Cl        1 <0>         0.0000
     17 H1          2.2343    2.5970   -0.9448 H         1 <0>         0.0000
     18 H2          1.3636    4.4938    0.4025 H         1 <0>         0.0000
     19 H3         -1.9870    2.0454    1.5951 H         1 <0>         0.0000
     20 H4         -0.8127   -4.0773   -1.2124 H         1 <0>         0.0000
     21 H5         -1.7578   -4.3939    0.2308 H         1 <0>         0.0000
     22 H6          0.2218   -4.0448    1.5150 H         1 <0>         0.0000
     23 H7          1.0915   -3.6143    0.0516 H         1 <0>         0.0000
     24 H8         -2.2651   -2.1562   -1.3598 H         1 <0>         0.0000
     25 H9         -2.5388   -2.1502    0.3845 H         1 <0>         0.0000
     26 H10        -0.4577   -1.7715    1.9236 H         1 <0>         0.0000
     27 H11         1.1143   -1.4730    1.1545 H         1 <0>         0.0000
     28 H12        -0.5439   -0.6756   -2.1981 H         1 <0>         0.0000
     29 H13         0.6360   -1.9116   -1.7502 H         1 <0>         0.0000
     30 H14         1.5002    0.4716   -2.2144 H         1 <0>         0.0000
     31 H15         2.9144    0.1871   -0.2433 H         1 <0>         0.0000
@<TRIPOS>BOND
     1    1    2 ar
     2    1    4 ar
     3    1   17 1
     4    2    6 ar
     5    2   18 1
     6    3    5 ar
     7    3    6 ar
     8    3   19 1
     9    4    5 ar
    10    4   12 1
    11    5   14 1
    12    6   16 1
    13    7    8 1
    14    7    9 1
    15    7   20 1
    16    7   21 1
    17    8   10 1
    18    8   22 1
    19    8   23 1
    20    9   13 1
    21    9   24 1
    22    9   25 1
    23   10   13 1
    24   10   26 1
    25   10   27 1
    26   11   12 1
    27   11   13 1
    28   11   28 1
    29   11   29 1
    30   12   15 1
    31   12   30 1
    32   13   14 1
    33   15   31 1
