@<TRIPOS>MOLECULE
*****
   23    23     0     0     0
SMALL
NO_CHARGES

@<TRIPOS>ATOM
      1 C1          5.4825   -0.4321    3.5979 C.ar      1 <0>         0.0000
      2 C2          5.8586   -1.0169    2.3887 C.ar      1 <0>         0.0000
      3 C3          4.4309    0.4837    3.6324 C.ar      1 <0>         0.0000
      4 C4          5.1832   -0.6860    1.2140 C.ar      1 <0>         0.0000
      5 C5          3.7555    0.8146    2.4577 C.ar      1 <0>         0.0000
      6 C6          4.1316    0.2298    1.2485 C.ar      1 <0>         0.0000
      7 C7          3.4174    0.5797    0.0066 C.2       1 <0>         0.0000
      8 C8          1.1173   -0.1800    0.6397 C.3       1 <0>         0.0000
      9 C9          1.4204    1.3719   -1.3075 C.3       1 <0>         0.0000
     10 C10         1.9374    0.9778    0.0780 C.3       1 <0>         0.0000
     11 O1          3.9753    0.5508   -1.0938 O.2       1 <0>         0.0000
     12 H1          6.0083   -0.6898    4.5125 H         1 <0>         0.0000
     13 H2          6.6776   -1.7298    2.3617 H         1 <0>         0.0000
     14 H3          4.1381    0.9387    4.5741 H         1 <0>         0.0000
     15 H4          5.4848   -1.1480    0.2774 H         1 <0>         0.0000
     16 H5          2.9375    1.5295    2.4960 H         1 <0>         0.0000
     17 H6          1.2185   -1.0757    0.0166 H         1 <0>         0.0000
     18 H7          0.0553    0.0825    0.6879 H         1 <0>         0.0000
     19 H8          1.4434   -0.4492    1.6493 H         1 <0>         0.0000
     20 H9          1.5010    0.5311   -2.0045 H         1 <0>         0.0000
     21 H10         1.9851    2.2122   -1.7264 H         1 <0>         0.0000
     22 H11         0.3678    1.6715   -1.2578 H         1 <0>         0.0000
     23 H12         1.8246    1.8629    0.7121 H         1 <0>         0.0000
@<TRIPOS>BOND
     1    1    3 ar
     2    1    2 ar
     3    1   12 1
     4    2    4 ar
     5    2   13 1
     6    3    5 ar
     7    3   14 1
     8    4    6 ar
     9    4   15 1
    10    5    6 ar
    11    5   16 1
    12    6    7 1
    13    7   10 1
    14    7   11 2
    15    8   10 1
    16    8   17 1
    17    8   18 1
    18    8   19 1
    19    9   10 1
    20    9   20 1
    21    9   21 1
    22    9   22 1
    23   10   23 1
