@<TRIPOS>MOLECULE
*****
   52    54     0     0     0
SMALL
NO_CHARGES

@<TRIPOS>ATOM
      1 C1          2.4861    3.1306   -0.9273 C.ar      1 <0>         0.0000
      2 C2          1.2867    2.8632   -1.5913 C.ar      1 <0>         0.0000
      3 C3         -3.5471    1.6933    0.6518 C.ar      1 <0>         0.0000
      4 C4         -4.4181    2.6881   -1.3428 C.ar      1 <0>         0.0000
      5 C5          1.1639    0.7142   -0.4532 C.ar      1 <0>         0.0000
      6 C6         -2.3663    1.3272   -0.0053 C.ar      1 <0>         0.0000
      7 C7          3.0375    2.2163   -0.0320 C.ar      1 <0>         0.0000
      8 C8         -4.5825    2.3824    0.0100 C.ar      1 <0>         0.0000
      9 C9         -3.2501    2.3364   -2.0220 C.ar      1 <0>         0.0000
     10 C10         2.3635    1.0014    0.2238 C.ar      1 <0>         0.0000
     11 C11         0.6322    1.6566   -1.3564 C.ar      1 <0>         0.0000
     12 C12        -2.1990    1.6638   -1.3654 C.ar      1 <0>         0.0000
     13 C13         0.4407   -0.5984   -0.3366 C.2       1 <0>         0.0000
     14 C14         6.4874   -0.1050    0.1961 C.2       1 <0>         0.0000
     15 C15         5.7349    0.6825   -0.5845 C.2       1 <0>         0.0000
     16 C16        -1.3148    0.6298    0.8278 C.3       1 <0>         0.0000
     17 C17        -5.8274    2.7952    0.7590 C.3       1 <0>         0.0000
     18 C18         5.0352    0.1575   -1.8142 C.3       1 <0>         0.0000
     19 C19        -3.5772    1.6989   -4.2761 C.3       1 <0>         0.0000
     20 C20         2.2583   -0.7768    1.8977 C.3       1 <0>         0.0000
     21 C21         5.5768    2.1570   -0.2682 C.3       1 <0>         0.0000
     22 C22         4.3648    2.5171    0.6289 C.3       1 <0>         0.0000
     23 O1          0.9022   -1.6494   -0.7230 O.2       1 <0>         0.0000
     24 O2         -0.7961   -0.5775    0.2304 O.3       1 <0>         0.0000
     25 O3          4.3763    3.9265    0.9144 O.3       1 <0>         0.0000
     26 O4         -3.1326    2.6970   -3.3478 O.3       1 <0>         0.0000
     27 O5          2.9846    0.1786    1.1175 O.3       1 <0>         0.0000
     28 S1         -0.7834    1.2211   -2.3724 S.3       1 <0>         0.0000
     29 H1          3.0040    4.0700   -1.0908 H         1 <0>         0.0000
     30 H2          0.8678    3.5717   -2.2984 H         1 <0>         0.0000
     31 H3         -3.6649    1.4239    1.6997 H         1 <0>         0.0000
     32 H4         -5.1908    3.2161   -1.8966 H         1 <0>         0.0000
     33 H5          7.0088    0.2867    1.0677 H         1 <0>         0.0000
     34 H6          6.6000   -1.1677   -0.0052 H         1 <0>         0.0000
     35 H7         -0.4958    1.3122    1.0666 H         1 <0>         0.0000
     36 H8         -1.7646    0.3034    1.7673 H         1 <0>         0.0000
     37 H9         -5.7185    3.8069    1.1683 H         1 <0>         0.0000
     38 H10        -6.7043    2.7992    0.1051 H         1 <0>         0.0000
     39 H11        -6.0311    2.1219    1.5967 H         1 <0>         0.0000
     40 H12         3.9566    0.3363   -1.7794 H         1 <0>         0.0000
     41 H13         5.1959   -0.9166   -1.9367 H         1 <0>         0.0000
     42 H14         5.4097    0.6670   -2.7113 H         1 <0>         0.0000
     43 H15        -3.4238    2.1167   -5.2726 H         1 <0>         0.0000
     44 H16        -4.6413    1.4756   -4.1274 H         1 <0>         0.0000
     45 H17        -2.9962    0.7744   -4.1757 H         1 <0>         0.0000
     46 H18         2.8694   -0.9508    2.7852 H         1 <0>         0.0000
     47 H19         2.1207   -1.7113    1.3516 H         1 <0>         0.0000
     48 H20         1.2854   -0.3785    2.2067 H         1 <0>         0.0000
     49 H21         5.4932    2.7442   -1.1905 H         1 <0>         0.0000
     50 H22         6.4757    2.5037    0.2579 H         1 <0>         0.0000
     51 H23         4.4397    1.9430    1.5577 H         1 <0>         0.0000
     52 H24         5.2470    4.1437    1.2832 H         1 <0>         0.0000
@<TRIPOS>BOND
     1    1    2 ar
     2    1    7 ar
     3    1   29 1
     4    2   11 ar
     5    2   30 1
     6    3    6 ar
     7    3    8 ar
     8    3   31 1
     9    4    8 ar
    10    4    9 ar
    11    4   32 1
    12    5   10 ar
    13    5   11 ar
    14    5   13 1
    15    6   12 ar
    16    6   16 1
    17    7   10 ar
    18    7   22 1
    19    8   17 1
    20    9   12 ar
    21    9   26 1
    22   10   27 1
    23   11   28 1
    24   12   28 1
    25   13   23 2
    26   13   24 1
    27   14   15 2
    28   14   33 1
    29   14   34 1
    30   15   18 1
    31   15   21 1
    32   16   24 1
    33   16   35 1
    34   16   36 1
    35   17   37 1
    36   17   38 1
    37   17   39 1
    38   18   40 1
    39   18   41 1
    40   18   42 1
    41   19   26 1
    42   19   43 1
    43   19   44 1
    44   19   45 1
    45   20   27 1
    46   20   46 1
    47   20   47 1
    48   20   48 1
    49   21   22 1
    50   21   49 1
    51   21   50 1
    52   22   25 1
    53   22   51 1
    54   25   52 1
