@<TRIPOS>MOLECULE
*****
   71    75     0     0     0
SMALL
NO_CHARGES

@<TRIPOS>ATOM
      1 C1          1.0137   -2.1480   -1.3800 C.ar      1 <0>         0.0000
      2 C2          5.9720   -0.9387   -4.7571 C.ar      1 <0>         0.0000
      3 C3          1.7144   -2.2795   -2.5782 C.ar      1 <0>         0.0000
      4 C4          0.0143   -1.1796   -1.2472 C.ar      1 <0>         0.0000
      5 C5          4.7404   -1.4886   -5.1550 C.ar      1 <0>         0.0000
      6 C6          0.3968   -0.5109   -3.5734 C.ar      1 <0>         0.0000
      7 C7          6.0182    0.0729   -3.7967 C.ar      1 <0>         0.0000
      8 C8          1.4320   -1.4511   -3.6774 C.ar      1 <0>         0.0000
      9 C9         -0.2816   -0.3806   -2.3572 C.ar      1 <0>         0.0000
     10 C10         4.7746    0.5625   -3.3200 C.ar      1 <0>         0.0000
     11 C11         3.5849   -0.9775   -4.5762 C.ar      1 <0>         0.0000
     12 C12         7.2176    1.6483   -2.3799 C.2       1 <0>         0.0000
     13 C13         3.3802    2.0369   -0.3014 C.3       1 <0>         0.0000
     14 C14         2.8231    3.2129   -2.4279 C.3       1 <0>         0.0000
     15 C15        -3.3995   -0.4670   -0.9448 C.3       1 <0>         0.0000
     16 C16        -3.4927   -0.2749   -3.4047 C.3       1 <0>         0.0000
     17 C17         1.9021    2.0186    0.0903 C.3       1 <0>         0.0000
     18 C18         1.3439    3.2306   -2.0678 C.3       1 <0>         0.0000
     19 C19        -4.9195   -0.6301   -0.9620 C.3       1 <0>         0.0000
     20 C20        -5.0065   -0.4568   -3.2984 C.3       1 <0>         0.0000
     21 C21         5.9205    2.4611   -2.3324 C.3       1 <0>         0.0000
     22 C22         3.4601    1.9493   -1.8289 C.3       1 <0>         0.0000
     23 C23         5.9689    3.4980   -3.4748 C.3       1 <0>         0.0000
     24 C24         8.4647   -0.1749   -3.4462 C.3       1 <0>         0.0000
     25 C25         1.2304    4.4369    0.1267 C.3       1 <0>         0.0000
     26 N1          3.6174    0.0502   -3.7190 N.ar      1 <0>         0.0000
     27 N2          7.2104    0.5459   -3.2161 N.am      1 <0>         0.0000
     28 N3          4.7596    1.5688   -2.3623 N.pl3     1 <0>         0.0000
     29 N4         -3.0176    0.3256   -2.1349 N.pl3     1 <0>         0.0000
     30 N5          2.2811   -1.5423   -4.8135 N.pl3     1 <0>         0.0000
     31 N6          1.0912    3.1215   -0.5724 N.4       1 <0>         0.0000
     32 O1          8.2109    2.0223   -1.7699 O.2       1 <0>         0.0000
     33 O2         -1.2329    1.5406   -0.8351 O.2       1 <0>         0.0000
     34 O3         -1.3672    1.8023   -3.3574 O.2       1 <0>         0.0000
     35 O4         -5.3557   -1.2455   -2.1668 O.3       1 <0>         0.0000
     36 S1         -1.4772    0.9450   -2.1746 S.o2      1 <0>         0.0000
     37 H1          1.2519   -2.7949   -0.5404 H         1 <0>         0.0000
     38 H2          6.8894   -1.3503   -5.1627 H         1 <0>         0.0000
     39 H3          2.5095   -3.0130   -2.6731 H         1 <0>         0.0000
     40 H4         -0.5019   -1.0373   -0.3040 H         1 <0>         0.0000
     41 H5          4.6955   -2.3184   -5.8516 H         1 <0>         0.0000
     42 H6          0.1751    0.1675   -4.3916 H         1 <0>         0.0000
     43 H7          3.8917    2.9213    0.0954 H         1 <0>         0.0000
     44 H8          3.8494    1.1604    0.1549 H         1 <0>         0.0000
     45 H9          2.8847    3.1901   -3.5191 H         1 <0>         0.0000
     46 H10         3.3299    4.1224   -2.0886 H         1 <0>         0.0000
     47 H11        -3.0867    0.0713   -0.0487 H         1 <0>         0.0000
     48 H12        -2.9246   -1.4575   -0.9700 H         1 <0>         0.0000
     49 H13        -3.0084   -1.2463   -3.5753 H         1 <0>         0.0000
     50 H14        -3.2535    0.4032   -4.2252 H         1 <0>         0.0000
     51 H15         1.4397    1.0834   -0.2323 H         1 <0>         0.0000
     52 H16         1.7496    2.1228    1.1663 H         1 <0>         0.0000
     53 H17         0.8305    4.1317   -2.4075 H         1 <0>         0.0000
     54 H18         0.8458    2.3793   -2.5265 H         1 <0>         0.0000
     55 H19        -5.2297   -1.2835   -0.1436 H         1 <0>         0.0000
     56 H20        -5.3972    0.3523   -0.8380 H         1 <0>         0.0000
     57 H21        -5.4922    0.5277   -3.2421 H         1 <0>         0.0000
     58 H22        -5.3766   -0.9872   -4.1782 H         1 <0>         0.0000
     59 H23         5.9380    2.9725   -1.3684 H         1 <0>         0.0000
     60 H24         2.8156    1.1203   -2.1250 H         1 <0>         0.0000
     61 H25         5.9045    3.0030   -4.4485 H         1 <0>         0.0000
     62 H26         6.9121    4.0491   -3.4280 H         1 <0>         0.0000
     63 H27         5.1527    4.2189   -3.4008 H         1 <0>         0.0000
     64 H28         8.7719   -0.0880   -4.4932 H         1 <0>         0.0000
     65 H29         8.3448   -1.2313   -3.1890 H         1 <0>         0.0000
     66 H30         9.2282    0.2713   -2.8123 H         1 <0>         0.0000
     67 H31         2.2591    4.7858    0.0470 H         1 <0>         0.0000
     68 H32         0.5579    5.1563   -0.3410 H         1 <0>         0.0000
     69 H33         0.9627    4.3103    1.1760 H         1 <0>         0.0000
     70 H34         1.8539   -1.1819   -5.6630 H         1 <0>         0.0000
     71 H35         0.1063    2.8017   -0.5000 H         1 <0>         0.0000
@<TRIPOS>BOND
     1    1    3 ar
     2    1    4 ar
     3    1   37 1
     4    2    5 ar
     5    2    7 ar
     6    2   38 1
     7    3    8 ar
     8    3   39 1
     9    4    9 ar
    10    4   40 1
    11    5   11 ar
    12    5   41 1
    13    6    8 ar
    14    6    9 ar
    15    6   42 1
    16    7   10 ar
    17    7   27 1
    18    8   30 1
    19    9   36 1
    20   10   26 ar
    21   10   28 1
    22   11   26 ar
    23   11   30 1
    24   12   21 1
    25   12   27 am
    26   12   32 2
    27   13   17 1
    28   13   22 1
    29   13   43 1
    30   13   44 1
    31   14   18 1
    32   14   22 1
    33   14   45 1
    34   14   46 1
    35   15   19 1
    36   15   29 1
    37   15   47 1
    38   15   48 1
    39   16   20 1
    40   16   29 1
    41   16   49 1
    42   16   50 1
    43   17   31 1
    44   17   51 1
    45   17   52 1
    46   18   31 1
    47   18   53 1
    48   18   54 1
    49   19   35 1
    50   19   55 1
    51   19   56 1
    52   20   35 1
    53   20   57 1
    54   20   58 1
    55   21   23 1
    56   21   28 1
    57   21   59 1
    58   22   28 1
    59   22   60 1
    60   23   61 1
    61   23   62 1
    62   23   63 1
    63   24   27 1
    64   24   64 1
    65   24   65 1
    66   24   66 1
    67   25   31 1
    68   25   67 1
    69   25   68 1
    70   25   69 1
    71   29   36 1
    72   30   70 1
    73   31   71 1
    74   33   36 2
    75   34   36 2
