@<TRIPOS>MOLECULE
*****
   18    18     0     0     0
SMALL
NO_CHARGES

@<TRIPOS>ATOM
      1 C1          5.8160    0.7310   -0.5690 C.ar      1 <0>         0.0000
      2 C2          5.7100    1.4130    0.6340 C.ar      1 <0>         0.0000
      3 C3          4.7330   -0.0260   -0.9870 C.ar      1 <0>         0.0000
      4 C4          4.5370    1.3200    1.3780 C.ar      1 <0>         0.0000
      5 C5          3.5710   -0.0910   -0.2060 C.ar      1 <0>         0.0000
      6 C6          2.4170   -0.9000   -0.6530 C.2       1 <0>         0.0000
      7 C7          0.1010   -1.7270   -0.2040 C.3       1 <0>         0.0000
      8 N1          3.5030    0.5910    0.9700 N.ar      1 <0>         0.0000
      9 N2          1.2930   -0.9460    0.1340 N.am      1 <0>         0.0000
     10 O1          2.3980   -1.5460   -1.7010 O.2       1 <0>         0.0000
     11 H1          6.7000    0.7870   -1.1520 H         1 <0>         0.0000
     12 H2          6.5160    2.0020    0.9880 H         1 <0>         0.0000
     13 H3          4.7770   -0.5610   -1.9010 H         1 <0>         0.0000
     14 H4          4.4480    1.8390    2.3000 H         1 <0>         0.0000
     15 H5         -0.6510   -1.5760    0.5720 H         1 <0>         0.0000
     16 H6          0.3840   -2.7800   -0.2650 H         1 <0>         0.0000
     17 H7         -0.2730   -1.3850   -1.1710 H         1 <0>         0.0000
     18 H8          1.3320   -0.4020    1.0110 H         1 <0>         0.0000
@<TRIPOS>BOND
     1    1    2 ar
     2    1    3 ar
     3    1   11 1
     4    2    4 ar
     5    2   12 1
     6    3    5 ar
     7    3   13 1
     8    4    8 ar
     9    4   14 1
    10    5    6 1
    11    5    8 ar
    12    6    9 am
    13    6   10 2
    14    7    9 1
    15    7   15 1
    16    7   16 1
    17    7   17 1
    18    9   18 1
