@<TRIPOS>MOLECULE
*****
   41    43     0     0     0
SMALL
NO_CHARGES

@<TRIPOS>ATOM
      1 C1          6.7649   -2.4020   -3.7376 C.ar      1 <0>         0.0000
      2 C2          7.0723    1.1145   -4.5317 C.2       1 <0>         0.0000
      3 C3          5.7334   -2.8112   -4.5766 C.ar      1 <0>         0.0000
      4 C4          8.0596    0.9097   -3.6192 C.2       1 <0>         0.0000
      5 C5          6.3971   -0.1574   -4.6758 C.ar      1 <0>         0.0000
      6 C6          7.0726   -1.0429   -3.8199 C.ar      1 <0>         0.0000
      7 C7          5.3285   -0.6854   -5.4448 C.ar      1 <0>         0.0000
      8 C8          2.1293   -3.1222   -2.9736 C.3       1 <0>         0.0000
      9 C9          1.6044   -2.5620   -1.6438 C.3       1 <0>         0.0000
     10 C10         1.9415   -1.9751   -3.9722 C.3       1 <0>         0.0000
     11 C11         2.1232   -1.1294   -1.6639 C.3       1 <0>         0.0000
     12 C12         3.8271   -0.5401   -7.3635 C.3       1 <0>         0.0000
     13 C13         2.6457    0.9676   -4.9016 C.3       1 <0>         0.0000
     14 C14         3.9147    1.3041   -5.7242 C.3       1 <0>         0.0000
     15 C15         2.9817    0.3285   -3.5474 C.3       1 <0>         0.0000
     16 N1          5.0208   -1.9878   -5.3819 N.ar      1 <0>         0.0000
     17 N2          4.5720    0.1303   -6.2974 N.pl3     1 <0>         0.0000
     18 N3          1.9532   -0.6891   -3.1149 N.4       1 <0>         0.0000
     19 O1          8.0765   -0.3944   -3.1653 O.3       1 <0>         0.0000
     20 H1          7.3085   -3.0933   -3.1034 H         1 <0>         0.0000
     21 H2          6.8862    2.0394   -5.0594 H         1 <0>         0.0000
     22 H3          5.4495   -3.8609   -4.6128 H         1 <0>         0.0000
     23 H4          8.8235    1.5518   -3.2038 H         1 <0>         0.0000
     24 H5          3.1912   -3.3701   -2.8908 H         1 <0>         0.0000
     25 H6          1.5990   -4.0188   -3.2992 H         1 <0>         0.0000
     26 H7          0.5098   -2.5790   -1.6099 H         1 <0>         0.0000
     27 H8          1.9748   -3.1059   -0.7728 H         1 <0>         0.0000
     28 H9          2.7456   -1.9146   -4.7064 H         1 <0>         0.0000
     29 H10         0.9772   -2.0137   -4.4803 H         1 <0>         0.0000
     30 H11         1.5999   -0.4231   -1.0178 H         1 <0>         0.0000
     31 H12         3.1932   -1.0893   -1.4504 H         1 <0>         0.0000
     32 H13         3.5087    0.2152   -8.0872 H         1 <0>         0.0000
     33 H14         2.9428   -1.0925   -7.0164 H         1 <0>         0.0000
     34 H15         4.4799   -1.2551   -7.8644 H         1 <0>         0.0000
     35 H16         2.0207    0.2960   -5.4979 H         1 <0>         0.0000
     36 H17         2.0609    1.8803   -4.7433 H         1 <0>         0.0000
     37 H18         3.6310    1.9704   -6.5434 H         1 <0>         0.0000
     38 H19         4.6197    1.8559   -5.0995 H         1 <0>         0.0000
     39 H20         3.9271   -0.2109   -3.5664 H         1 <0>         0.0000
     40 H21         3.0381    1.0791   -2.7551 H         1 <0>         0.0000
     41 H22         1.0323   -0.2518   -3.1984 H         1 <0>         0.0000
@<TRIPOS>BOND
     1    1    3 ar
     2    1    6 ar
     3    1   20 1
     4    2    4 2
     5    2    5 1
     6    2   21 1
     7    3   16 ar
     8    3   22 1
     9    4   19 1
    10    4   23 1
    11    5    6 ar
    12    5    7 ar
    13    6   19 1
    14    7   16 ar
    15    7   17 1
    16    8    9 1
    17    8   10 1
    18    8   24 1
    19    8   25 1
    20    9   11 1
    21    9   26 1
    22    9   27 1
    23   10   18 1
    24   10   28 1
    25   10   29 1
    26   11   18 1
    27   11   30 1
    28   11   31 1
    29   12   17 1
    30   12   32 1
    31   12   33 1
    32   12   34 1
    33   13   14 1
    34   13   15 1
    35   13   35 1
    36   13   36 1
    37   14   17 1
    38   14   37 1
    39   14   38 1
    40   15   18 1
    41   15   39 1
    42   15   40 1
    43   18   41 1
