@<TRIPOS>MOLECULE
*****
   51    54     0     0     0
SMALL
NO_CHARGES

@<TRIPOS>ATOM
      1 C1         -5.4865   -9.2520  -12.7938 C.ar      1 <0>         0.0000
      2 C2         -4.5861   -9.9039  -11.9094 C.ar      1 <0>         0.0000
      3 C3         -5.6390   -7.8825  -12.7449 C.ar      1 <0>         0.0000
      4 C4         -5.0068   -5.6993  -11.7056 C.ar      1 <0>         0.0000
      5 C5         -1.7300   -0.7036   -7.1039 C.ar      1 <0>         0.0000
      6 C6         -0.4606   -2.5411   -6.2153 C.ar      1 <0>         0.0000
      7 C7         -3.8537   -9.1794  -10.9923 C.ar      1 <0>         0.0000
      8 C8         -2.3859   -1.5685   -7.9691 C.ar      1 <0>         0.0000
      9 C9         -1.1118   -3.4274   -7.0850 C.ar      1 <0>         0.0000
     10 C10        -4.2533   -5.0231  -10.7721 C.ar      1 <0>         0.0000
     11 C11        -4.8978   -7.1096  -11.8103 C.ar      1 <0>         0.0000
     12 C12        -0.7505   -1.1724   -6.2102 C.ar      1 <0>         0.0000
     13 C13        -3.9899   -7.7664  -10.9190 C.ar      1 <0>         0.0000
     14 C14        -2.0791   -2.9397   -7.9701 C.ar      1 <0>         0.0000
     15 C15        -3.3816   -5.7701   -9.9351 C.ar      1 <0>         0.0000
     16 C16         1.1810    0.4367   -6.1363 C.2       1 <0>         0.0000
     17 C17        -0.2853   -0.7119   -1.7105 C.3       1 <0>         0.0000
     18 C18         1.2011   -0.3196   -1.7412 C.3       1 <0>         0.0000
     19 C19        -0.5518   -1.3347   -3.1005 C.3       1 <0>         0.0000
     20 C20         1.3852    0.2029   -3.1728 C.3       1 <0>         0.0000
     21 C21         0.5713   -0.7886   -4.0352 C.3       1 <0>         0.0000
     22 C22        -2.5120   -5.1068   -8.8891 C.3       1 <0>         0.0000
     23 C23        -0.0018   -0.1652   -5.3366 C.3       1 <0>         0.0000
     24 N1         -3.2500   -7.0823   -9.9987 N.ar      1 <0>         0.0000
     25 O1          1.4091    1.6293   -6.1314 O.2       1 <0>         0.0000
     26 O2          1.9791   -0.4243   -6.7988 O.3       1 <0>         0.0000
     27 O3         -0.8781    0.9040   -5.0137 O.3       1 <0>         0.0000
     28 O4         -2.7788   -3.7069   -8.8583 O.3       1 <0>         0.0000
     29 H1         -6.0550   -9.8394  -13.5098 H         1 <0>         0.0000
     30 H2         -4.4764  -10.9841  -11.9593 H         1 <0>         0.0000
     31 H3         -6.3273   -7.3783  -13.4198 H         1 <0>         0.0000
     32 H4         -5.6860   -5.1629  -12.3648 H         1 <0>         0.0000
     33 H5         -1.9820    0.3512   -7.0976 H         1 <0>         0.0000
     34 H6          0.2608   -2.9577   -5.5188 H         1 <0>         0.0000
     35 H7         -3.1607   -9.6601  -10.3081 H         1 <0>         0.0000
     36 H8         -3.1456   -1.2050   -8.6551 H         1 <0>         0.0000
     37 H9         -0.8622   -4.4813   -7.0468 H         1 <0>         0.0000
     38 H10        -4.3099   -3.9469  -10.6615 H         1 <0>         0.0000
     39 H11        -0.5350   -1.3907   -0.8892 H         1 <0>         0.0000
     40 H12        -0.8950    0.1901   -1.5884 H         1 <0>         0.0000
     41 H13         1.4686    0.4205   -0.9805 H         1 <0>         0.0000
     42 H14         1.8307   -1.2039   -1.5773 H         1 <0>         0.0000
     43 H15        -0.5053   -2.4271   -3.0551 H         1 <0>         0.0000
     44 H16        -1.5425   -1.0712   -3.4760 H         1 <0>         0.0000
     45 H17         0.9543    1.2063   -3.2480 H         1 <0>         0.0000
     46 H18         2.4318    0.2695   -3.4844 H         1 <0>         0.0000
     47 H19         1.2430   -1.6090   -4.3093 H         1 <0>         0.0000
     48 H20        -2.7201   -5.5596   -7.9119 H         1 <0>         0.0000
     49 H21        -1.4573   -5.2899   -9.1314 H         1 <0>         0.0000
     50 H22         1.5456   -1.2990   -6.8311 H         1 <0>         0.0000
     51 H23        -0.3648    1.7236   -5.1521 H         1 <0>         0.0000
@<TRIPOS>BOND
     1    1    2 ar
     2    1    3 ar
     3    1   29 1
     4    2    7 ar
     5    2   30 1
     6    3   11 ar
     7    3   31 1
     8    4   10 ar
     9    4   11 ar
    10    4   32 1
    11    5    8 ar
    12    5   12 ar
    13    5   33 1
    14    6    9 ar
    15    6   12 ar
    16    6   34 1
    17    7   13 ar
    18    7   35 1
    19    8   14 ar
    20    8   36 1
    21    9   14 ar
    22    9   37 1
    23   10   15 ar
    24   10   38 1
    25   11   13 ar
    26   12   23 1
    27   13   24 ar
    28   14   28 1
    29   15   22 1
    30   15   24 ar
    31   16   23 1
    32   16   25 2
    33   16   26 1
    34   17   18 1
    35   17   19 1
    36   17   39 1
    37   17   40 1
    38   18   20 1
    39   18   41 1
    40   18   42 1
    41   19   21 1
    42   19   43 1
    43   19   44 1
    44   20   21 1
    45   20   45 1
    46   20   46 1
    47   21   23 1
    48   21   47 1
    49   22   28 1
    50   22   48 1
    51   22   49 1
    52   23   27 1
    53   26   50 1
    54   27   51 1
