@<TRIPOS>MOLECULE
*****
   69    73     0     0     0
SMALL
NO_CHARGES

@<TRIPOS>ATOM
      1 C1          8.7264    1.4187   -4.6078 C.ar      1 <0>         0.0000
      2 C2          7.9155    2.5185   -4.9068 C.ar      1 <0>         0.0000
      3 C3          8.5779    0.7513   -3.3862 C.ar      1 <0>         0.0000
      4 C4        -10.2171   -6.3461   -1.3842 C.ar      1 <0>         0.0000
      5 C5         -0.9208    0.4547   -0.7673 C.ar      1 <0>         0.0000
      6 C6          0.6621    3.7008   -1.5846 C.ar      1 <0>         0.0000
      7 C7          1.4530    2.1357    0.0860 C.ar      1 <0>         0.0000
      8 C8          6.9678    2.9606   -3.9813 C.ar      1 <0>         0.0000
      9 C9          7.6243    1.1832   -2.4648 C.ar      1 <0>         0.0000
     10 C10        -9.3939   -5.2941   -1.7778 C.ar      1 <0>         0.0000
     11 C11        -2.1410   -0.2127   -0.8113 C.ar      1 <0>         0.0000
     12 C12         1.8807    4.3754   -1.5386 C.ar      1 <0>         0.0000
     13 C13         2.6765    2.7993    0.1450 C.ar      1 <0>         0.0000
     14 C14        -2.0737    2.5639   -0.9211 C.ar      1 <0>         0.0000
     15 C15        -9.6589   -7.3902   -0.6338 C.ar      1 <0>         0.0000
     16 C16        -7.5844   -6.4272   -0.6728 C.ar      1 <0>         0.0000
     17 C17         0.4326    2.5729   -0.7767 C.ar      1 <0>         0.0000
     18 C18        -0.8660    1.8594   -0.8256 C.ar      1 <0>         0.0000
     19 C19         6.8211    2.2976   -2.7520 C.ar      1 <0>         0.0000
     20 C20        -3.3157    1.9193   -0.9612 C.ar      1 <0>         0.0000
     21 C21        -8.0405   -5.3280   -1.4116 C.ar      1 <0>         0.0000
     22 C22        -3.3231    0.5213   -0.9110 C.ar      1 <0>         0.0000
     23 C23         2.8749    3.9103   -0.6759 C.ar      1 <0>         0.0000
     24 C24         5.8288    2.7086   -1.7129 C.2       1 <0>         0.0000
     25 C25        -4.6080    2.7052   -1.0435 C.3       1 <0>         0.0000
     26 C26        -5.8063    1.8423   -0.6331 C.3       1 <0>         0.0000
     27 C27        -5.6974    0.4884   -1.3251 C.3       1 <0>         0.0000
     28 C28        -6.8314   -0.4603   -0.9542 C.3       1 <0>         0.0000
     29 C29        -7.3543   -2.9612   -0.9484 C.3       1 <0>         0.0000
     30 C30        -7.0915   -4.2153   -1.7848 C.3       1 <0>         0.0000
     31 N1         -8.3677   -7.4382   -0.2825 N.ar      1 <0>         0.0000
     32 N2          5.3733    4.0255   -1.8027 N.am      1 <0>         0.0000
     33 N3         -6.5028   -1.8353   -1.4755 N.4       1 <0>         0.0000
     34 O1          5.4160    1.9512   -0.8442 O.2       1 <0>         0.0000
     35 O2          5.0167    4.5844    0.7203 O.2       1 <0>         0.0000
     36 O3          4.2475    6.1352   -1.1551 O.2       1 <0>         0.0000
     37 O4         -4.5130   -0.2154   -0.9267 O.3       1 <0>         0.0000
     38 O5         -7.2352   -3.7538   -3.1376 O.3       1 <0>         0.0000
     39 S1          4.4261    4.7956   -0.5927 S.o2      1 <0>         0.0000
     40 H1          9.4685    1.0807   -5.3261 H         1 <0>         0.0000
     41 H2          8.0187    3.0287   -5.8604 H         1 <0>         0.0000
     42 H3          9.2063   -0.1040   -3.1538 H         1 <0>         0.0000
     43 H4        -11.2694   -6.3669   -1.6506 H         1 <0>         0.0000
     44 H5         -0.0013   -0.1202   -0.7139 H         1 <0>         0.0000
     45 H6         -0.1077    4.0408   -2.2716 H         1 <0>         0.0000
     46 H7          1.2811    1.2859    0.7402 H         1 <0>         0.0000
     47 H8          6.3256    3.7968   -4.2457 H         1 <0>         0.0000
     48 H9          7.4901    0.6754   -1.5149 H         1 <0>         0.0000
     49 H10        -9.7876   -4.4734   -2.3730 H         1 <0>         0.0000
     50 H11        -2.1840   -1.2978   -0.7758 H         1 <0>         0.0000
     51 H12         2.0609    5.2516   -2.1532 H         1 <0>         0.0000
     52 H13         3.4667    2.4697    0.8092 H         1 <0>         0.0000
     53 H14        -2.0555    3.6511   -0.9285 H         1 <0>         0.0000
     54 H15       -10.2761   -8.2250   -0.3077 H         1 <0>         0.0000
     55 H16        -6.5346   -6.4991   -0.3850 H         1 <0>         0.0000
     56 H17        -4.5492    3.5883   -0.4013 H         1 <0>         0.0000
     57 H18        -4.7535    3.0738   -2.0664 H         1 <0>         0.0000
     58 H19        -5.8092    1.6834    0.4511 H         1 <0>         0.0000
     59 H20        -6.7485    2.3286   -0.9059 H         1 <0>         0.0000
     60 H21        -5.6690    0.6333   -2.4165 H         1 <0>         0.0000
     61 H22        -7.7874   -0.1500   -1.3786 H         1 <0>         0.0000
     62 H23        -6.9203   -0.5450    0.1308 H         1 <0>         0.0000
     63 H24        -7.1168   -3.1149    0.1048 H         1 <0>         0.0000
     64 H25        -8.3958   -2.6500   -1.0468 H         1 <0>         0.0000
     65 H26        -6.0588   -4.5528   -1.6125 H         1 <0>         0.0000
     66 H27         5.8507    4.7031   -2.3908 H         1 <0>         0.0000
     67 H28        -6.5782   -1.8706   -2.5031 H         1 <0>         0.0000
     68 H29        -5.5066   -1.9891   -1.2562 H         1 <0>         0.0000
     69 H30        -7.1558   -4.5061   -3.7480 H         1 <0>         0.0000
@<TRIPOS>BOND
     1    1    3 ar
     2    1    2 ar
     3    1   40 1
     4    2    8 ar
     5    2   41 1
     6    3    9 ar
     7    3   42 1
     8    4   10 ar
     9    4   15 ar
    10    4   43 1
    11    5   11 ar
    12    5   18 ar
    13    5   44 1
    14    6   12 ar
    15    6   17 ar
    16    6   45 1
    17    7   13 ar
    18    7   17 ar
    19    7   46 1
    20    8   19 ar
    21    8   47 1
    22    9   19 ar
    23    9   48 1
    24   10   21 ar
    25   10   49 1
    26   11   22 ar
    27   11   50 1
    28   12   23 ar
    29   12   51 1
    30   13   23 ar
    31   13   52 1
    32   14   18 ar
    33   14   20 ar
    34   14   53 1
    35   15   31 ar
    36   15   54 1
    37   16   21 ar
    38   16   31 ar
    39   16   55 1
    40   17   18 1
    41   19   24 1
    42   20   22 ar
    43   20   25 1
    44   21   30 1
    45   22   37 1
    46   23   39 1
    47   24   32 am
    48   24   34 2
    49   25   26 1
    50   25   56 1
    51   25   57 1
    52   26   27 1
    53   26   58 1
    54   26   59 1
    55   27   28 1
    56   27   37 1
    57   27   60 1
    58   28   33 1
    59   28   61 1
    60   28   62 1
    61   29   30 1
    62   29   33 1
    63   29   63 1
    64   29   64 1
    65   30   38 1
    66   30   65 1
    67   32   39 1
    68   32   66 1
    69   33   67 1
    70   33   68 1
    71   35   39 2
    72   36   39 2
    73   38   69 1
