@<TRIPOS>MOLECULE
*****
   55    56     0     0     0
SMALL
NO_CHARGES

@<TRIPOS>ATOM
      1 C1         -0.1398    1.5623   -2.3217 C.ar      1 <0>         0.0000
      2 C2         -1.4503    1.7831   -1.8616 C.ar      1 <0>         0.0000
      3 C3          0.7107    0.7435   -1.5902 C.ar      1 <0>         0.0000
      4 C4         -1.8992    1.2041   -0.6773 C.ar      1 <0>         0.0000
      5 C5          0.2756    0.1409   -0.3952 C.ar      1 <0>         0.0000
      6 C6         -1.0342    0.3876    0.0623 C.ar      1 <0>         0.0000
      7 C7          1.1565   -0.7883    0.3410 C.2       1 <0>         0.0000
      8 C8         -0.5323   -0.5710    2.1871 C.3       1 <0>         0.0000
      9 C9          0.5082   -1.5097    1.5347 C.3       1 <0>         0.0000
     10 C10        -1.5042    3.7944    4.6637 C.3       1 <0>         0.0000
     11 C11         1.5194   -5.3321    4.9943 C.3       1 <0>         0.0000
     12 C12         1.3284   -6.6129    0.6101 C.3       1 <0>         0.0000
     13 C13         0.0477    0.6634    2.8887 C.3       1 <0>         0.0000
     14 C14         1.6100   -1.9302    2.5294 C.3       1 <0>         0.0000
     15 C15        -0.2555   -2.7367    0.9433 C.3       1 <0>         0.0000
     16 C16        -0.4358    2.8123    4.1711 C.3       1 <0>         0.0000
     17 C17        -1.0278    1.6328    3.3911 C.3       1 <0>         0.0000
     18 C18         1.1208   -2.8633    3.6458 C.3       1 <0>         0.0000
     19 C19         0.6546   -3.8601    0.4223 C.3       1 <0>         0.0000
     20 O1          2.3036   -1.0370   -0.0150 O.2       1 <0>         0.0000
     21 O2          2.8494   -4.7077    2.7836 O.2       1 <0>         0.0000
     22 O3          3.4185   -3.4469    4.9245 O.2       1 <0>         0.0000
     23 O4         -0.3549   -5.4575    2.3101 O.2       1 <0>         0.0000
     24 O5         -1.1309   -5.8134   -0.0880 O.2       1 <0>         0.0000
     25 O6         -1.5218   -0.1659    1.2073 O.3       1 <0>         0.0000
     26 S1          2.4147   -4.0815    4.0536 S.o2      1 <0>         0.0000
     27 S2         -0.0518   -5.4814    0.8577 S.o2      1 <0>         0.0000
     28 H1          0.1999    2.0241   -3.2439 H         1 <0>         0.0000
     29 H2         -2.1234    2.4192   -2.4307 H         1 <0>         0.0000
     30 H3          1.7241    0.5377   -1.9219 H         1 <0>         0.0000
     31 H4         -2.9051    1.3742   -0.3055 H         1 <0>         0.0000
     32 H5         -1.1218   -1.1426    2.9110 H         1 <0>         0.0000
     33 H6         -2.0692    4.2159    3.8244 H         1 <0>         0.0000
     34 H7         -1.0564    4.6270    5.2163 H         1 <0>         0.0000
     35 H8         -2.2204    3.2986    5.3291 H         1 <0>         0.0000
     36 H9          2.2622   -6.0791    5.2810 H         1 <0>         0.0000
     37 H10         1.0939   -4.8647    5.8843 H         1 <0>         0.0000
     38 H11         0.7531   -5.7608    4.3470 H         1 <0>         0.0000
     39 H12         0.9423   -7.6094    0.8336 H         1 <0>         0.0000
     40 H13         1.6435   -6.5564   -0.4334 H         1 <0>         0.0000
     41 H14         2.1271   -6.3307    1.2973 H         1 <0>         0.0000
     42 H15         0.6439    0.3215    3.7414 H         1 <0>         0.0000
     43 H16         0.7386    1.1919    2.2213 H         1 <0>         0.0000
     44 H17         2.0797   -1.0463    2.9612 H         1 <0>         0.0000
     45 H18         2.4029   -2.4110    1.9563 H         1 <0>         0.0000
     46 H19        -0.9190   -2.4056    0.1435 H         1 <0>         0.0000
     47 H20        -0.9136   -3.1269    1.7241 H         1 <0>         0.0000
     48 H21         0.1377    2.4336    5.0274 H         1 <0>         0.0000
     49 H22         0.2829    3.3425    3.5327 H         1 <0>         0.0000
     50 H23        -1.7390    1.0907    4.0294 H         1 <0>         0.0000
     51 H24        -1.6072    2.0104    2.5419 H         1 <0>         0.0000
     52 H25         0.8921   -2.3374    4.5761 H         1 <0>         0.0000
     53 H26         0.2652   -3.4724    3.3532 H         1 <0>         0.0000
     54 H27         0.7605   -3.8475   -0.6640 H         1 <0>         0.0000
     55 H28         1.6450   -3.8609    0.8753 H         1 <0>         0.0000
@<TRIPOS>BOND
     1    1    2 ar
     2    1    3 ar
     3    1   28 1
     4    2    4 ar
     5    2   29 1
     6    3    5 ar
     7    3   30 1
     8    4    6 ar
     9    4   31 1
    10    5    6 ar
    11    5    7 1
    12    6   25 1
    13    7    9 1
    14    7   20 2
    15    8    9 1
    16    8   13 1
    17    8   25 1
    18    8   32 1
    19    9   14 1
    20    9   15 1
    21   10   16 1
    22   10   33 1
    23   10   34 1
    24   10   35 1
    25   11   26 1
    26   11   36 1
    27   11   37 1
    28   11   38 1
    29   12   27 1
    30   12   39 1
    31   12   40 1
    32   12   41 1
    33   13   17 1
    34   13   42 1
    35   13   43 1
    36   14   18 1
    37   14   44 1
    38   14   45 1
    39   15   19 1
    40   15   46 1
    41   15   47 1
    42   16   17 1
    43   16   48 1
    44   16   49 1
    45   17   50 1
    46   17   51 1
    47   18   26 1
    48   18   52 1
    49   18   53 1
    50   19   27 1
    51   19   54 1
    52   19   55 1
    53   21   26 2
    54   22   26 2
    55   23   27 2
    56   24   27 2
