@<TRIPOS>MOLECULE
*****
   51    54     0     0     0
SMALL
NO_CHARGES

@<TRIPOS>ATOM
      1 C1          4.0523    3.0687   -2.0075 C.ar      1 <0>         0.0000
      2 C2         -0.1497   -2.5222   -0.6378 C.ar      1 <0>         0.0000
      3 C3          4.4619    2.3000   -3.0806 C.ar      1 <0>         0.0000
      4 C4          2.7682    2.9120   -1.4376 C.ar      1 <0>         0.0000
      5 C5          1.1298   -3.0228   -0.8710 C.ar      1 <0>         0.0000
      6 C6          2.0363   -0.8401   -0.3587 C.ar      1 <0>         0.0000
      7 C7          1.5470    0.0472   -3.5439 C.ar      1 <0>         0.0000
      8 C8          2.3019    1.1287   -3.0141 C.ar      1 <0>         0.0000
      9 C9         -0.3762   -1.1813   -0.2874 C.ar      1 <0>         0.0000
     10 C10         0.7419   -0.3383   -0.1615 C.ar      1 <0>         0.0000
     11 C11         3.5896    1.3146   -3.6034 C.ar      1 <0>         0.0000
     12 C12         1.8873    1.9604   -1.9269 C.ar      1 <0>         0.0000
     13 C13         2.2232   -2.1684   -0.7217 C.ar      1 <0>         0.0000
     14 C14         3.1965   -0.4170   -5.0646 C.ar      1 <0>         0.0000
     15 C15        -1.8927    0.8343    0.1246 C.3       1 <0>         0.0000
     16 C16         0.5976    1.1613    0.0026 C.3       1 <0>         0.0000
     17 C17        -1.8022   -0.7086    0.0162 C.3       1 <0>         0.0000
     18 C18        -0.6808    1.5080    0.7759 C.3       1 <0>         0.0000
     19 C19         3.6338   -1.2881   -6.2091 C.3       1 <0>         0.0000
     20 C20        -2.2603   -1.3692    1.3394 C.3       1 <0>         0.0000
     21 C21        -2.7771   -1.1282   -1.1063 C.3       1 <0>         0.0000
     22 C22        -0.9060    3.0402    0.8462 C.3       1 <0>         0.0000
     23 N1          1.9642   -0.7115   -4.5342 N.ar      1 <0>         0.0000
     24 N2          4.0080    0.5341   -4.6459 N.ar      1 <0>         0.0000
     25 N3          0.6095    1.8225   -1.3247 N.pl3     1 <0>         0.0000
     26 O1         -0.4310    1.0604    2.1045 O.3       1 <0>         0.0000
     27 F1         -1.8034    3.3113    1.8440 F         1 <0>         0.0000
     28 F2          0.2259    3.7109    1.1477 F         1 <0>         0.0000
     29 F3         -1.4187    3.5742   -0.2786 F         1 <0>         0.0000
     30 Cl1         3.8456   -2.7645   -1.0194 Cl        1 <0>         0.0000
     31 H1          4.7175    3.8260   -1.6007 H         1 <0>         0.0000
     32 H2         -0.9888   -3.2041   -0.7373 H         1 <0>         0.0000
     33 H3          5.4393    2.4198   -3.5369 H         1 <0>         0.0000
     34 H4          2.4506    3.5525   -0.6199 H         1 <0>         0.0000
     35 H5          1.2778   -4.0581   -1.1608 H         1 <0>         0.0000
     36 H6          2.8944   -0.1834   -0.2563 H         1 <0>         0.0000
     37 H7          0.5796   -0.2202   -3.1186 H         1 <0>         0.0000
     38 H8         -2.0122    1.2627   -0.8752 H         1 <0>         0.0000
     39 H9         -2.8043    1.1005    0.6714 H         1 <0>         0.0000
     40 H10         1.4390    1.5574    0.5711 H         1 <0>         0.0000
     41 H11         2.9004   -1.2394   -7.0206 H         1 <0>         0.0000
     42 H12         4.6115   -0.9748   -6.5765 H         1 <0>         0.0000
     43 H13         3.6810   -2.3328   -5.8840 H         1 <0>         0.0000
     44 H14        -3.2687   -1.0312    1.6065 H         1 <0>         0.0000
     45 H15        -1.5769   -1.1297    2.1560 H         1 <0>         0.0000
     46 H16        -2.2906   -2.4578    1.2357 H         1 <0>         0.0000
     47 H17        -3.7727   -0.7126   -0.9147 H         1 <0>         0.0000
     48 H18        -2.8846   -2.2140   -1.1710 H         1 <0>         0.0000
     49 H19        -2.4392   -0.7651   -2.0828 H         1 <0>         0.0000
     50 H20        -0.0293    1.3381   -1.9468 H         1 <0>         0.0000
     51 H21        -1.2163    1.2471    2.6451 H         1 <0>         0.0000
@<TRIPOS>BOND
     1    1    3 ar
     2    1    4 ar
     3    1   31 1
     4    2    5 ar
     5    2    9 ar
     6    2   32 1
     7    3   11 ar
     8    3   33 1
     9    4   12 ar
    10    4   34 1
    11    5   13 ar
    12    5   35 1
    13    6   10 ar
    14    6   13 ar
    15    6   36 1
    16    7    8 ar
    17    7   23 ar
    18    7   37 1
    19    8   11 ar
    20    8   12 ar
    21    9   10 ar
    22    9   17 1
    23   10   16 1
    24   11   24 ar
    25   12   25 1
    26   13   30 1
    27   14   19 1
    28   14   23 ar
    29   14   24 ar
    30   15   17 1
    31   15   18 1
    32   15   38 1
    33   15   39 1
    34   16   18 1
    35   16   25 1
    36   16   40 1
    37   17   20 1
    38   17   21 1
    39   18   22 1
    40   18   26 1
    41   19   41 1
    42   19   42 1
    43   19   43 1
    44   20   44 1
    45   20   45 1
    46   20   46 1
    47   21   47 1
    48   21   48 1
    49   21   49 1
    50   22   27 1
    51   22   28 1
    52   22   29 1
    53   25   50 1
    54   26   51 1
