@<TRIPOS>MOLECULE
*****
   74    76     0     0     0
SMALL
NO_CHARGES

@<TRIPOS>ATOM
      1 C1          3.6981    2.1606   -2.5906 C.ar      1 <0>         0.0000
      2 C2          3.4024    1.0762   -1.7640 C.ar      1 <0>         0.0000
      3 C3          1.6270    3.1969   -1.9576 C.ar      1 <0>         0.0000
      4 C4          1.3287    2.1086   -1.1322 C.ar      1 <0>         0.0000
      5 C5          2.8203    3.2470   -2.6874 C.ar      1 <0>         0.0000
      6 C6          2.2183    1.0365   -1.0131 C.ar      1 <0>         0.0000
      7 C7          2.7685    5.7969   -3.0345 C.3       1 <0>         0.0000
      8 C8          2.9843   -0.3492    0.9688 C.3       1 <0>         0.0000
      9 C9          4.0741    6.5732   -3.1943 C.3       1 <0>         0.0000
     10 C10         2.4822    0.6005    2.0447 C.3       1 <0>         0.0000
     11 C11         3.1202    4.4037   -3.6362 C.3       1 <0>         0.0000
     12 C12         1.9087   -0.1652   -0.1156 C.3       1 <0>         0.0000
     13 C13         2.4323    4.1615   -4.9854 C.3       1 <0>         0.0000
     14 C14         1.6665   -1.4219   -0.9572 C.3       1 <0>         0.0000
     15 C15         6.5864    5.8192   -5.0337 C.3       1 <0>         0.0000
     16 C16         0.6957    1.8008    3.9432 C.3       1 <0>         0.0000
     17 C17         7.3866    5.4607   -1.2185 C.3       1 <0>         0.0000
     18 C18         7.3246    3.5611   -2.8461 C.3       1 <0>         0.0000
     19 C19         8.9136    5.4769   -3.2026 C.3       1 <0>         0.0000
     20 C20        -1.9079    1.2568    1.0713 C.3       1 <0>         0.0000
     21 C21        -1.5737   -0.3490    2.9775 C.3       1 <0>         0.0000
     22 C22        -2.1210    2.0637    3.4012 C.3       1 <0>         0.0000
     23 C23         6.4290    5.8709   -3.5055 C.3       1 <0>         0.0000
     24 C24         0.1988    1.4437    2.5316 C.3       1 <0>         0.0000
     25 C25         7.5099    5.0815   -2.7066 C.3       1 <0>         0.0000
     26 C26        -1.3328    1.0925    2.4953 C.3       1 <0>         0.0000
     27 N1          5.0718    5.5118   -3.0368 N.3       1 <0>         0.0000
     28 N2          1.0391    0.3247    2.0615 N.3       1 <0>         0.0000
     29 O1          4.5329    4.4764   -3.9290 O.3       1 <0>         0.0000
     30 O2          0.7033    0.0717    0.6394 O.3       1 <0>         0.0000
     31 H1          4.6186    2.1765   -3.1632 H         1 <0>         0.0000
     32 H2          4.1112    0.2527   -1.7066 H         1 <0>         0.0000
     33 H3          0.9117    4.0138   -2.0260 H         1 <0>         0.0000
     34 H4          0.4007    2.0859   -0.5733 H         1 <0>         0.0000
     35 H5          2.5148    5.7061   -1.9774 H         1 <0>         0.0000
     36 H6          1.9324    6.2712   -3.5546 H         1 <0>         0.0000
     37 H7          3.9885   -0.1022    0.6221 H         1 <0>         0.0000
     38 H8          2.9738   -1.3791    1.3380 H         1 <0>         0.0000
     39 H9          4.1302    7.0629   -4.1795 H         1 <0>         0.0000
     40 H10         4.2231    7.3239   -2.4134 H         1 <0>         0.0000
     41 H11         2.9059    0.3794    3.0260 H         1 <0>         0.0000
     42 H12         2.7127    1.6446    1.7764 H         1 <0>         0.0000
     43 H13         2.6194    5.0016   -5.6618 H         1 <0>         0.0000
     44 H14         1.3533    4.0449   -4.8465 H         1 <0>         0.0000
     45 H15         2.8182    3.2477   -5.4465 H         1 <0>         0.0000
     46 H16         1.4171   -2.2631   -0.3042 H         1 <0>         0.0000
     47 H17         2.5552   -1.6748   -1.5433 H         1 <0>         0.0000
     48 H18         0.8376   -1.2565   -1.6513 H         1 <0>         0.0000
     49 H19         6.6426    4.7936   -5.4029 H         1 <0>         0.0000
     50 H20         7.4903    6.3511   -5.3399 H         1 <0>         0.0000
     51 H21         5.7362    6.2967   -5.5281 H         1 <0>         0.0000
     52 H22         0.5845    0.9554    4.6292 H         1 <0>         0.0000
     53 H23         0.1387    2.6479    4.3434 H         1 <0>         0.0000
     54 H24         1.7477    2.0930    3.9323 H         1 <0>         0.0000
     55 H25         7.5882    6.5284   -1.0648 H         1 <0>         0.0000
     56 H26         6.3810    5.2448   -0.8481 H         1 <0>         0.0000
     57 H27         8.1071    4.8965   -0.6155 H         1 <0>         0.0000
     58 H28         7.3325    3.2403   -3.8927 H         1 <0>         0.0000
     59 H29         6.3783    3.2474   -2.4018 H         1 <0>         0.0000
     60 H30         8.1366    3.0361   -2.3297 H         1 <0>         0.0000
     61 H31         9.1098    5.1128   -4.2156 H         1 <0>         0.0000
     62 H32         9.6786    5.0491   -2.5454 H         1 <0>         0.0000
     63 H33         9.0484    6.5658   -3.2014 H         1 <0>         0.0000
     64 H34        -1.7541    2.2793    0.7043 H         1 <0>         0.0000
     65 H35        -1.4501    0.5670    0.3643 H         1 <0>         0.0000
     66 H36        -2.9887    1.0735    1.0854 H         1 <0>         0.0000
     67 H37        -1.1685   -0.5120    3.9818 H         1 <0>         0.0000
     68 H38        -1.1042   -1.0717    2.3068 H         1 <0>         0.0000
     69 H39        -2.6500   -0.5542    3.0141 H         1 <0>         0.0000
     70 H40        -1.9191    1.9042    4.4641 H         1 <0>         0.0000
     71 H41        -3.1953    1.9159    3.2486 H         1 <0>         0.0000
     72 H42        -1.8980    3.1111    3.1631 H         1 <0>         0.0000
     73 H43         6.5409    6.9196   -3.1992 H         1 <0>         0.0000
     74 H44         0.3578    2.3237    1.8841 H         1 <0>         0.0000
@<TRIPOS>BOND
     1    1    2 ar
     2    1    5 ar
     3    1   31 1
     4    2    6 ar
     5    2   32 1
     6    3    4 ar
     7    3    5 ar
     8    3   33 1
     9    4    6 ar
    10    4   34 1
    11    5   11 1
    12    6   12 1
    13    7    9 1
    14    7   11 1
    15    7   35 1
    16    7   36 1
    17    8   10 1
    18    8   12 1
    19    8   37 1
    20    8   38 1
    21    9   27 1
    22    9   39 1
    23    9   40 1
    24   10   28 1
    25   10   41 1
    26   10   42 1
    27   11   13 1
    28   11   29 1
    29   12   14 1
    30   12   30 1
    31   13   43 1
    32   13   44 1
    33   13   45 1
    34   14   46 1
    35   14   47 1
    36   14   48 1
    37   15   23 1
    38   15   49 1
    39   15   50 1
    40   15   51 1
    41   16   24 1
    42   16   52 1
    43   16   53 1
    44   16   54 1
    45   17   25 1
    46   17   55 1
    47   17   56 1
    48   17   57 1
    49   18   25 1
    50   18   58 1
    51   18   59 1
    52   18   60 1
    53   19   25 1
    54   19   61 1
    55   19   62 1
    56   19   63 1
    57   20   26 1
    58   20   64 1
    59   20   65 1
    60   20   66 1
    61   21   26 1
    62   21   67 1
    63   21   68 1
    64   21   69 1
    65   22   26 1
    66   22   70 1
    67   22   71 1
    68   22   72 1
    69   23   25 1
    70   23   27 1
    71   23   73 1
    72   24   26 1
    73   24   28 1
    74   24   74 1
    75   27   29 1
    76   28   30 1
