@<TRIPOS>MOLECULE
*****
   55    56     0     0     0
SMALL
NO_CHARGES

@<TRIPOS>ATOM
      1 C1         -2.6390    0.0843    1.8387 C.ar      1 <0>         0.0000
      2 C2         -2.8643    1.1887    0.9963 C.ar      1 <0>         0.0000
      3 C3         -1.4628   -0.6417    1.7123 C.ar      1 <0>         0.0000
      4 C4         -1.9181    1.5708    0.0494 C.ar      1 <0>         0.0000
      5 C5         -0.4964   -0.2812    0.7528 C.ar      1 <0>         0.0000
      6 C6         -0.7278    0.8409   -0.0667 C.ar      1 <0>         0.0000
      7 C7          0.7065   -1.1135    0.5534 C.2       1 <0>         0.0000
      8 C8          1.5293    0.7849   -0.8185 C.3       1 <0>         0.0000
      9 C9          1.5659   -0.7563   -0.6734 C.3       1 <0>         0.0000
     10 C10         3.3310    5.0144   -3.0328 C.3       1 <0>         0.0000
     11 C11        -1.7353   -3.1352   -3.1796 C.3       1 <0>         0.0000
     12 C12         6.3517   -0.9100   -0.6450 C.3       1 <0>         0.0000
     13 C13         2.3422    1.3720   -1.9670 C.3       1 <0>         0.0000
     14 C14         0.9076   -1.4157   -1.9177 C.3       1 <0>         0.0000
     15 C15         2.9999   -1.2931   -0.4920 C.3       1 <0>         0.0000
     16 C16         3.2454    3.4850   -3.0759 C.3       1 <0>         0.0000
     17 C17         2.4198    2.9025   -1.9232 C.3       1 <0>         0.0000
     18 C18         0.7791   -2.9349   -1.8293 C.3       1 <0>         0.0000
     19 C19         3.7998   -0.5946    0.6053 C.3       1 <0>         0.0000
     20 O1          0.9743   -2.0724    1.2695 O.2       1 <0>         0.0000
     21 O2          0.5711   -2.9377   -4.4938 O.2       1 <0>         0.0000
     22 O3          0.0577   -5.0934   -3.2148 O.2       1 <0>         0.0000
     23 O4          6.0720   -0.6319    1.9803 O.2       1 <0>         0.0000
     24 O5          5.2891   -2.8086    0.8807 O.2       1 <0>         0.0000
     25 O6          0.1707    1.2486   -1.0045 O.3       1 <0>         0.0000
     26 S1          0.0011   -3.6275   -3.3215 S.o2      1 <0>         0.0000
     27 S2          5.4401   -1.3452    0.8586 S.o2      1 <0>         0.0000
     28 H1         -3.3827   -0.1981    2.5780 H         1 <0>         0.0000
     29 H2         -3.7841    1.7604    1.0890 H         1 <0>         0.0000
     30 H3         -1.2612   -1.5089    2.3342 H         1 <0>         0.0000
     31 H4         -2.0724    2.4307   -0.5954 H         1 <0>         0.0000
     32 H5          1.8752    1.2234    0.1290 H         1 <0>         0.0000
     33 H6          2.3345    5.4668   -3.0913 H         1 <0>         0.0000
     34 H7          3.9238    5.4039   -3.8668 H         1 <0>         0.0000
     35 H8          3.7970    5.3585   -2.1023 H         1 <0>         0.0000
     36 H9         -2.2335   -3.5697   -4.0482 H         1 <0>         0.0000
     37 H10        -2.1500   -3.5494   -2.2594 H         1 <0>         0.0000
     38 H11        -1.8165   -2.0481   -3.2054 H         1 <0>         0.0000
     39 H12         7.3626   -1.2929   -0.4934 H         1 <0>         0.0000
     40 H13         5.8945   -1.3949   -1.5082 H         1 <0>         0.0000
     41 H14         6.3739    0.1758   -0.7525 H         1 <0>         0.0000
     42 H15         3.3558    0.9584   -1.9316 H         1 <0>         0.0000
     43 H16         1.9050    1.0505   -2.9180 H         1 <0>         0.0000
     44 H17         1.4984   -1.1730   -2.8040 H         1 <0>         0.0000
     45 H18        -0.0770   -0.9649   -2.0678 H         1 <0>         0.0000
     46 H19         3.5203   -1.2219   -1.4520 H         1 <0>         0.0000
     47 H20         2.9447   -2.3501   -0.2280 H         1 <0>         0.0000
     48 H21         4.2582    3.0604   -3.0499 H         1 <0>         0.0000
     49 H22         2.8063    3.1683   -4.0308 H         1 <0>         0.0000
     50 H23         2.8589    3.2164   -0.9659 H         1 <0>         0.0000
     51 H24         1.4063    3.3173   -1.9493 H         1 <0>         0.0000
     52 H25         1.7476   -3.4407   -1.7996 H         1 <0>         0.0000
     53 H26         0.1939   -3.2832   -0.9751 H         1 <0>         0.0000
     54 H27         3.9912    0.4659    0.4250 H         1 <0>         0.0000
     55 H28         3.3205   -0.7026    1.5824 H         1 <0>         0.0000
@<TRIPOS>BOND
     1    1    2 ar
     2    1    3 ar
     3    1   28 1
     4    2    4 ar
     5    2   29 1
     6    3    5 ar
     7    3   30 1
     8    4    6 ar
     9    4   31 1
    10    5    6 ar
    11    5    7 1
    12    6   25 1
    13    7    9 1
    14    7   20 2
    15    8    9 1
    16    8   13 1
    17    8   25 1
    18    8   32 1
    19    9   14 1
    20    9   15 1
    21   10   16 1
    22   10   33 1
    23   10   34 1
    24   10   35 1
    25   11   26 1
    26   11   36 1
    27   11   37 1
    28   11   38 1
    29   12   27 1
    30   12   39 1
    31   12   40 1
    32   12   41 1
    33   13   17 1
    34   13   42 1
    35   13   43 1
    36   14   18 1
    37   14   44 1
    38   14   45 1
    39   15   19 1
    40   15   46 1
    41   15   47 1
    42   16   17 1
    43   16   48 1
    44   16   49 1
    45   17   50 1
    46   17   51 1
    47   18   26 1
    48   18   52 1
    49   18   53 1
    50   19   27 1
    51   19   54 1
    52   19   55 1
    53   21   26 2
    54   22   26 2
    55   23   27 2
    56   24   27 2
