@<TRIPOS>MOLECULE
*****
   19    19     0     0     0
SMALL
NO_CHARGES

@<TRIPOS>ATOM
      1 C1          3.2253    4.0002   -4.2782 C.2       1 <0>         0.0000
      2 C2          2.4997    3.7161   -3.0844 C.2       1 <0>         0.0000
      3 C3          3.7959    2.8773   -4.8266 C.2       1 <0>         0.0000
      4 C4          2.5009    2.3805   -2.7517 C.2       1 <0>         0.0000
      5 C5          1.9268    1.8347   -1.4872 C.2       1 <0>         0.0000
      6 C6          1.0446   -0.0141   -0.1958 C.3       1 <0>         0.0000
      7 C7          0.8607   -0.1198   -2.6495 C.3       1 <0>         0.0000
      8 N1          1.4386    0.5470   -1.4848 N.am      1 <0>         0.0000
      9 O1          1.9484    2.5268   -0.4653 O.2       1 <0>         0.0000
     10 S1          3.4424    1.4598   -3.9011 S.3       1 <0>         0.0000
     11 H1          3.3308    4.9915   -4.7065 H         1 <0>         0.0000
     12 H2          2.0020    4.4568   -2.4683 H         1 <0>         0.0000
     13 H3          4.4114    2.8031   -5.7145 H         1 <0>         0.0000
     14 H4          0.0031    0.2334    0.0503 H         1 <0>         0.0000
     15 H5          1.6866    0.3862    0.5878 H         1 <0>         0.0000
     16 H6          1.1481   -1.1028   -0.2378 H         1 <0>         0.0000
     17 H7          1.3842   -1.0570   -2.8723 H         1 <0>         0.0000
     18 H8          0.9007    0.5214   -3.5277 H         1 <0>         0.0000
     19 H9         -0.1931   -0.3525   -2.4503 H         1 <0>         0.0000
@<TRIPOS>BOND
     1    1    2 1
     2    1    3 2
     3    1   11 1
     4    2    4 2
     5    2   12 1
     6    3   10 1
     7    3   13 1
     8    4    5 1
     9    4   10 1
    10    5    8 am
    11    5    9 2
    12    6    8 1
    13    6   14 1
    14    6   15 1
    15    6   16 1
    16    7    8 1
    17    7   17 1
    18    7   18 1
    19    7   19 1
