@<TRIPOS>MOLECULE
*****
   36    37     0     0     0
SMALL
NO_CHARGES

@<TRIPOS>ATOM
      1 C1          1.4379   -2.4493   -0.6984 C.2       1 <0>         0.0000
      2 C2          1.0827    1.2417   -0.8336 C.3       1 <0>         0.0000
      3 C3         -1.8200    0.7788    1.4034 C.3       1 <0>         0.0000
      4 C4          1.9041   -0.0244   -0.5598 C.3       1 <0>         0.0000
      5 C5          0.0216   -0.9739    0.8151 C.3       1 <0>         0.0000
      6 C6         -0.7936    0.2449    0.4337 C.3       1 <0>         0.0000
      7 C7          0.1023    1.4577    0.3018 C.3       1 <0>         0.0000
      8 C8         -1.9841    2.2250    0.9081 C.3       1 <0>         0.0000
      9 C9         -3.2069    2.4153    0.0242 C.3       1 <0>         0.0000
     10 C10         0.1168   -6.3399   -0.5927 C.3       1 <0>         0.0000
     11 C11         0.5619   -3.6112   -0.3025 C.3       1 <0>         0.0000
     12 N1          1.0801   -1.1947   -0.1967 N.am      1 <0>         0.0000
     13 O1          2.4080   -2.6498   -1.4340 O.2       1 <0>         0.0000
     14 O2          1.0245   -4.8638   -2.5497 O.2       1 <0>         0.0000
     15 O3          2.5228   -5.3188   -0.5699 O.2       1 <0>         0.0000
     16 O4         -0.8059    2.5429    0.1229 O.3       1 <0>         0.0000
     17 S1          1.2024   -5.0269   -1.1126 S.o2      1 <0>         0.0000
     18 H1          1.7416    2.1115   -0.9344 H         1 <0>         0.0000
     19 H2          0.5499    1.1523   -1.7884 H         1 <0>         0.0000
     20 H3         -2.7536    0.2087    1.4105 H         1 <0>         0.0000
     21 H4         -1.4213    0.7798    2.4254 H         1 <0>         0.0000
     22 H5          2.5284   -0.2501   -1.4304 H         1 <0>         0.0000
     23 H6          2.5812    0.1489    0.2857 H         1 <0>         0.0000
     24 H7          0.5261   -0.8340    1.7785 H         1 <0>         0.0000
     25 H8         -0.6349   -1.8404    0.9126 H         1 <0>         0.0000
     26 H9         -1.3048    0.0455   -0.5200 H         1 <0>         0.0000
     27 H10         0.6599    1.6477    1.2302 H         1 <0>         0.0000
     28 H11        -2.0315    2.9186    1.7547 H         1 <0>         0.0000
     29 H12        -3.1690    1.7284   -0.8226 H         1 <0>         0.0000
     30 H13        -3.2414    3.4380   -0.3543 H         1 <0>         0.0000
     31 H14        -4.1165    2.2206    0.5943 H         1 <0>         0.0000
     32 H15         0.4510   -7.2681   -1.0590 H         1 <0>         0.0000
     33 H16         0.1672   -6.4183    0.4943 H         1 <0>         0.0000
     34 H17        -0.8973   -6.0950   -0.9121 H         1 <0>         0.0000
     35 H18        -0.4535   -3.4464   -0.6409 H         1 <0>         0.0000
     36 H19         0.6016   -3.7620    0.7687 H         1 <0>         0.0000
@<TRIPOS>BOND
     1    1   11 1
     2    1   12 am
     3    1   13 2
     4    2    4 1
     5    2    7 1
     6    2   18 1
     7    2   19 1
     8    3    6 1
     9    3    8 1
    10    3   20 1
    11    3   21 1
    12    4   12 1
    13    4   22 1
    14    4   23 1
    15    5    6 1
    16    5   12 1
    17    5   24 1
    18    5   25 1
    19    6    7 1
    20    6   26 1
    21    7   16 1
    22    7   27 1
    23    8    9 1
    24    8   16 1
    25    8   28 1
    26    9   29 1
    27    9   30 1
    28    9   31 1
    29   10   17 1
    30   10   32 1
    31   10   33 1
    32   10   34 1
    33   11   17 1
    34   11   35 1
    35   11   36 1
    36   14   17 2
    37   15   17 2
