@<TRIPOS>MOLECULE
*****
   41    42     0     0     0
SMALL
NO_CHARGES

@<TRIPOS>ATOM
      1 C1          1.0026   -4.3681   -8.3956 C.ar      1 <0>         0.0000
      2 C2         -0.2289   -3.7239   -8.4140 C.ar      1 <0>         0.0000
      3 C3          1.8653   -4.2800   -7.2897 C.ar      1 <0>         0.0000
      4 C4          0.2088   -2.8399   -6.1864 C.ar      1 <0>         0.0000
      5 C5         -0.6161   -2.9638   -7.3127 C.ar      1 <0>         0.0000
      6 C6          1.4454   -3.5129   -6.1866 C.ar      1 <0>         0.0000
      7 C7          3.1597   -5.0648   -7.4460 C.2       1 <0>         0.0000
      8 C8         -0.9118    1.7504   -2.3561 C.3       1 <0>         0.0000
      9 C9         -1.1444    0.3992   -1.6153 C.3       1 <0>         0.0000
     10 C10        -0.2701    1.3858   -3.7178 C.3       1 <0>         0.0000
     11 C11        -0.5398   -0.6882   -2.5292 C.3       1 <0>         0.0000
     12 C12        -0.6487   -0.0899   -3.9409 C.3       1 <0>         0.0000
     13 C13        -4.5317   -2.2170   -5.9108 C.3       1 <0>         0.0000
     14 C14         0.2126   -0.7609   -4.9873 C.3       1 <0>         0.0000
     15 C15        -3.1585   -2.8779   -6.0188 C.3       1 <0>         0.0000
     16 O1          3.2619   -5.9195   -8.2988 O.2       1 <0>         0.0000
     17 O2         -2.0182   -0.6923   -7.0732 O.2       1 <0>         0.0000
     18 O3         -2.8453   -2.5158   -8.6496 O.2       1 <0>         0.0000
     19 O4          4.2144   -4.7711   -6.6580 O.3       1 <0>         0.0000
     20 O5         -0.2252   -2.1557   -5.0932 O.3       1 <0>         0.0000
     21 S1         -2.2204   -2.1191   -7.3771 S.o2      1 <0>         0.0000
     22 Cl1         2.3847   -3.3775   -4.7001 Cl        1 <0>         0.0000
     23 H1          1.3265   -4.9727   -9.2352 H         1 <0>         0.0000
     24 H2         -0.8957   -3.7999   -9.2670 H         1 <0>         0.0000
     25 H3         -1.8620    2.2710   -2.5095 H         1 <0>         0.0000
     26 H4         -0.2712    2.4279   -1.7843 H         1 <0>         0.0000
     27 H5         -0.6962    0.3878   -0.6175 H         1 <0>         0.0000
     28 H6         -2.2166    0.2220   -1.4810 H         1 <0>         0.0000
     29 H7         -0.6032    2.0337   -4.5338 H         1 <0>         0.0000
     30 H8          0.8224    1.4744   -3.6560 H         1 <0>         0.0000
     31 H9          0.5198   -0.8452   -2.2880 H         1 <0>         0.0000
     32 H10        -1.0392   -1.6565   -2.4345 H         1 <0>         0.0000
     33 H11        -1.6902   -0.1414   -4.2825 H         1 <0>         0.0000
     34 H12        -4.4354   -1.1486   -5.7028 H         1 <0>         0.0000
     35 H13        -5.1069   -2.3452   -6.8307 H         1 <0>         0.0000
     36 H14        -5.0860   -2.6804   -5.0894 H         1 <0>         0.0000
     37 H15         1.2694   -0.7515   -4.6974 H         1 <0>         0.0000
     38 H16         0.0873   -0.2879   -5.9638 H         1 <0>         0.0000
     39 H17        -3.2255   -3.9411   -6.2636 H         1 <0>         0.0000
     40 H18        -2.5542   -2.7403   -5.1207 H         1 <0>         0.0000
     41 H19         3.9829   -4.1086   -5.9808 H         1 <0>         0.0000
@<TRIPOS>BOND
     1    1    2 ar
     2    1    3 ar
     3    1   23 1
     4    2    5 ar
     5    2   24 1
     6    3    6 ar
     7    3    7 1
     8    4    5 ar
     9    4    6 ar
    10    4   20 1
    11    5   21 1
    12    6   22 1
    13    7   16 2
    14    7   19 1
    15    8    9 1
    16    8   10 1
    17    8   25 1
    18    8   26 1
    19    9   11 1
    20    9   27 1
    21    9   28 1
    22   10   12 1
    23   10   29 1
    24   10   30 1
    25   11   12 1
    26   11   31 1
    27   11   32 1
    28   12   14 1
    29   12   33 1
    30   13   15 1
    31   13   34 1
    32   13   35 1
    33   13   36 1
    34   14   20 1
    35   14   37 1
    36   14   38 1
    37   15   21 1
    38   15   39 1
    39   15   40 1
    40   17   21 2
    41   18   21 2
    42   19   41 1
