@<TRIPOS>MOLECULE
*****
   27    28     0     0     0
SMALL
NO_CHARGES

@<TRIPOS>ATOM
      1 C1          2.5072   -0.6718    0.4158 C.ar      1 <0>         0.0000
      2 C2         -0.2298    3.5023    5.2644 C.ar      1 <0>         0.0000
      3 C3          1.2645   -1.0589    0.9427 C.ar      1 <0>         0.0000
      4 C4          1.1706    3.3996    5.2535 C.ar      1 <0>         0.0000
      5 C5          3.5541   -0.3005    1.2517 C.ar      1 <0>         0.0000
      6 C6         -1.0307    2.3668    5.2201 C.ar      1 <0>         0.0000
      7 C7          1.0816   -1.0536    2.3197 C.ar      1 <0>         0.0000
      8 C8          1.7566    2.1422    5.1819 C.ar      1 <0>         0.0000
      9 C9          3.3909   -0.2955    2.6479 C.ar      1 <0>         0.0000
     10 C10        -0.4567    1.0854    5.1548 C.ar      1 <0>         0.0000
     11 C11         2.1307   -0.6669    3.1681 C.ar      1 <0>         0.0000
     12 C12         0.9530    0.9931    5.1234 C.ar      1 <0>         0.0000
     13 O1          0.8004   -1.6285    5.2614 O.2       1 <0>         0.0000
     14 O2          3.0814   -0.5239    5.6160 O.2       1 <0>         0.0000
     15 O3          4.4604    0.0757    3.3916 O.3       1 <0>         0.0000
     16 O4         -1.3059    0.0307    5.1183 O.3       1 <0>         0.0000
     17 S1          1.7791   -0.5737    4.9142 S.o2      1 <0>         0.0000
     18 H1          2.6616   -0.6702   -0.6599 H         1 <0>         0.0000
     19 H2         -0.6998    4.4806    5.3183 H         1 <0>         0.0000
     20 H3          0.4546   -1.3609    0.2862 H         1 <0>         0.0000
     21 H4          1.7914    4.2887    5.3021 H         1 <0>         0.0000
     22 H5          4.5244   -0.0168    0.8554 H         1 <0>         0.0000
     23 H6         -2.1141    2.4344    5.2462 H         1 <0>         0.0000
     24 H7          0.1314   -1.3527    2.7513 H         1 <0>         0.0000
     25 H8          2.8370    2.0362    5.1764 H         1 <0>         0.0000
     26 H9          4.2799   -0.1197    4.3387 H         1 <0>         0.0000
     27 H10        -0.7957   -0.8007    5.2453 H         1 <0>         0.0000
@<TRIPOS>BOND
     1    1    3 ar
     2    1    5 ar
     3    1   18 1
     4    2    4 ar
     5    2    6 ar
     6    2   19 1
     7    3    7 ar
     8    3   20 1
     9    4    8 ar
    10    4   21 1
    11    5    9 ar
    12    5   22 1
    13    6   10 ar
    14    6   23 1
    15    7   11 ar
    16    7   24 1
    17    8   12 ar
    18    8   25 1
    19    9   11 ar
    20    9   15 1
    21   10   12 ar
    22   10   16 1
    23   11   17 1
    24   12   17 1
    25   13   17 2
    26   14   17 2
    27   15   26 1
    28   16   27 1
