@<TRIPOS>MOLECULE
*****
   29    30     0     0     0
SMALL
NO_CHARGES

@<TRIPOS>ATOM
      1 C1          2.6173   -6.4244    1.6003 C.ar      1 <0>         0.0000
      2 C2          1.5325   -6.6365    0.7462 C.ar      1 <0>         0.0000
      3 C3          2.4647   -5.6054    2.7263 C.ar      1 <0>         0.0000
      4 C4          0.2991   -6.0249    1.0075 C.ar      1 <0>         0.0000
      5 C5          1.2364   -4.9964    2.9857 C.ar      1 <0>         0.0000
      6 C6          0.1437   -5.1929    2.1256 C.ar      1 <0>         0.0000
      7 C7         -0.3225   -2.3057    1.4490 C.cat     1 <0>         0.0000
      8 C8          0.9725   -1.6576   -0.3553 C.3       1 <0>         0.0000
      9 C9          0.5011   -0.4322    0.4560 C.3       1 <0>         0.0000
     10 C10        -2.3682   -4.8795    1.5751 C.3       1 <0>         0.0000
     11 C11        -1.1651   -4.4766    2.4297 C.3       1 <0>         0.0000
     12 N1          0.4712   -2.7574    0.4832 N.pl3     1 <0>         0.0000
     13 N2         -0.9758   -2.9913    2.3721 N.pl3     1 <0>         0.0000
     14 O1         -0.4352   -0.9836    1.4496 O.3       1 <0>         0.0000
     15 H1          3.5713   -6.9034    1.3997 H         1 <0>         0.0000
     16 H2          1.6375   -7.2855   -0.1185 H         1 <0>         0.0000
     17 H3          3.2994   -5.4492    3.4035 H         1 <0>         0.0000
     18 H4         -0.5344   -6.2160    0.3389 H         1 <0>         0.0000
     19 H5          1.1248   -4.3630    3.8631 H         1 <0>         0.0000
     20 H6          0.5259   -1.7033   -1.3517 H         1 <0>         0.0000
     21 H7          2.0592   -1.7037   -0.4426 H         1 <0>         0.0000
     22 H8          1.3046    0.0518    1.0120 H         1 <0>         0.0000
     23 H9         -0.0523    0.3009   -0.1277 H         1 <0>         0.0000
     24 H10        -2.2091   -4.6559    0.5164 H         1 <0>         0.0000
     25 H11        -2.5610   -5.9501    1.6797 H         1 <0>         0.0000
     26 H12        -3.2623   -4.3427    1.9030 H         1 <0>         0.0000
     27 H13        -1.4068   -4.6613    3.4802 H         1 <0>         0.0000
     28 H14         0.7153   -3.7393    0.3807 H         1 <0>         0.0000
     29 H15        -1.5404   -2.4197    2.9940 H         1 <0>         0.0000
@<TRIPOS>BOND
     1    1    3 ar
     2    1    2 ar
     3    1   15 1
     4    2    4 ar
     5    2   16 1
     6    3    5 ar
     7    3   17 1
     8    4    6 ar
     9    4   18 1
    10    5    6 ar
    11    5   19 1
    12    6   11 1
    13    7   12 2
    14    7   13 1
    15    7   14 1
    16    8    9 1
    17    8   12 1
    18    8   20 1
    19    8   21 1
    20    9   14 1
    21    9   22 1
    22    9   23 1
    23   10   11 1
    24   10   24 1
    25   10   25 1
    26   10   26 1
    27   11   13 1
    28   11   27 1
    29   12   28 1
    30   13   29 1
