@<TRIPOS>MOLECULE
*****
   36    36     0     0     0
SMALL
NO_CHARGES

@<TRIPOS>ATOM
      1 C1         -0.9943   -1.3474   -0.3320 C.3       1 <0>         0.0000
      2 C2         -0.3323   -2.5356    0.3776 C.3       1 <0>         0.0000
      3 C3         -1.9251   -0.7713    0.7348 C.3       1 <0>         0.0000
      4 C4         -0.0159   -2.0129    1.7822 C.3       1 <0>         0.0000
      5 C5          0.0280   -3.0311    2.9149 C.3       1 <0>         0.0000
      6 C6          2.4193   -7.3750    5.0785 C.3       1 <0>         0.0000
      7 C7          3.5695   -8.3724    4.8909 C.3       1 <0>         0.0000
      8 C8          1.1604   -4.0469    2.7394 C.3       1 <0>         0.0000
      9 C9          2.4139   -6.3563    3.9347 C.3       1 <0>         0.0000
     10 C10         3.6212   -9.4024    6.0035 C.3       1 <0>         0.0000
     11 N1         -1.1661   -1.0016    2.0482 N.4       1 <0>         0.0000
     12 O1         -0.2326   -5.9053    4.0169 O.2       1 <0>         0.0000
     13 O2          1.3049   -4.3753    5.3699 O.2       1 <0>         0.0000
     14 F1          4.6418  -10.2683    5.8138 F         1 <0>         0.0000
     15 F2          3.7987   -8.8210    7.2153 F         1 <0>         0.0000
     16 F3          2.4775  -10.1273    6.0686 F         1 <0>         0.0000
     17 S1          1.0443   -5.1892    4.1717 S.o2      1 <0>         0.0000
     18 H1         -0.2475   -0.6066   -0.6338 H         1 <0>         0.0000
     19 H2         -1.5537   -1.6402   -1.2222 H         1 <0>         0.0000
     20 H3         -1.0197   -3.3868    0.4375 H         1 <0>         0.0000
     21 H4          0.5754   -2.8710   -0.1273 H         1 <0>         0.0000
     22 H5         -2.1486    0.2907    0.6359 H         1 <0>         0.0000
     23 H6         -2.8585   -1.3307    0.8076 H         1 <0>         0.0000
     24 H7          0.8940   -1.4071    1.7645 H         1 <0>         0.0000
     25 H8         -0.9243   -3.5740    2.9544 H         1 <0>         0.0000
     26 H9          0.1673   -2.5230    3.8756 H         1 <0>         0.0000
     27 H10         1.4651   -7.9073    5.0983 H         1 <0>         0.0000
     28 H11         2.5318   -6.8527    6.0319 H         1 <0>         0.0000
     29 H12         3.4689   -8.9225    3.9507 H         1 <0>         0.0000
     30 H13         4.5383   -7.8644    4.8812 H         1 <0>         0.0000
     31 H14         1.0478   -4.6445    1.8318 H         1 <0>         0.0000
     32 H15         2.1457   -3.5735    2.7642 H         1 <0>         0.0000
     33 H16         3.3316   -5.7610    3.9128 H         1 <0>         0.0000
     34 H17         2.2537   -6.8332    2.9630 H         1 <0>         0.0000
     35 H18        -0.7885   -0.1236    2.4159 H         1 <0>         0.0000
     36 H19        -1.7949   -1.3660    2.7717 H         1 <0>         0.0000
@<TRIPOS>BOND
     1    1    2 1
     2    1    3 1
     3    1   18 1
     4    1   19 1
     5    2    4 1
     6    2   20 1
     7    2   21 1
     8    3   11 1
     9    3   22 1
    10    3   23 1
    11    4    5 1
    12    4   11 1
    13    4   24 1
    14    5    8 1
    15    5   25 1
    16    5   26 1
    17    6    7 1
    18    6    9 1
    19    6   27 1
    20    6   28 1
    21    7   10 1
    22    7   29 1
    23    7   30 1
    24    8   17 1
    25    8   31 1
    26    8   32 1
    27    9   17 1
    28    9   33 1
    29    9   34 1
    30   10   14 1
    31   10   15 1
    32   10   16 1
    33   11   35 1
    34   11   36 1
    35   12   17 2
    36   13   17 2
