@<TRIPOS>MOLECULE
*****
   35    35     0     0     0
SMALL
NO_CHARGES

@<TRIPOS>ATOM
      1 C1         -1.1000   -1.1837   -0.8345 C.3       1 <0>         0.0000
      2 C2         -0.3272   -2.4191   -1.3740 C.3       1 <0>         0.0000
      3 C3         -0.2272   -0.6624    0.3246 C.3       1 <0>         0.0000
      4 C4          0.9257   -2.5291   -0.4760 C.3       1 <0>         0.0000
      5 C5          1.3942   -3.9586   -0.1965 C.3       1 <0>         0.0000
      6 C6          3.5196   -8.3788   -2.5847 C.3       1 <0>         0.0000
      7 C7          3.9392   -8.9312   -3.9523 C.3       1 <0>         0.0000
      8 C8          1.8528   -4.6540   -1.4787 C.3       1 <0>         0.0000
      9 C9          2.9743   -6.9578   -2.7316 C.3       1 <0>         0.0000
     10 C10         4.4879  -10.3401   -3.8733 C.3       1 <0>         0.0000
     11 N1          0.4914   -1.8671    0.7606 N.3       1 <0>         0.0000
     12 O1          1.3565   -7.1397   -0.6151 O.2       1 <0>         0.0000
     13 O2          3.7008   -6.1759   -0.2829 O.2       1 <0>         0.0000
     14 F1          4.8485  -10.7932   -5.1012 F         1 <0>         0.0000
     15 F2          5.5870  -10.4151   -3.0815 F         1 <0>         0.0000
     16 F3          3.5772  -11.2144   -3.3768 F         1 <0>         0.0000
     17 S1          2.4802   -6.3168   -1.0983 S.o2      1 <0>         0.0000
     18 H1         -1.2539   -0.4174   -1.5989 H         1 <0>         0.0000
     19 H2         -2.0836   -1.4833   -0.4645 H         1 <0>         0.0000
     20 H3         -0.9353   -3.3241   -1.2764 H         1 <0>         0.0000
     21 H4         -0.0566   -2.3152   -2.4286 H         1 <0>         0.0000
     22 H5          0.4538    0.1253   -0.0435 H         1 <0>         0.0000
     23 H6         -0.8155   -0.2436    1.1466 H         1 <0>         0.0000
     24 H7          1.7539   -1.9746   -0.9592 H         1 <0>         0.0000
     25 H8          0.5747   -4.5187    0.2625 H         1 <0>         0.0000
     26 H9          2.2244   -3.9420    0.5177 H         1 <0>         0.0000
     27 H10         2.7511   -9.0182   -2.1428 H         1 <0>         0.0000
     28 H11         4.3763   -8.3708   -1.9058 H         1 <0>         0.0000
     29 H12         3.0914   -8.9590   -4.6437 H         1 <0>         0.0000
     30 H13         4.7186   -8.3118   -4.4063 H         1 <0>         0.0000
     31 H14         1.0318   -4.7854   -2.1888 H         1 <0>         0.0000
     32 H15         2.6743   -4.1151   -1.9612 H         1 <0>         0.0000
     33 H16         3.7289   -6.2705   -3.1258 H         1 <0>         0.0000
     34 H17         2.0826   -6.9282   -3.3650 H         1 <0>         0.0000
     35 H18         1.2816   -1.6417    1.3614 H         1 <0>         0.0000
@<TRIPOS>BOND
     1    1    2 1
     2    1    3 1
     3    1   18 1
     4    1   19 1
     5    2    4 1
     6    2   20 1
     7    2   21 1
     8    3   11 1
     9    3   22 1
    10    3   23 1
    11    4    5 1
    12    4   11 1
    13    4   24 1
    14    5    8 1
    15    5   25 1
    16    5   26 1
    17    6    7 1
    18    6    9 1
    19    6   27 1
    20    6   28 1
    21    7   10 1
    22    7   29 1
    23    7   30 1
    24    8   17 1
    25    8   31 1
    26    8   32 1
    27    9   17 1
    28    9   33 1
    29    9   34 1
    30   10   14 1
    31   10   15 1
    32   10   16 1
    33   11   35 1
    34   12   17 2
    35   13   17 2
