@<TRIPOS>MOLECULE
*****
   31    32     0     0     0
SMALL
NO_CHARGES

@<TRIPOS>ATOM
      1 C1         -1.3600   -3.1600   -0.0890 C.ar      1 <0>         0.0000
      2 C2         -2.3460   -2.2490    0.2890 C.ar      1 <0>         0.0000
      3 C3          7.1750   -2.4790    0.0260 C.ar      1 <0>         0.0000
      4 C4          7.9240   -1.4010   -0.4310 C.ar      1 <0>         0.0000
      5 C5         -0.0310   -2.7580   -0.1960 C.ar      1 <0>         0.0000
      6 C6         -2.0100   -0.9240    0.5600 C.ar      1 <0>         0.0000
      7 C7          5.8030   -2.3220    0.1280 C.ar      1 <0>         0.0000
      8 C8          7.2840   -0.2100   -0.7650 C.ar      1 <0>         0.0000
      9 C9          0.3140   -1.4330    0.0830 C.ar      1 <0>         0.0000
     10 C10        -0.6800   -0.5150    0.4540 C.ar      1 <0>         0.0000
     11 C11         5.2370   -1.0940   -0.2380 C.ar      1 <0>         0.0000
     12 C12         2.8240   -1.6160   -0.0570 C.2       1 <0>         0.0000
     13 C13        -1.1980    1.8500    1.1500 C.3       1 <0>         0.0000
     14 N1          5.9620   -0.0630   -0.6660 N.ar      1 <0>         0.0000
     15 N2          1.6400   -0.9340   -0.0060 N.am      1 <0>         0.0000
     16 N3          3.8910   -0.7790   -0.1900 N.am      1 <0>         0.0000
     17 O1          2.9190   -2.8320    0.0100 O.2       1 <0>         0.0000
     18 O2         -0.3010    0.8050    0.7070 O.3       1 <0>         0.0000
     19 H1         -1.6230   -4.1660   -0.2980 H         1 <0>         0.0000
     20 H2         -3.3550   -2.5670    0.3680 H         1 <0>         0.0000
     21 H3          7.6400   -3.3950    0.2900 H         1 <0>         0.0000
     22 H4          8.9760   -1.4820   -0.5240 H         1 <0>         0.0000
     23 H5          0.7020   -3.4600   -0.4940 H         1 <0>         0.0000
     24 H6         -2.7670   -0.2410    0.8420 H         1 <0>         0.0000
     25 H7          5.2030   -3.1170    0.4810 H         1 <0>         0.0000
     26 H8          7.8500    0.6180   -1.1120 H         1 <0>         0.0000
     27 H9         -1.9580    2.0000    0.3830 H         1 <0>         0.0000
     28 H10        -0.6120    2.7590    1.2880 H         1 <0>         0.0000
     29 H11        -1.6460    1.5410    2.0960 H         1 <0>         0.0000
     30 H12         1.7070    0.0850    0.0820 H         1 <0>         0.0000
     31 H13         3.6980    0.2050   -0.3760 H         1 <0>         0.0000
@<TRIPOS>BOND
     1    1    2 ar
     2    1    5 ar
     3    1   19 1
     4    2    6 ar
     5    2   20 1
     6    3    4 ar
     7    3    7 ar
     8    3   21 1
     9    4    8 ar
    10    4   22 1
    11    5    9 ar
    12    5   23 1
    13    6   10 ar
    14    6   24 1
    15    7   11 ar
    16    7   25 1
    17    8   14 ar
    18    8   26 1
    19    9   10 ar
    20    9   15 1
    21   10   18 1
    22   11   14 ar
    23   11   16 1
    24   12   15 am
    25   12   16 am
    26   12   17 2
    27   13   18 1
    28   13   27 1
    29   13   28 1
    30   13   29 1
    31   15   30 1
    32   16   31 1
