@<TRIPOS>MOLECULE
*****
   33    35     0     0     0
SMALL
NO_CHARGES

@<TRIPOS>ATOM
      1 C1         -0.7036    1.3640    1.5041 C.ar      1 <0>         0.0000
      2 C2         -0.7671    0.1975    0.7446 C.ar      1 <0>         0.0000
      3 C3         -1.9893   -5.4127    1.9138 C.ar      1 <0>         0.0000
      4 C4         -1.6773    1.6439    2.4698 C.ar      1 <0>         0.0000
      5 C5         -2.7521   -4.3600    1.4084 C.ar      1 <0>         0.0000
      6 C6         -1.8022   -0.7245    0.9247 C.ar      1 <0>         0.0000
      7 C7         -1.9563   -5.6535    3.2874 C.ar      1 <0>         0.0000
      8 C8         -3.4490   -3.7888    3.6501 C.ar      1 <0>         0.0000
      9 C9         -4.5471   -0.4724    3.2738 C.2       1 <0>         0.0000
     10 C10        -2.7304    0.7292    2.6692 C.ar      1 <0>         0.0000
     11 C11        -3.4820   -3.5480    2.2765 C.ar      1 <0>         0.0000
     12 C12        -3.8586    0.6897    3.5356 C.2       1 <0>         0.0000
     13 C13        -2.7685   -0.4315    1.8936 C.ar      1 <0>         0.0000
     14 C14        -2.6862   -4.8415    4.1555 C.ar      1 <0>         0.0000
     15 C15        -4.3038   -2.4117    1.7306 C.3       1 <0>         0.0000
     16 C16        -4.2328    1.7079    4.5380 C.3       1 <0>         0.0000
     17 N1         -3.8818   -1.1421    2.2822 N.pl3     1 <0>         0.0000
     18 O1         -3.3741    1.6113    5.6739 O.3       1 <0>         0.0000
     19 Cl1        -2.6442   -5.1384    5.8502 Cl        1 <0>         0.0000
     20 H1          0.1109    2.0659    1.3456 H         1 <0>         0.0000
     21 H2         -0.0005   -0.0002   -0.0005 H         1 <0>         0.0000
     22 H3         -1.4210   -6.0447    1.2375 H         1 <0>         0.0000
     23 H4         -1.6142    2.5575    3.0539 H         1 <0>         0.0000
     24 H5         -2.7718   -4.1797    0.3368 H         1 <0>         0.0000
     25 H6         -1.8465   -1.6310    0.3306 H         1 <0>         0.0000
     26 H7         -1.3571   -6.4774    3.6672 H         1 <0>         0.0000
     27 H8         -4.0202   -3.1532    4.3228 H         1 <0>         0.0000
     28 H9         -5.4527   -0.8758    3.7075 H         1 <0>         0.0000
     29 H10        -4.2244   -2.3547    0.6382 H         1 <0>         0.0000
     30 H11        -5.3681   -2.5474    1.9584 H         1 <0>         0.0000
     31 H12        -4.1540    2.7336    4.1375 H         1 <0>         0.0000
     32 H13        -5.2737    1.5818    4.8834 H         1 <0>         0.0000
     33 H14        -3.6626    2.2972    6.2949 H         1 <0>         0.0000
@<TRIPOS>BOND
     1    1    2 ar
     2    1    4 ar
     3    1   20 1
     4    2    6 ar
     5    2   21 1
     6    3    5 ar
     7    3    7 ar
     8    3   22 1
     9    4   10 ar
    10    4   23 1
    11    5   11 ar
    12    5   24 1
    13    6   13 ar
    14    6   25 1
    15    7   14 ar
    16    7   26 1
    17    8   11 ar
    18    8   14 ar
    19    8   27 1
    20    9   12 2
    21    9   17 1
    22    9   28 1
    23   10   12 1
    24   10   13 ar
    25   11   15 1
    26   12   16 1
    27   13   17 1
    28   14   19 1
    29   15   17 1
    30   15   29 1
    31   15   30 1
    32   16   18 1
    33   16   31 1
    34   16   32 1
    35   18   33 1
