@<TRIPOS>MOLECULE
*****
   30    32     0     0     0
SMALL
NO_CHARGES

@<TRIPOS>ATOM
      1 C1         -1.3020    0.6600    0.7960 C.ar      1 <0>         0.0000
      2 C2         -0.2860    1.4080    0.2100 C.ar      1 <0>         0.0000
      3 C3         -1.1160   -0.6970    1.0350 C.ar      1 <0>         0.0000
      4 C4          5.9460    1.1910    0.1810 C.ar      1 <0>         0.0000
      5 C5          0.9180    0.8010   -0.1340 C.ar      1 <0>         0.0000
      6 C6          0.0880   -1.3060    0.6940 C.ar      1 <0>         0.0000
      7 C7          5.7550    0.4470   -0.9790 C.ar      1 <0>         0.0000
      8 C8          5.0240    1.1000    1.2220 C.ar      1 <0>         0.0000
      9 C9          1.1270   -0.5660    0.1110 C.ar      1 <0>         0.0000
     10 C10         3.6510   -0.4550   -0.0940 C.ar      1 <0>         0.0000
     11 C11         4.6380   -0.3860   -1.1040 C.ar      1 <0>         0.0000
     12 C12         3.9120    0.2830    1.0710 C.ar      1 <0>         0.0000
     13 C13         2.4000   -1.2110   -0.2410 C.2       1 <0>         0.0000
     14 C14         4.1160   -2.4290   -2.3710 C.2       1 <0>         0.0000
     15 C15         3.5760   -3.1360   -1.1330 C.3       1 <0>         0.0000
     16 N1          2.3680   -2.4130   -0.6810 N.2       1 <0>         0.0000
     17 N2          4.5730   -1.1500   -2.2860 N.am      1 <0>         0.0000
     18 O1          4.2040   -2.9470   -3.4630 O.2       1 <0>         0.0000
     19 F1          3.0620    0.2130    2.1310 F         1 <0>         0.0000
     20 H1         -2.2200    1.1240    1.0570 H         1 <0>         0.0000
     21 H2         -0.4310    2.4410    0.0230 H         1 <0>         0.0000
     22 H3         -1.8910   -1.2700    1.4770 H         1 <0>         0.0000
     23 H4          6.7970    1.8180    0.2790 H         1 <0>         0.0000
     24 H5          1.6790    1.3790   -0.5890 H         1 <0>         0.0000
     25 H6          0.2240   -2.3410    0.8740 H         1 <0>         0.0000
     26 H7          6.4670    0.5010   -1.7630 H         1 <0>         0.0000
     27 H8          5.1660    1.6460    2.1200 H         1 <0>         0.0000
     28 H9          3.3000   -4.1420   -1.4160 H         1 <0>         0.0000
     29 H10         4.3280   -3.1070   -0.3570 H         1 <0>         0.0000
     30 H11         4.9660   -0.7850   -3.1630 H         1 <0>         0.0000
@<TRIPOS>BOND
     1    1    2 ar
     2    1    3 ar
     3    1   20 1
     4    2    5 ar
     5    2   21 1
     6    3    6 ar
     7    3   22 1
     8    4    7 ar
     9    4    8 ar
    10    4   23 1
    11    5    9 ar
    12    5   24 1
    13    6    9 ar
    14    6   25 1
    15    7   11 ar
    16    7   26 1
    17    8   12 ar
    18    8   27 1
    19    9   13 1
    20   10   11 ar
    21   10   12 ar
    22   10   13 1
    23   11   17 1
    24   12   19 1
    25   13   16 2
    26   14   15 1
    27   14   17 am
    28   14   18 2
    29   15   16 1
    30   15   28 1
    31   15   29 1
    32   17   30 1
