@<TRIPOS>MOLECULE
*****
   18    18     0     0     0
SMALL
NO_CHARGES

@<TRIPOS>ATOM
      1 C1         -0.2469    3.0749    1.9810 C.3       1 <0>         0.0000
      2 C2         -1.3955    2.1995    2.3893 C.3       1 <0>         0.0000
      3 C3         -1.4141    2.8864    1.0517 C.3       1 <0>         0.0000
      4 C4         -1.5489    4.1924   -2.0219 C.3       1 <0>         0.0000
      5 N1         -0.7609    1.7357   -2.6861 N.2       1 <0>         0.0000
      6 N2         -1.2643    2.1051   -0.1910 N.pl3     1 <0>         0.0000
      7 O1          0.7269    3.2970   -1.1028 O.2       1 <0>         0.0000
      8 S1         -0.5461    2.7946   -1.5850 S.o       1 <0>         0.0000
      9 H1         -0.1440    4.0343    2.4733 H         1 <0>         0.0000
     10 H2          0.6926    2.5919    1.7414 H         1 <0>         0.0000
     11 H3         -1.2248    1.1303    2.4239 H         1 <0>         0.0000
     12 H4         -2.0651    2.5700    3.1560 H         1 <0>         0.0000
     13 H5         -2.0927    3.7278    0.9524 H         1 <0>         0.0000
     14 H6         -1.4182    4.9617   -1.2592 H         1 <0>         0.0000
     15 H7         -1.2218    4.5599   -2.9957 H         1 <0>         0.0000
     16 H8         -2.5900    3.8693   -2.0647 H         1 <0>         0.0000
     17 H9         -0.2275    0.8738   -2.5415 H         1 <0>         0.0000
     18 H10        -2.1562    1.6740   -0.4320 H         1 <0>         0.0000
@<TRIPOS>BOND
     1    1    2 1
     2    1    3 1
     3    1    9 1
     4    1   10 1
     5    2    3 1
     6    2   11 1
     7    2   12 1
     8    3    6 1
     9    3   13 1
    10    4    8 1
    11    4   14 1
    12    4   15 1
    13    4   16 1
    14    5    8 2
    15    5   17 1
    16    6    8 1
    17    6   18 1
    18    7    8 2
