@<TRIPOS>MOLECULE
*****
   40    44     0     0     0
SMALL
NO_CHARGES

@<TRIPOS>ATOM
      1 C1          1.9404   -0.9019    0.1958 C.ar      1 <0>         0.0000
      2 C2          0.5546   -0.8725    0.3361 C.ar      1 <0>         0.0000
      3 C3          2.6796   -2.0121    0.6193 C.ar      1 <0>         0.0000
      4 C4         -0.1355   -1.9480    0.9022 C.ar      1 <0>         0.0000
      5 C5          6.7999   -5.2591    2.8009 C.2       1 <0>         0.0000
      6 C6          2.0075   -3.1098    1.1942 C.ar      1 <0>         0.0000
      7 C7          2.4234   -4.3659    1.7207 C.2       1 <0>         0.0000
      8 C8          0.6147   -3.0525    1.3218 C.ar      1 <0>         0.0000
      9 C9          5.8628   -5.6607    3.7685 C.2       1 <0>         0.0000
     10 C10         1.2883   -5.0252    2.1418 C.2       1 <0>         0.0000
     11 C11         7.6389   -4.4221    3.4877 C.2       1 <0>         0.0000
     12 C12         4.7270   -6.5618    3.5928 C.2       1 <0>         0.0000
     13 C13         3.7899   -4.9537    1.8305 C.3       1 <0>         0.0000
     14 C14         1.2582   -6.3699    2.7677 C.3       1 <0>         0.0000
     15 C15         8.6572   -2.8069    1.6910 C.3       1 <0>         0.0000
     16 C16         8.9346   -2.1905    3.0264 C.3       1 <0>         0.0000
     17 C17         2.5799   -7.0821    2.4394 C.3       1 <0>         0.0000
     18 C18         8.8507   -3.6985    2.9012 C.3       1 <0>         0.0000
     19 N1          6.1023   -5.1145    4.9640 N.2       1 <0>         0.0000
     20 N2          0.2041   -4.2331    1.9042 N.pl3     1 <0>         0.0000
     21 N3          3.7434   -6.1924    2.6526 N.am      1 <0>         0.0000
     22 O1          4.6501   -7.5988    4.2546 O.2       1 <0>         0.0000
     23 O2          7.2329   -4.3277    4.7797 O.3       1 <0>         0.0000
     24 H1          2.4546   -0.0537   -0.2482 H         1 <0>         0.0000
     25 H2         -0.0000   -0.0002   -0.0003 H         1 <0>         0.0000
     26 H3          3.7597   -2.0204    0.5030 H         1 <0>         0.0000
     27 H4         -1.2148   -1.9235    1.0101 H         1 <0>         0.0000
     28 H5          6.8571   -5.5370    1.7584 H         1 <0>         0.0000
     29 H6          4.1603   -5.2391    0.8397 H         1 <0>         0.0000
     30 H7          4.4787   -4.2232    2.2632 H         1 <0>         0.0000
     31 H8          1.1473   -6.2683    3.8534 H         1 <0>         0.0000
     32 H9          0.4145   -6.9592    2.3931 H         1 <0>         0.0000
     33 H10         7.6590   -2.6994    1.2836 H         1 <0>         0.0000
     34 H11         9.4462   -2.7827    0.9491 H         1 <0>         0.0000
     35 H12         9.9110   -1.7496    3.1867 H         1 <0>         0.0000
     36 H13         8.1232   -1.6667    3.5173 H         1 <0>         0.0000
     37 H14         2.6677   -7.9924    3.0411 H         1 <0>         0.0000
     38 H15         2.6035   -7.3849    1.3848 H         1 <0>         0.0000
     39 H16         9.7900   -4.2441    2.9582 H         1 <0>         0.0000
     40 H17        -0.7547   -4.4698    2.1200 H         1 <0>         0.0000
@<TRIPOS>BOND
     1    1    2 ar
     2    1    3 ar
     3    1   24 1
     4    2    4 ar
     5    2   25 1
     6    3    6 ar
     7    3   26 1
     8    4    8 ar
     9    4   27 1
    10    5    9 1
    11    5   11 2
    12    5   28 1
    13    6    7 1
    14    6    8 ar
    15    7   10 2
    16    7   13 1
    17    8   20 1
    18    9   12 1
    19    9   19 2
    20   10   14 1
    21   10   20 1
    22   11   18 1
    23   11   23 1
    24   12   21 am
    25   12   22 2
    26   13   21 1
    27   13   29 1
    28   13   30 1
    29   14   17 1
    30   14   31 1
    31   14   32 1
    32   15   16 1
    33   15   18 1
    34   15   33 1
    35   15   34 1
    36   16   18 1
    37   16   35 1
    38   16   36 1
    39   17   21 1
    40   17   37 1
    41   17   38 1
    42   18   39 1
    43   19   23 1
    44   20   40 1
