@<TRIPOS>MOLECULE
*****
   21    21     0     0     0
SMALL
NO_CHARGES

@<TRIPOS>ATOM
      1 C1          2.1275   -0.7338   -0.1645 C.ar      1 <0>         0.0000
      2 C2          1.0712   -0.1382    0.5356 C.ar      1 <0>         0.0000
      3 C3          2.9959   -1.6177    0.4793 C.ar      1 <0>         0.0000
      4 C4          1.7364   -1.3070    2.5486 C.ar      1 <0>         0.0000
      5 C5          0.8697   -0.4176    1.8937 C.ar      1 <0>         0.0000
      6 C6          2.7751   -1.8823    1.8294 C.ar      1 <0>         0.0000
      7 C7         -1.2861   -0.8581    3.0728 C.2       1 <0>         0.0000
      8 C8         -0.2843    0.1993    2.6620 C.3       1 <0>         0.0000
      9 N1         -1.4089   -1.3741    4.2463 N.2       1 <0>         0.0000
     10 N2         -2.1701   -1.2775    2.0750 N.pl3     1 <0>         0.0000
     11 O1         -0.4936   -0.7875    5.1745 O.3       1 <0>         0.0000
     12 F1          3.6139   -2.7402    2.4679 F         1 <0>         0.0000
     13 H1          2.2766   -0.5068   -1.2167 H         1 <0>         0.0000
     14 H2          0.4075    0.5552    0.0246 H         1 <0>         0.0000
     15 H3          3.8235   -2.0929   -0.0380 H         1 <0>         0.0000
     16 H4          1.5990   -1.5471    3.5991 H         1 <0>         0.0000
     17 H5          0.0811    0.7005    3.5593 H         1 <0>         0.0000
     18 H6         -0.7986    0.9375    2.0405 H         1 <0>         0.0000
     19 H7         -1.7186   -1.3901    1.1714 H         1 <0>         0.0000
     20 H8         -2.6800   -2.1159    2.3400 H         1 <0>         0.0000
     21 H9         -0.7528   -1.2198    6.0034 H         1 <0>         0.0000
@<TRIPOS>BOND
     1    1    2 ar
     2    1    3 ar
     3    1   13 1
     4    2    5 ar
     5    2   14 1
     6    3    6 ar
     7    3   15 1
     8    4    5 ar
     9    4    6 ar
    10    4   16 1
    11    5    8 1
    12    6   12 1
    13    7    8 1
    14    7    9 2
    15    7   10 1
    16    8   17 1
    17    8   18 1
    18    9   11 1
    19   10   19 1
    20   10   20 1
    21   11   21 1
