@<TRIPOS>MOLECULE
*****
   48    48     0     0     0
SMALL
NO_CHARGES

@<TRIPOS>ATOM
      1 C1          1.5372    0.0366   -0.3576 C.2       1 <0>         0.0000
      2 C2          0.4819    0.9244   -2.8637 C.2       1 <0>         0.0000
      3 C3         -1.5273   -0.3244    1.2754 C.3       1 <0>         0.0000
      4 C4         -0.5841    1.4373    0.1735 C.3       1 <0>         0.0000
      5 C5         -0.6433   -0.9962    0.2312 C.3       1 <0>         0.0000
      6 C6          0.0090    0.1995   -0.5623 C.3       1 <0>         0.0000
      7 C7          4.3729    0.8728    0.4794 C.3       1 <0>         0.0000
      8 C8          3.1760    1.2038    2.6703 C.3       1 <0>         0.0000
      9 C9          3.3739   -1.1125    1.7002 C.3       1 <0>         0.0000
     10 C10         1.3898    3.6032   -3.9768 C.3       1 <0>         0.0000
     11 C11         2.4863    3.7727   -1.7241 C.3       1 <0>         0.0000
     12 C12         3.2568    1.9965   -3.3407 C.3       1 <0>         0.0000
     13 C13         3.2373    0.3797    1.3819 C.3       1 <0>         0.0000
     14 C14         2.0610    2.8170   -2.8438 C.3       1 <0>         0.0000
     15 N1         -0.2783    0.1687   -1.9990 N.am      1 <0>         0.0000
     16 O1         -2.7483   -0.1057   -1.4187 O.3       1 <0>         0.0000
     17 O2          2.2643   -0.5973   -1.0920 O.2       1 <0>         0.0000
     18 O3          0.6031    0.7509   -4.0606 O.2       1 <0>         0.0000
     19 O4         -2.1736    0.3372   -3.7979 O.2       1 <0>         0.0000
     20 O5         -1.6970   -1.9000   -2.7708 O.2       1 <0>         0.0000
     21 O6         -0.9960    0.9905    1.4669 O.3       1 <0>         0.0000
     22 O7          1.9266    0.6481    0.7789 O.3       1 <0>         0.0000
     23 O8          1.0911    1.9569   -2.1743 O.3       1 <0>         0.0000
     24 F1          0.3609   -1.7499    0.9027 F         1 <0>         0.0000
     25 S1         -1.9074   -0.4525   -2.5928 S.o2      1 <0>         0.0000
     26 H1         -2.5538   -0.2805    0.9007 H         1 <0>         0.0000
     27 H2         -1.4849   -0.8540    2.2308 H         1 <0>         0.0000
     28 H3          0.1387    2.2385    0.3094 H         1 <0>         0.0000
     29 H4         -1.4419    1.7870   -0.4101 H         1 <0>         0.0000
     30 H5         -1.1546   -1.7024   -0.4158 H         1 <0>         0.0000
     31 H6          4.4186    0.2963   -0.4444 H         1 <0>         0.0000
     32 H7          4.2363    1.9291    0.2310 H         1 <0>         0.0000
     33 H8          5.3263    0.7699    1.0106 H         1 <0>         0.0000
     34 H9          2.3316    0.8805    3.2853 H         1 <0>         0.0000
     35 H10         3.0427    2.2652    2.4388 H         1 <0>         0.0000
     36 H11         4.1017    1.0828    3.2426 H         1 <0>         0.0000
     37 H12         2.5250   -1.4509    2.2990 H         1 <0>         0.0000
     38 H13         3.4109   -1.7092    0.7882 H         1 <0>         0.0000
     39 H14         4.2969   -1.2755    2.2684 H         1 <0>         0.0000
     40 H15         1.0861    2.9398   -4.7860 H         1 <0>         0.0000
     41 H16         0.5014    4.1197   -3.5988 H         1 <0>         0.0000
     42 H17         2.0882    4.3546   -4.3646 H         1 <0>         0.0000
     43 H18         2.9006    3.2142   -0.8814 H         1 <0>         0.0000
     44 H19         1.6244    4.3431   -1.3637 H         1 <0>         0.0000
     45 H20         3.2434    4.4748   -2.0895 H         1 <0>         0.0000
     46 H21         3.6665    1.3938   -2.5262 H         1 <0>         0.0000
     47 H22         2.9588    1.3269   -4.1480 H         1 <0>         0.0000
     48 H23         4.0384    2.6726   -3.7071 H         1 <0>         0.0000
@<TRIPOS>BOND
     1    1    6 1
     2    1   17 2
     3    1   22 1
     4    2   15 am
     5    2   18 2
     6    2   23 1
     7    3    5 1
     8    3   21 1
     9    3   26 1
    10    3   27 1
    11    4    6 1
    12    4   21 1
    13    4   28 1
    14    4   29 1
    15    5    6 1
    16    5   24 1
    17    5   30 1
    18    6   15 1
    19    7   13 1
    20    7   31 1
    21    7   32 1
    22    7   33 1
    23    8   13 1
    24    8   34 1
    25    8   35 1
    26    8   36 1
    27    9   13 1
    28    9   37 1
    29    9   38 1
    30    9   39 1
    31   10   14 1
    32   10   40 1
    33   10   41 1
    34   10   42 1
    35   11   14 1
    36   11   43 1
    37   11   44 1
    38   11   45 1
    39   12   14 1
    40   12   46 1
    41   12   47 1
    42   12   48 1
    43   13   22 1
    44   14   23 1
    45   15   25 1
    46   16   25 1
    47   19   25 2
    48   20   25 2
