@<TRIPOS>MOLECULE
*****
   74    76     0     0     0
SMALL
NO_CHARGES

@<TRIPOS>ATOM
      1 C1          1.3011    3.6243    1.0089 C.ar      1 <0>         0.0000
      2 C2          1.0017    3.8981    2.3470 C.ar      1 <0>         0.0000
      3 C3          0.9954    2.3824    0.4492 C.ar      1 <0>         0.0000
      4 C4          0.0814    1.6831    2.5657 C.ar      1 <0>         0.0000
      5 C5          0.3963    2.9209    3.1434 C.ar      1 <0>         0.0000
      6 C6          0.3667    1.4017    1.2250 C.ar      1 <0>         0.0000
      7 C7          0.7578    2.2034    5.5513 C.3       1 <0>         0.0000
      8 C8         -1.3343   -0.5185    1.0342 C.3       1 <0>         0.0000
      9 C9          2.1037    2.8877    5.7306 C.3       1 <0>         0.0000
     10 C10        -1.9304   -0.9018   -0.3179 C.3       1 <0>         0.0000
     11 C11         0.0459    3.1911    4.6107 C.3       1 <0>         0.0000
     12 C12         0.0759    0.0188    0.6477 C.3       1 <0>         0.0000
     13 C13        -1.4730    3.2352    4.8047 C.3       1 <0>         0.0000
     14 C14         1.1960   -0.9538    1.0390 C.3       1 <0>         0.0000
     15 C15         4.0090    4.9399    6.3511 C.3       1 <0>         0.0000
     16 C16        -0.3860   -1.2654   -3.0977 C.3       1 <0>         0.0000
     17 C17         1.3773    7.2206    4.5636 C.3       1 <0>         0.0000
     18 C18         1.4840    6.8968    7.0552 C.3       1 <0>         0.0000
     19 C19         3.4811    7.7116    5.7710 C.3       1 <0>         0.0000
     20 C20        -2.7077    1.8861   -3.1026 C.3       1 <0>         0.0000
     21 C21        -0.2112    1.9549   -3.2600 C.3       1 <0>         0.0000
     22 C22        -1.5511    0.7186   -4.9913 C.3       1 <0>         0.0000
     23 C23         2.7512    5.2763    5.5315 C.3       1 <0>         0.0000
     24 C24        -1.4181   -0.2211   -2.6426 C.3       1 <0>         0.0000
     25 C25         2.2672    6.7573    5.7377 C.3       1 <0>         0.0000
     26 C26        -1.4547    1.0816   -3.4974 C.3       1 <0>         0.0000
     27 N1          1.7205    4.2932    5.9209 N.3       1 <0>         0.0000
     28 N2         -1.3355    0.1048   -1.2006 N.3       1 <0>         0.0000
     29 O1          0.5564    4.4753    5.0201 O.3       1 <0>         0.0000
     30 O2          0.0764    0.0485   -0.7954 O.3       1 <0>         0.0000
     31 H1          1.7768    4.3876    0.3976 H         1 <0>         0.0000
     32 H2          1.2314    4.8644    2.7795 H         1 <0>         0.0000
     33 H3          1.2328    2.1651   -0.5857 H         1 <0>         0.0000
     34 H4         -0.3973    0.9193    3.1759 H         1 <0>         0.0000
     35 H5          0.8465    1.2003    5.1320 H         1 <0>         0.0000
     36 H6          0.2300    2.1483    6.5081 H         1 <0>         0.0000
     37 H7         -1.9312    0.2697    1.4958 H         1 <0>         0.0000
     38 H8         -1.2789   -1.3649    1.7236 H         1 <0>         0.0000
     39 H9          2.6367    2.5337    6.6150 H         1 <0>         0.0000
     40 H10         2.7357    2.7355    4.8404 H         1 <0>         0.0000
     41 H11        -1.6528   -1.9299   -0.6003 H         1 <0>         0.0000
     42 H12        -3.0191   -0.8051   -0.3475 H         1 <0>         0.0000
     43 H13        -1.7070    3.4620    5.8487 H         1 <0>         0.0000
     44 H14        -1.9278    2.2768    4.5361 H         1 <0>         0.0000
     45 H15        -1.9117    4.0092    4.1687 H         1 <0>         0.0000
     46 H16         0.9779   -1.9557    0.6558 H         1 <0>         0.0000
     47 H17         1.2983   -1.0001    2.1275 H         1 <0>         0.0000
     48 H18         2.1489   -0.6183    0.6197 H         1 <0>         0.0000
     49 H19         3.8180    5.0247    7.4254 H         1 <0>         0.0000
     50 H20         4.8275    5.6107    6.0902 H         1 <0>         0.0000
     51 H21         4.3571    3.9252    6.1471 H         1 <0>         0.0000
     52 H22         0.6175   -0.8422   -3.1690 H         1 <0>         0.0000
     53 H23        -0.6638   -1.6725   -4.0728 H         1 <0>         0.0000
     54 H24        -0.3383   -2.0987   -2.3914 H         1 <0>         0.0000
     55 H25         1.9142    7.1369    3.6105 H         1 <0>         0.0000
     56 H26         0.4603    6.6381    4.4917 H         1 <0>         0.0000
     57 H27         1.1093    8.2753    4.6965 H         1 <0>         0.0000
     58 H28         2.0765    6.5658    7.9147 H         1 <0>         0.0000
     59 H29         0.5678    6.3030    7.0328 H         1 <0>         0.0000
     60 H30         1.2156    7.9470    7.2190 H         1 <0>         0.0000
     61 H31         4.0881    7.5883    6.6723 H         1 <0>         0.0000
     62 H32         3.1312    8.7491    5.7542 H         1 <0>         0.0000
     63 H33         4.1305    7.5716    4.8981 H         1 <0>         0.0000
     64 H34        -3.6241    1.3256   -3.3272 H         1 <0>         0.0000
     65 H35        -2.6985    2.1142   -2.0336 H         1 <0>         0.0000
     66 H36        -2.7512    2.8299   -3.6578 H         1 <0>         0.0000
     67 H37         0.7177    1.4100   -3.4561 H         1 <0>         0.0000
     68 H38        -0.1844    2.3127   -2.2292 H         1 <0>         0.0000
     69 H39        -0.2336    2.8267   -3.9241 H         1 <0>         0.0000
     70 H40        -0.6291    0.2625   -5.3645 H         1 <0>         0.0000
     71 H41        -1.7356    1.6203   -5.5855 H         1 <0>         0.0000
     72 H42        -2.3764    0.0218   -5.1836 H         1 <0>         0.0000
     73 H43         2.9993    5.1486    4.4634 H         1 <0>         0.0000
     74 H44        -2.4128   -0.6740   -2.7495 H         1 <0>         0.0000
@<TRIPOS>BOND
     1    1    2 ar
     2    1    3 ar
     3    1   31 1
     4    2    5 ar
     5    2   32 1
     6    3    6 ar
     7    3   33 1
     8    4    5 ar
     9    4    6 ar
    10    4   34 1
    11    5   11 1
    12    6   12 1
    13    7    9 1
    14    7   11 1
    15    7   35 1
    16    7   36 1
    17    8   10 1
    18    8   12 1
    19    8   37 1
    20    8   38 1
    21    9   27 1
    22    9   39 1
    23    9   40 1
    24   10   28 1
    25   10   41 1
    26   10   42 1
    27   11   13 1
    28   11   29 1
    29   12   14 1
    30   12   30 1
    31   13   43 1
    32   13   44 1
    33   13   45 1
    34   14   46 1
    35   14   47 1
    36   14   48 1
    37   15   23 1
    38   15   49 1
    39   15   50 1
    40   15   51 1
    41   16   24 1
    42   16   52 1
    43   16   53 1
    44   16   54 1
    45   17   25 1
    46   17   55 1
    47   17   56 1
    48   17   57 1
    49   18   25 1
    50   18   58 1
    51   18   59 1
    52   18   60 1
    53   19   25 1
    54   19   61 1
    55   19   62 1
    56   19   63 1
    57   20   26 1
    58   20   64 1
    59   20   65 1
    60   20   66 1
    61   21   26 1
    62   21   67 1
    63   21   68 1
    64   21   69 1
    65   22   26 1
    66   22   70 1
    67   22   71 1
    68   22   72 1
    69   23   25 1
    70   23   27 1
    71   23   73 1
    72   24   26 1
    73   24   28 1
    74   24   74 1
    75   27   29 1
    76   28   30 1
