@<TRIPOS>MOLECULE
*****
   47    48     0     0     0
SMALL
NO_CHARGES

@<TRIPOS>ATOM
      1 C1          0.7025    1.6779    0.0889 C.2       1 <0>         0.0000
      2 C2         -1.2858   -0.5696   -0.5254 C.2       1 <0>         0.0000
      3 C3          3.0107   -1.1174   -0.6524 C.3       1 <0>         0.0000
      4 C4          1.5031    0.1567   -1.8434 C.3       1 <0>         0.0000
      5 C5          2.2839   -0.2816    0.4084 C.3       1 <0>         0.0000
      6 C6          1.0455    0.2495   -0.3663 C.3       1 <0>         0.0000
      7 C7         -1.3392    3.7956    0.7224 C.3       1 <0>         0.0000
      8 C8         -1.6937    2.3214    2.7408 C.3       1 <0>         0.0000
      9 C9          0.4974    3.5435    2.4716 C.3       1 <0>         0.0000
     10 C10        -3.8229   -1.7355   -1.7087 C.3       1 <0>         0.0000
     11 C11        -4.0166   -2.6560    0.6352 C.3       1 <0>         0.0000
     12 C12        -4.1382   -0.1624    0.2701 C.3       1 <0>         0.0000
     13 C13        -0.6737    2.8777    1.7483 C.3       1 <0>         0.0000
     14 C14        -3.5498   -1.4837   -0.2257 C.3       1 <0>         0.0000
     15 N1          0.0130   -0.7225   -0.0295 N.am      1 <0>         0.0000
     16 O1          1.2689    2.6509   -0.3689 O.2       1 <0>         0.0000
     17 O2         -1.5518    0.2854   -1.3509 O.2       1 <0>         0.0000
     18 O3          0.4685   -3.0581    1.0072 O.2       1 <0>         0.0000
     19 O4         -0.4558   -1.2702    2.5228 O.2       1 <0>         0.0000
     20 O5          2.8508   -0.3393   -1.8295 O.3       1 <0>         0.0000
     21 O6          1.8385   -0.9989    1.5693 O.3       1 <0>         0.0000
     22 O7         -0.1935    1.6461    1.0715 O.3       1 <0>         0.0000
     23 O8         -2.0834   -1.4851    0.0178 O.3       1 <0>         0.0000
     24 S1          0.3424   -1.6617    1.3792 S.o2      1 <0>         0.0000
     25 H1          4.0778   -1.2288   -0.4547 H         1 <0>         0.0000
     26 H2          2.5469   -2.1102   -0.7399 H         1 <0>         0.0000
     27 H3          0.8446   -0.5275   -2.3865 H         1 <0>         0.0000
     28 H4          1.5097    1.1327   -2.3251 H         1 <0>         0.0000
     29 H5          2.9042    0.5359    0.7740 H         1 <0>         0.0000
     30 H6         -0.6111    4.2220    0.0314 H         1 <0>         0.0000
     31 H7         -2.0884    3.2418    0.1489 H         1 <0>         0.0000
     32 H8         -1.8434    4.6125    1.2486 H         1 <0>         0.0000
     33 H9         -1.2294    1.5769    3.3927 H         1 <0>         0.0000
     34 H10        -2.5213    1.8429    2.2104 H         1 <0>         0.0000
     35 H11        -2.0956    3.1326    3.3548 H         1 <0>         0.0000
     36 H12         0.9788    2.8326    3.1504 H         1 <0>         0.0000
     37 H13         1.2376    3.9247    1.7667 H         1 <0>         0.0000
     38 H14         0.1223    4.3814    3.0677 H         1 <0>         0.0000
     39 H15        -3.4928   -0.8980   -2.3244 H         1 <0>         0.0000
     40 H16        -3.3131   -2.6452   -2.0400 H         1 <0>         0.0000
     41 H17        -4.8986   -1.8758   -1.8553 H         1 <0>         0.0000
     42 H18        -3.7518   -2.4911    1.6830 H         1 <0>         0.0000
     43 H19        -3.5483   -3.5867    0.3036 H         1 <0>         0.0000
     44 H20        -5.1024   -2.7625    0.5576 H         1 <0>         0.0000
     45 H21        -3.8660    0.0022    1.3167 H         1 <0>         0.0000
     46 H22        -3.7899    0.6804   -0.3289 H         1 <0>         0.0000
     47 H23        -5.2296   -0.2080    0.2032 H         1 <0>         0.0000
@<TRIPOS>BOND
     1    1    6 1
     2    1   16 2
     3    1   22 1
     4    2   15 am
     5    2   17 2
     6    2   23 1
     7    3    5 1
     8    3   20 1
     9    3   25 1
    10    3   26 1
    11    4    6 1
    12    4   20 1
    13    4   27 1
    14    4   28 1
    15    5    6 1
    16    5   21 1
    17    5   29 1
    18    6   15 1
    19    7   13 1
    20    7   30 1
    21    7   31 1
    22    7   32 1
    23    8   13 1
    24    8   33 1
    25    8   34 1
    26    8   35 1
    27    9   13 1
    28    9   36 1
    29    9   37 1
    30    9   38 1
    31   10   14 1
    32   10   39 1
    33   10   40 1
    34   10   41 1
    35   11   14 1
    36   11   42 1
    37   11   43 1
    38   11   44 1
    39   12   14 1
    40   12   45 1
    41   12   46 1
    42   12   47 1
    43   13   22 1
    44   14   23 1
    45   15   24 1
    46   18   24 2
    47   19   24 2
    48   21   24 1
