@<TRIPOS>MOLECULE
*****
   49    49     0     0     0
SMALL
NO_CHARGES

@<TRIPOS>ATOM
      1 C1          1.3493    1.0932    0.2697 C.2       1 <0>         0.0000
      2 C2         -0.1002   -0.8131   -2.1958 C.2       1 <0>         0.0000
      3 C3         -1.7211    1.5456    1.0808 C.3       1 <0>         0.0000
      4 C4         -0.5650    2.5625   -0.6088 C.3       1 <0>         0.0000
      5 C5         -1.0506    0.3900    0.3392 C.3       1 <0>         0.0000
      6 C6          0.0277    1.1146   -0.5301 C.3       1 <0>         0.0000
      7 C7          3.4530   -0.5131    1.7365 C.3       1 <0>         0.0000
      8 C8          4.1188   -1.0721   -0.6348 C.3       1 <0>         0.0000
      9 C9          4.3517    1.3023    0.1859 C.3       1 <0>         0.0000
     10 C10        -1.1199   -3.1430   -3.9960 C.3       1 <0>         0.0000
     11 C11         0.3984   -1.9403   -5.6201 C.3       1 <0>         0.0000
     12 C12         1.3782   -2.9446   -3.5282 C.3       1 <0>         0.0000
     13 C13         3.5592   -0.0004    0.3003 C.3       1 <0>         0.0000
     14 C14         0.1431   -2.2993   -4.1571 C.3       1 <0>         0.0000
     15 N1          0.1932    0.5268   -1.8847 N.am      1 <0>         0.0000
     16 O1          1.5155    1.7926    1.2486 O.2       1 <0>         0.0000
     17 O2         -0.3708   -1.6727   -1.3892 O.2       1 <0>         0.0000
     18 O3          2.3592    0.3857   -3.3588 O.2       1 <0>         0.0000
     19 O4          1.6720    2.5704   -2.2850 O.2       1 <0>         0.0000
     20 O5         -1.8214    2.5465    0.0794 O.3       1 <0>         0.0000
     21 O6          0.3953    1.6997   -4.1930 O.3       1 <0>         0.0000
     22 O7          2.1954    0.2098   -0.2504 O.3       1 <0>         0.0000
     23 O8         -0.0878   -0.9565   -3.5424 O.3       1 <0>         0.0000
     24 F1         -0.5053   -0.5313    1.2207 F         1 <0>         0.0000
     25 S1          1.3337    1.3186   -2.9273 S.o2      1 <0>         0.0000
     26 H1         -2.7263    1.2968    1.4258 H         1 <0>         0.0000
     27 H2         -1.0990    1.8623    1.9274 H         1 <0>         0.0000
     28 H3          0.1235    3.2655   -0.1360 H         1 <0>         0.0000
     29 H4         -0.7583    2.8695   -1.6346 H         1 <0>         0.0000
     30 H5         -1.7664   -0.1305   -0.2944 H         1 <0>         0.0000
     31 H6          3.0663    0.2542    2.4079 H         1 <0>         0.0000
     32 H7          2.7947   -1.3858    1.7801 H         1 <0>         0.0000
     33 H8          4.4472   -0.8140    2.0825 H         1 <0>         0.0000
     34 H9          4.1147   -0.7157   -1.6679 H         1 <0>         0.0000
     35 H10         3.5134   -1.9818   -0.5783 H         1 <0>         0.0000
     36 H11         5.1452   -1.3174   -0.3464 H         1 <0>         0.0000
     37 H12         4.3230    1.6758   -0.8416 H         1 <0>         0.0000
     38 H13         3.9576    2.0702    0.8527 H         1 <0>         0.0000
     39 H14         5.3955    1.1099    0.4541 H         1 <0>         0.0000
     40 H15        -1.3100   -3.3694   -2.9463 H         1 <0>         0.0000
     41 H16        -1.9872   -2.6194   -4.4099 H         1 <0>         0.0000
     42 H17        -0.9967   -4.0840   -4.5419 H         1 <0>         0.0000
     43 H18         1.2853   -1.3065   -5.7122 H         1 <0>         0.0000
     44 H19        -0.4636   -1.4187   -6.0493 H         1 <0>         0.0000
     45 H20         0.5642   -2.8511   -6.2020 H         1 <0>         0.0000
     46 H21         2.2241   -2.2534   -3.5580 H         1 <0>         0.0000
     47 H22         1.1956   -3.2416   -2.4947 H         1 <0>         0.0000
     48 H23         1.6388   -3.8394   -4.1020 H         1 <0>         0.0000
     49 H24         0.0596    0.8510   -4.5581 H         1 <0>         0.0000
@<TRIPOS>BOND
     1    1    6 1
     2    1   16 2
     3    1   22 1
     4    2   15 am
     5    2   17 2
     6    2   23 1
     7    3    5 1
     8    3   20 1
     9    3   26 1
    10    3   27 1
    11    4    6 1
    12    4   20 1
    13    4   28 1
    14    4   29 1
    15    5    6 1
    16    5   24 1
    17    5   30 1
    18    6   15 1
    19    7   13 1
    20    7   31 1
    21    7   32 1
    22    7   33 1
    23    8   13 1
    24    8   34 1
    25    8   35 1
    26    8   36 1
    27    9   13 1
    28    9   37 1
    29    9   38 1
    30    9   39 1
    31   10   14 1
    32   10   40 1
    33   10   41 1
    34   10   42 1
    35   11   14 1
    36   11   43 1
    37   11   44 1
    38   11   45 1
    39   12   14 1
    40   12   46 1
    41   12   47 1
    42   12   48 1
    43   13   22 1
    44   14   23 1
    45   15   25 1
    46   18   25 2
    47   19   25 2
    48   21   25 1
    49   21   49 1
