@<TRIPOS>MOLECULE
*****
   43    45     0     0     0
SMALL
NO_CHARGES

@<TRIPOS>ATOM
      1 C1          0.2100   -5.6038    5.2542 C.ar      1 <0>         0.0000
      2 C2          1.8843   -7.0375    4.2659 C.ar      1 <0>         0.0000
      3 C3          0.5528   -4.5872    4.3633 C.ar      1 <0>         0.0000
      4 C4          2.2264   -6.0182    3.3814 C.ar      1 <0>         0.0000
      5 C5          2.1089   -0.5038    4.1402 C.2       1 <0>         0.0000
      6 C6          1.3411   -1.4416    3.4842 C.2       1 <0>         0.0000
      7 C7          3.4630   -2.0436    3.5151 C.2       1 <0>         0.0000
      8 C8          0.8678   -6.8441    5.2148 C.ar      1 <0>         0.0000
      9 C9          1.5629   -4.7830    3.4126 C.ar      1 <0>         0.0000
     10 C10         0.5331   -7.9675    6.1488 C.2       1 <0>         0.0000
     11 C11         2.0796   -4.2417   -1.3439 C.3       1 <0>         0.0000
     12 C12         1.6835   -5.3260   -0.3316 C.3       1 <0>         0.0000
     13 C13         2.4122   -2.9157   -0.6454 C.3       1 <0>         0.0000
     14 C14         0.5426   -4.8515    0.5811 C.3       1 <0>         0.0000
     15 C15         1.2651   -2.4543    0.2666 C.3       1 <0>         0.0000
     16 C16         0.8569   -3.5240    1.3010 C.3       1 <0>         0.0000
     17 C17        -0.5439   -7.7484    7.1966 C.3       1 <0>         0.0000
     18 C18         1.9285   -3.7021    2.4078 C.3       1 <0>         0.0000
     19 N1          3.4336   -0.8889    4.1541 N.2       1 <0>         0.0000
     20 N2          2.2229   -2.4293    3.0765 N.pl3     1 <0>         0.0000
     21 O1          1.1177   -9.0423    6.0684 O.2       1 <0>         0.0000
     22 H1         -0.5732   -5.4204    5.9834 H         1 <0>         0.0000
     23 H2          2.3949   -7.9952    4.2436 H         1 <0>         0.0000
     24 H3          0.0418   -3.6312    4.4238 H         1 <0>         0.0000
     25 H4          3.0185   -6.1831    2.6545 H         1 <0>         0.0000
     26 H5          1.7831    0.4242    4.5925 H         1 <0>         0.0000
     27 H6          0.2873   -1.4722    3.2526 H         1 <0>         0.0000
     28 H7          4.3436   -2.6490    3.3383 H         1 <0>         0.0000
     29 H8          1.2437   -4.0798   -2.0385 H         1 <0>         0.0000
     30 H9          2.9294   -4.5778   -1.9492 H         1 <0>         0.0000
     31 H10         1.3767   -6.2393   -0.8538 H         1 <0>         0.0000
     32 H11         2.5596   -5.6015    0.2698 H         1 <0>         0.0000
     33 H12         3.3343   -3.0284   -0.0601 H         1 <0>         0.0000
     34 H13         2.6214   -2.1379   -1.3883 H         1 <0>         0.0000
     35 H14        -0.3510   -4.6877   -0.0346 H         1 <0>         0.0000
     36 H15         0.2811   -5.6296    1.3043 H         1 <0>         0.0000
     37 H16         1.5311   -1.5179    0.7648 H         1 <0>         0.0000
     38 H17         0.3856   -2.2398   -0.3546 H         1 <0>         0.0000
     39 H18        -0.0642   -3.1973    1.7991 H         1 <0>         0.0000
     40 H19        -1.5025   -7.5032    6.7266 H         1 <0>         0.0000
     41 H20        -0.2812   -6.9163    7.8587 H         1 <0>         0.0000
     42 H21        -0.6538   -8.6591    7.7862 H         1 <0>         0.0000
     43 H22         2.8669   -3.9996    1.9348 H         1 <0>         0.0000
@<TRIPOS>BOND
     1    1    3 ar
     2    1    8 ar
     3    1   22 1
     4    2    4 ar
     5    2    8 ar
     6    2   23 1
     7    3    9 ar
     8    3   24 1
     9    4    9 ar
    10    4   25 1
    11    5    6 2
    12    5   19 1
    13    5   26 1
    14    6   20 1
    15    6   27 1
    16    7   19 2
    17    7   20 1
    18    7   28 1
    19    8   10 1
    20    9   18 1
    21   10   17 1
    22   10   21 2
    23   11   13 1
    24   11   12 1
    25   11   29 1
    26   11   30 1
    27   12   14 1
    28   12   31 1
    29   12   32 1
    30   13   15 1
    31   13   33 1
    32   13   34 1
    33   14   16 1
    34   14   35 1
    35   14   36 1
    36   15   16 1
    37   15   37 1
    38   15   38 1
    39   16   18 1
    40   16   39 1
    41   17   40 1
    42   17   41 1
    43   17   42 1
    44   18   20 1
    45   18   43 1
