@<TRIPOS>MOLECULE
*****
   40    41     0     0     0
SMALL
NO_CHARGES

@<TRIPOS>ATOM
      1 C1          2.5467   -3.6410    0.5567 C.ar      1 <0>         0.0000
      2 C2          2.3013   -2.9570   -0.6346 C.ar      1 <0>         0.0000
      3 C3          2.6539   -2.9173    1.7487 C.ar      1 <0>         0.0000
      4 C4          2.1735   -1.5631   -0.6459 C.ar      1 <0>         0.0000
      5 C5          0.2997    1.7304    4.1028 C.2       1 <0>         0.0000
      6 C6          1.5971    1.2802    4.0530 C.2       1 <0>         0.0000
      7 C7          0.2316   -0.1261    3.0231 C.2       1 <0>         0.0000
      8 C8          2.5257   -1.5247    1.7664 C.ar      1 <0>         0.0000
      9 C9          2.2922   -0.8406    0.5487 C.ar      1 <0>         0.0000
     10 C10         3.6903   -0.8974    3.8684 C.2       1 <0>         0.0000
     11 C11         2.6391   -0.7763    3.0436 C.2       1 <0>         0.0000
     12 C12         2.6433    3.6199   -0.2186 C.2       1 <0>         0.0000
     13 C13         1.6543    2.7087   -0.1114 C.2       1 <0>         0.0000
     14 C14         4.0460    3.2938   -0.6848 C.3       1 <0>         0.0000
     15 C15         2.4765    5.0780    0.1474 C.3       1 <0>         0.0000
     16 C16         0.2793    2.9752    0.4585 C.3       1 <0>         0.0000
     17 C17         1.8503    1.2743   -0.5332 C.3       1 <0>         0.0000
     18 N1         -0.5467    0.8432    3.4595 N.2       1 <0>         0.0000
     19 N2          1.5510    0.0799    3.3590 N.pl3     1 <0>         0.0000
     20 O1          2.2279    0.5150    0.6359 O.3       1 <0>         0.0000
     21 H1          2.6403   -4.7229    0.5632 H         1 <0>         0.0000
     22 H2          2.2070   -3.5049   -1.5687 H         1 <0>         0.0000
     23 H3          2.8168   -3.4336    2.6908 H         1 <0>         0.0000
     24 H4          1.9973   -1.0512   -1.5847 H         1 <0>         0.0000
     25 H5         -0.0722    2.6438    4.5489 H         1 <0>         0.0000
     26 H6          2.5309    1.7053    4.3888 H         1 <0>         0.0000
     27 H7         -0.0866   -1.0008    2.4720 H         1 <0>         0.0000
     28 H8          3.7232   -0.4009    4.8332 H         1 <0>         0.0000
     29 H9          4.5440   -1.4977    3.5749 H         1 <0>         0.0000
     30 H10         4.2477    3.7413   -1.6670 H         1 <0>         0.0000
     31 H11         4.2576    2.2258   -0.7414 H         1 <0>         0.0000
     32 H12         4.7734    3.7307    0.0104 H         1 <0>         0.0000
     33 H13         2.9812    5.2976    1.0976 H         1 <0>         0.0000
     34 H14         1.4356    5.3895    0.2378 H         1 <0>         0.0000
     35 H15         2.9504    5.7123   -0.6115 H         1 <0>         0.0000
     36 H16        -0.4874    2.9424   -0.3275 H         1 <0>         0.0000
     37 H17         0.0208    2.2016    1.1887 H         1 <0>         0.0000
     38 H18         0.1990    3.9359    0.9673 H         1 <0>         0.0000
     39 H19         0.9083    0.8694   -0.9249 H         1 <0>         0.0000
     40 H20         2.6160    1.1571   -1.3050 H         1 <0>         0.0000
@<TRIPOS>BOND
     1    1    2 ar
     2    1    3 ar
     3    1   21 1
     4    2    4 ar
     5    2   22 1
     6    3    8 ar
     7    3   23 1
     8    4    9 ar
     9    4   24 1
    10    5    6 2
    11    5   18 1
    12    5   25 1
    13    6   19 1
    14    6   26 1
    15    7   18 2
    16    7   19 1
    17    7   27 1
    18    8    9 ar
    19    8   11 1
    20    9   20 1
    21   10   11 2
    22   10   28 1
    23   10   29 1
    24   11   19 1
    25   12   13 2
    26   12   14 1
    27   12   15 1
    28   13   16 1
    29   13   17 1
    30   14   30 1
    31   14   31 1
    32   14   32 1
    33   15   33 1
    34   15   34 1
    35   15   35 1
    36   16   36 1
    37   16   37 1
    38   16   38 1
    39   17   20 1
    40   17   39 1
    41   17   40 1
