@<TRIPOS>MOLECULE
*****
   35    35     0     0     0
SMALL
NO_CHARGES

@<TRIPOS>ATOM
      1 C1          1.4602   -0.1005   -0.1514 C.ar      1 <0>         0.0000
      2 C2          0.6923    0.6104    0.7808 C.ar      1 <0>         0.0000
      3 C3          2.4986   -1.3217    1.6471 C.ar      1 <0>         0.0000
      4 C4          2.3733   -1.0742    0.2694 C.ar      1 <0>         0.0000
      5 C5          0.8350    0.3814    2.1552 C.ar      1 <0>         0.0000
      6 C6          1.7464   -0.6226    2.5909 C.ar      1 <0>         0.0000
      7 C7         -3.2696    2.3307    2.1351 C.3       1 <0>         0.0000
      8 C8          0.8676   -1.1244    4.7881 C.3       1 <0>         0.0000
      9 C9          3.2633   -1.7961   -0.7209 C.3       1 <0>         0.0000
     10 C10        -2.1661    1.3100    2.4382 C.3       1 <0>         0.0000
     11 C11         4.7134   -1.3068   -0.6076 C.3       1 <0>         0.0000
     12 C12        -0.8532    2.0024    2.7918 C.3       1 <0>         0.0000
     13 N1          4.7205    0.2147   -0.6641 N.4       1 <0>         0.0000
     14 O1          1.9870   -0.9038    3.8987 O.3       1 <0>         0.0000
     15 O2          0.1956    1.0683    3.1308 O.3       1 <0>         0.0000
     16 H1          1.3054    0.0870   -1.2121 H         1 <0>         0.0000
     17 H2         -0.0105    1.3519    0.4206 H         1 <0>         0.0000
     18 H3          3.1723   -2.0877    2.0250 H         1 <0>         0.0000
     19 H4         -3.4492    2.9906    2.9904 H         1 <0>         0.0000
     20 H5         -3.0098    2.9598    1.2763 H         1 <0>         0.0000
     21 H6         -4.2108    1.8250    1.9031 H         1 <0>         0.0000
     22 H7          1.2682   -1.7180    5.6105 H         1 <0>         0.0000
     23 H8          0.0788   -1.6867    4.2788 H         1 <0>         0.0000
     24 H9          0.4720   -0.1788    5.1586 H         1 <0>         0.0000
     25 H10         3.2773   -2.8761   -0.5423 H         1 <0>         0.0000
     26 H11         2.8999   -1.6509   -1.7440 H         1 <0>         0.0000
     27 H12        -2.0237    0.6468    1.5782 H         1 <0>         0.0000
     28 H13        -2.4587    0.6741    3.2808 H         1 <0>         0.0000
     29 H14         5.3621   -1.6674   -1.4079 H         1 <0>         0.0000
     30 H15         5.1478   -1.5675    0.3585 H         1 <0>         0.0000
     31 H16        -0.5132    2.6724    1.9934 H         1 <0>         0.0000
     32 H17        -0.9688    2.6037    3.6960 H         1 <0>         0.0000
     33 H18         5.6168    0.6206   -0.3726 H         1 <0>         0.0000
     34 H19         3.9669    0.5560   -0.0388 H         1 <0>         0.0000
     35 H20         4.5054    0.5588   -1.6068 H         1 <0>         0.0000
@<TRIPOS>BOND
     1    1    2 ar
     2    1    4 ar
     3    1   16 1
     4    2    5 ar
     5    2   17 1
     6    3    4 ar
     7    3    6 ar
     8    3   18 1
     9    4    9 1
    10    5    6 ar
    11    5   15 1
    12    6   14 1
    13    7   10 1
    14    7   19 1
    15    7   20 1
    16    7   21 1
    17    8   14 1
    18    8   22 1
    19    8   23 1
    20    8   24 1
    21    9   11 1
    22    9   25 1
    23    9   26 1
    24   10   12 1
    25   10   27 1
    26   10   28 1
    27   11   13 1
    28   11   29 1
    29   11   30 1
    30   12   15 1
    31   12   31 1
    32   12   32 1
    33   13   33 1
    34   13   34 1
    35   13   35 1
