@<TRIPOS>MOLECULE
*****
   36    37     0     0     0
SMALL
NO_CHARGES

@<TRIPOS>ATOM
      1 C1         -0.3547    0.0409   -0.3357 C.1       1 <0>         0.0000
      2 C2         -1.2898    0.5234   -0.9475 C.1       1 <0>         0.0000
      3 C3          1.7673   -1.2104   -0.2755 C.ar      1 <0>         0.0000
      4 C4          0.8217   -0.3828    1.7866 C.ar      1 <0>         0.0000
      5 C5          0.7398   -0.5206    0.3919 C.ar      1 <0>         0.0000
      6 C6          2.8412   -1.7620    0.4237 C.ar      1 <0>         0.0000
      7 C7          1.8852   -0.9286    2.5100 C.ar      1 <0>         0.0000
      8 C8          2.8924   -1.6396    1.8285 C.ar      1 <0>         0.0000
      9 C9          5.2794   -1.3267    2.6677 C.2       1 <0>         0.0000
     10 C10        -2.0971    1.8232   -3.0077 C.3       1 <0>         0.0000
     11 C11        -2.7762    0.4803   -3.0393 C.3       1 <0>         0.0000
     12 C12        -2.3812    1.0918   -1.6979 C.3       1 <0>         0.0000
     13 C13         3.9409   -2.4631   -0.3424 C.3       1 <0>         0.0000
     14 C14         1.2302   -1.9234    4.7596 C.3       1 <0>         0.0000
     15 C15         4.0532   -2.2413    2.5846 C.3       1 <0>         0.0000
     16 C16         1.8971   -0.7517    4.0159 C.3       1 <0>         0.0000
     17 O1          5.3795   -0.2373    2.1616 O.2       1 <0>         0.0000
     18 O2          6.3236   -1.8466    3.3865 O.3       1 <0>         0.0000
     19 H1          1.7213   -1.3042   -1.3569 H         1 <0>         0.0000
     20 H2          0.0426    0.1672    2.3079 H         1 <0>         0.0000
     21 H3         -1.0596    1.8793   -3.3200 H         1 <0>         0.0000
     22 H4         -2.6891    2.7094   -3.2161 H         1 <0>         0.0000
     23 H5         -3.8366    0.4402   -3.2704 H         1 <0>         0.0000
     24 H6         -2.2004   -0.3761   -3.3743 H         1 <0>         0.0000
     25 H7         -3.1952    1.4908   -1.0977 H         1 <0>         0.0000
     26 H8          4.9144   -1.9965   -0.1577 H         1 <0>         0.0000
     27 H9          4.0222   -3.5220   -0.0679 H         1 <0>         0.0000
     28 H10         3.7526   -2.4202   -1.4178 H         1 <0>         0.0000
     29 H11         0.1872   -2.0331    4.4461 H         1 <0>         0.0000
     30 H12         1.2473   -1.7620    5.8429 H         1 <0>         0.0000
     31 H13         1.7323   -2.8745    4.5507 H         1 <0>         0.0000
     32 H14         4.3775   -3.1768    2.1143 H         1 <0>         0.0000
     33 H15         3.7653   -2.5083    3.6058 H         1 <0>         0.0000
     34 H16         2.9189   -0.6081    4.3818 H         1 <0>         0.0000
     35 H17         1.3632    0.1712    4.2641 H         1 <0>         0.0000
     36 H18         6.0875   -2.7269    3.7256 H         1 <0>         0.0000
@<TRIPOS>BOND
     1    1    2 3
     2    1    5 1
     3    2   12 1
     4    3    5 ar
     5    3    6 ar
     6    3   19 1
     7    4    5 ar
     8    4    7 ar
     9    4   20 1
    10    6    8 ar
    11    6   13 1
    12    7    8 ar
    13    7   16 1
    14    8   15 1
    15    9   15 1
    16    9   17 2
    17    9   18 1
    18   10   11 1
    19   10   12 1
    20   10   21 1
    21   10   22 1
    22   11   12 1
    23   11   23 1
    24   11   24 1
    25   12   25 1
    26   13   26 1
    27   13   27 1
    28   13   28 1
    29   14   16 1
    30   14   29 1
    31   14   30 1
    32   14   31 1
    33   15   32 1
    34   15   33 1
    35   16   34 1
    36   16   35 1
    37   18   36 1
