@<TRIPOS>MOLECULE
*****
   34    37     0     0     0
SMALL
NO_CHARGES

@<TRIPOS>ATOM
      1 C1         -0.3189   -2.1089   -0.0590 C.ar      1 <0>         0.0000
      2 C2          0.3695   -1.1451    0.6883 C.ar      1 <0>         0.0000
      3 C3          0.2440   -3.3648   -0.3192 C.ar      1 <0>         0.0000
      4 C4          1.6471   -1.4181    1.1971 C.ar      1 <0>         0.0000
      5 C5         -1.5477   -6.6547   -2.6559 C.ar      1 <0>         0.0000
      6 C6         -1.8660   -9.2105   -3.8792 C.ar      1 <0>         0.0000
      7 C7          1.5185   -3.6418    0.1855 C.ar      1 <0>         0.0000
      8 C8         -0.5181   -7.6305   -2.5415 C.ar      1 <0>         0.0000
      9 C9         -2.6779   -6.9811   -3.3621 C.ar      1 <0>         0.0000
     10 C10        -2.8371   -8.2342   -3.9636 C.ar      1 <0>         0.0000
     11 C11         2.1855   -2.6650    0.9287 C.ar      1 <0>         0.0000
     12 C12        -0.7035   -8.8833   -3.1562 C.ar      1 <0>         0.0000
     13 C13         2.3829   -4.8554    0.0919 C.2       1 <0>         0.0000
     14 C14         0.6989   -7.3193   -1.7975 C.2       1 <0>         0.0000
     15 C15        -4.6746   -7.0150   -4.3992 C.3       1 <0>         0.0000
     16 N1          3.5496   -4.8263    0.6774 N.2       1 <0>         0.0000
     17 N2          0.8652   -6.1746   -1.2262 N.2       1 <0>         0.0000
     18 N3          2.0399   -5.9997   -0.5633 N.pl3     1 <0>         0.0000
     19 O1          4.8668   -2.6031    0.7626 O.2       1 <0>         0.0000
     20 O2          3.8262   -3.5057    2.8835 O.2       1 <0>         0.0000
     21 O3         -3.7907   -6.2098   -3.6007 O.3       1 <0>         0.0000
     22 O4         -4.0467   -8.2985   -4.5989 O.3       1 <0>         0.0000
     23 S1          3.7860   -3.3256    1.4326 S.o2      1 <0>         0.0000
     24 Cl1         0.5278  -10.1366   -3.0554 Cl        1 <0>         0.0000
     25 H1         -1.3083   -1.8800   -0.4449 H         1 <0>         0.0000
     26 H2         -0.0888   -0.1782    0.8764 H         1 <0>         0.0000
     27 H3         -0.2887   -4.1077   -0.8956 H         1 <0>         0.0000
     28 H4          2.1947   -0.6829    1.7789 H         1 <0>         0.0000
     29 H5         -1.4245   -5.6842   -2.1914 H         1 <0>         0.0000
     30 H6         -1.9867  -10.1822   -4.3439 H         1 <0>         0.0000
     31 H7          1.4677   -8.0947   -1.7420 H         1 <0>         0.0000
     32 H8         -5.6192   -7.1577   -3.8656 H         1 <0>         0.0000
     33 H9         -4.8265   -6.5354   -5.3714 H         1 <0>         0.0000
     34 H10         2.7384   -6.7454   -0.5377 H         1 <0>         0.0000
@<TRIPOS>BOND
     1    1    2 ar
     2    1    3 ar
     3    1   25 1
     4    2    4 ar
     5    2   26 1
     6    3    7 ar
     7    3   27 1
     8    4   11 ar
     9    4   28 1
    10    5    8 ar
    11    5    9 ar
    12    5   29 1
    13    6   10 ar
    14    6   12 ar
    15    6   30 1
    16    7   11 ar
    17    7   13 1
    18    8   12 ar
    19    8   14 1
    20    9   10 ar
    21    9   21 1
    22   10   22 1
    23   11   23 1
    24   12   24 1
    25   13   16 2
    26   13   18 1
    27   14   17 2
    28   14   31 1
    29   15   21 1
    30   15   22 1
    31   15   32 1
    32   15   33 1
    33   16   23 1
    34   17   18 1
    35   18   34 1
    36   19   23 2
    37   20   23 2
