@<TRIPOS>MOLECULE
*****
   41    43     0     0     0
SMALL
NO_CHARGES

@<TRIPOS>ATOM
      1 C1          1.0713    0.0935    5.8409 C.ar      1 <0>         0.0000
      2 C2          0.0067   -0.5881    5.2385 C.ar      1 <0>         0.0000
      3 C3          2.3834   -0.2130    5.4689 C.ar      1 <0>         0.0000
      4 C4          0.2529   -1.5591    4.2651 C.ar      1 <0>         0.0000
      5 C5          2.6264   -1.1841    4.4915 C.ar      1 <0>         0.0000
      6 C6          1.5673   -1.8603    3.8739 C.ar      1 <0>         0.0000
      7 C7          0.9546   -2.6220    1.5384 C.2       1 <0>         0.0000
      8 C8          1.8318    0.6462    1.6600 C.3       1 <0>         0.0000
      9 C9         -0.3631   -0.0791   -0.4079 C.3       1 <0>         0.0000
     10 C10         2.3612   -0.6239    0.9677 C.3       1 <0>         0.0000
     11 C11         0.4731   -1.3654   -0.4897 C.3       1 <0>         0.0000
     12 C12         0.0974    2.4967    1.5159 C.3       1 <0>         0.0000
     13 C13         1.1777    1.7014    0.7459 C.3       1 <0>         0.0000
     14 C14         0.5044    1.1734   -0.5329 C.3       1 <0>         0.0000
     15 C15         1.8177   -2.8789    2.7775 C.3       1 <0>         0.0000
     16 N1         -0.7134    3.2531    0.5413 N.pl3     1 <0>         0.0000
     17 N2          1.3197   -1.6104    0.6779 N.am      1 <0>         0.0000
     18 O1         -0.0453   -3.3171    1.3426 O.2       1 <0>         0.0000
     19 O2         -1.7776    2.3250   -1.6152 O.2       1 <0>         0.0000
     20 O3          0.4467    3.5456   -1.7628 O.2       1 <0>         0.0000
     21 S1         -0.4644    2.6542   -1.0420 S.o2      1 <0>         0.0000
     22 H1          0.8794    0.8507    6.5966 H         1 <0>         0.0000
     23 H2         -1.0165   -0.3634    5.5292 H         1 <0>         0.0000
     24 H3          3.2177    0.3044    5.9356 H         1 <0>         0.0000
     25 H4         -0.5757   -2.0818    3.7933 H         1 <0>         0.0000
     26 H5          3.6508   -1.4098    4.2022 H         1 <0>         0.0000
     27 H6          1.1255    0.3297    2.4302 H         1 <0>         0.0000
     28 H7          2.6611    1.1222    2.1936 H         1 <0>         0.0000
     29 H8         -1.0856   -0.0908   -1.2301 H         1 <0>         0.0000
     30 H9         -0.9430   -0.0740    0.5207 H         1 <0>         0.0000
     31 H10         2.8646   -0.3739    0.0262 H         1 <0>         0.0000
     32 H11         3.1170   -1.0818    1.6038 H         1 <0>         0.0000
     33 H12        -0.1906   -2.2232   -0.5849 H         1 <0>         0.0000
     34 H13         1.1133   -1.3277   -1.3809 H         1 <0>         0.0000
     35 H14        -0.5340    1.8024    2.0831 H         1 <0>         0.0000
     36 H15         0.5678    3.1846    2.2243 H         1 <0>         0.0000
     37 H16         1.9456    2.4096    0.4185 H         1 <0>         0.0000
     38 H17         1.2309    1.0538   -1.3408 H         1 <0>         0.0000
     39 H18         2.8821   -2.9165    2.5297 H         1 <0>         0.0000
     40 H19         1.5249   -3.8757    3.1159 H         1 <0>         0.0000
     41 H20        -1.7124    3.2354    0.7332 H         1 <0>         0.0000
@<TRIPOS>BOND
     1    1    3 ar
     2    1    2 ar
     3    1   22 1
     4    2    4 ar
     5    2   23 1
     6    3    5 ar
     7    3   24 1
     8    4    6 ar
     9    4   25 1
    10    5    6 ar
    11    5   26 1
    12    6   15 1
    13    7   15 1
    14    7   17 am
    15    7   18 2
    16    8   10 1
    17    8   13 1
    18    8   27 1
    19    8   28 1
    20    9   11 1
    21    9   14 1
    22    9   29 1
    23    9   30 1
    24   10   17 1
    25   10   31 1
    26   10   32 1
    27   11   17 1
    28   11   33 1
    29   11   34 1
    30   12   13 1
    31   12   16 1
    32   12   35 1
    33   12   36 1
    34   13   14 1
    35   13   37 1
    36   14   21 1
    37   14   38 1
    38   15   39 1
    39   15   40 1
    40   16   21 1
    41   16   41 1
    42   19   21 2
    43   20   21 2
