@<TRIPOS>MOLECULE
*****
   25    26     0     0     0
SMALL
NO_CHARGES

@<TRIPOS>ATOM
      1 C1          6.9274    0.3450    2.2877 C.ar      1 <0>         0.0000
      2 C2          6.6215    1.3430    3.2165 C.ar      1 <0>         0.0000
      3 C3          5.9775    0.0196    1.3202 C.ar      1 <0>         0.0000
      4 C4          0.9577   -0.9907    1.1676 C.ar      1 <0>         0.0000
      5 C5          1.3560    0.7522    2.7686 C.ar      1 <0>         0.0000
      6 C6          5.3751    1.9755    3.1358 C.ar      1 <0>         0.0000
      7 C7          0.2425   -1.6663    2.1540 C.ar      1 <0>         0.0000
      8 C8          1.5278    0.2543    1.4748 C.ar      1 <0>         0.0000
      9 C9          4.7573    0.7078    1.3248 C.ar      1 <0>         0.0000
     10 C10         0.6139   -0.0192    3.6676 C.ar      1 <0>         0.0000
     11 C11         3.7125    0.3630    0.2981 C.2       1 <0>         0.0000
     12 C12         2.3376    1.0114    0.4413 C.3       1 <0>         0.0000
     13 N1          4.4566    1.6711    2.2134 N.ar      1 <0>         0.0000
     14 N2          0.0662   -1.1888    3.3990 N.ar      1 <0>         0.0000
     15 O1          3.9493   -0.4395   -0.5935 O.2       1 <0>         0.0000
     16 Br1         0.3633    0.6688    5.4555 Br        1 <0>         0.0000
     17 H1          7.8847   -0.1687    2.3194 H         1 <0>         0.0000
     18 H2          7.3278    1.6299    3.9901 H         1 <0>         0.0000
     19 H3          6.1498   -0.7462    0.5711 H         1 <0>         0.0000
     20 H4          1.0744   -1.4257    0.1791 H         1 <0>         0.0000
     21 H5          1.7958    1.6961    3.0668 H         1 <0>         0.0000
     22 H6          5.1065    2.7572    3.8442 H         1 <0>         0.0000
     23 H7         -0.2133   -2.6324    1.9470 H         1 <0>         0.0000
     24 H8          1.8535    0.9512   -0.5356 H         1 <0>         0.0000
     25 H9          2.4449    2.0542    0.7420 H         1 <0>         0.0000
@<TRIPOS>BOND
     1    1    2 ar
     2    1    3 ar
     3    1   17 1
     4    2    6 ar
     5    2   18 1
     6    3    9 ar
     7    3   19 1
     8    4    7 ar
     9    4    8 ar
    10    4   20 1
    11    5    8 ar
    12    5   10 ar
    13    5   21 1
    14    6   13 ar
    15    6   22 1
    16    7   14 ar
    17    7   23 1
    18    8   12 1
    19    9   11 1
    20    9   13 ar
    21   10   14 ar
    22   10   16 1
    23   11   12 1
    24   11   15 2
    25   12   24 1
    26   12   25 1
