@<TRIPOS>MOLECULE
*****
   47    50     0     0     0
SMALL
NO_CHARGES

@<TRIPOS>ATOM
      1 C1          5.9540   -3.5705    4.8137 C.1       1 <0>         0.0000
      2 C2          7.4863   -0.2092    4.4558 C.ar      1 <0>         0.0000
      3 C3          6.7868    0.3038    3.3557 C.ar      1 <0>         0.0000
      4 C4          7.1873   -1.4891    4.9120 C.ar      1 <0>         0.0000
      5 C5          5.8047   -0.4533    2.7238 C.ar      1 <0>         0.0000
      6 C6          3.8291   -3.7221    2.6316 C.2       1 <0>         0.0000
      7 C7          2.8559   -3.8352    1.5890 C.2       1 <0>         0.0000
      8 C8          6.1966   -2.2624    4.2794 C.ar      1 <0>         0.0000
      9 C9          5.4808   -1.7539    3.1637 C.ar      1 <0>         0.0000
     10 C10         4.4434   -2.5004    2.4670 C.2       1 <0>         0.0000
     11 C11         2.9324   -2.6873    0.8474 C.2       1 <0>         0.0000
     12 C12         0.0873    1.4197    0.3508 C.3       1 <0>         0.0000
     13 C13         0.9011    1.2620   -0.9616 C.3       1 <0>         0.0000
     14 C14        -1.7023   -0.3397   -0.1347 C.3       1 <0>         0.0000
     15 C15         0.5320   -0.9899    0.9520 C.3       1 <0>         0.0000
     16 C16        -0.1852   -0.8017   -2.0033 C.3       1 <0>         0.0000
     17 C17        -0.5504    0.0914    0.7921 C.3       1 <0>         0.0000
     18 C18         1.0823   -0.2209   -1.3226 C.3       1 <0>         0.0000
     19 C19        -2.5617   -0.5876   -2.3661 C.3       1 <0>         0.0000
     20 C20         2.1939   -2.2003   -0.3576 C.3       1 <0>         0.0000
     21 N1          5.7798   -4.6277    5.2738 N.1       1 <0>         0.0000
     22 N2         -1.4245   -0.1678   -1.5590 N.3       1 <0>         0.0000
     23 N3          1.5353   -0.9255   -0.1176 N.3       1 <0>         0.0000
     24 O1          3.8935   -1.8688    1.3693 O.3       1 <0>         0.0000
     25 H1          8.2525    0.3812    4.9494 H         1 <0>         0.0000
     26 H2          7.0086    1.3027    2.9894 H         1 <0>         0.0000
     27 H3          7.7144   -1.9107    5.7623 H         1 <0>         0.0000
     28 H4          5.2674   -0.0444    1.8759 H         1 <0>         0.0000
     29 H5          4.0357   -4.4493    3.4018 H         1 <0>         0.0000
     30 H6          2.1800   -4.6620    1.4151 H         1 <0>         0.0000
     31 H7          0.7458    1.7656    1.1551 H         1 <0>         0.0000
     32 H8         -0.6923    2.1779    0.2273 H         1 <0>         0.0000
     33 H9          0.4018    1.7756   -1.7869 H         1 <0>         0.0000
     34 H10         1.8936    1.7056   -0.8386 H         1 <0>         0.0000
     35 H11        -1.9763   -1.3876    0.1035 H         1 <0>         0.0000
     36 H12        -2.5828    0.2733    0.0937 H         1 <0>         0.0000
     37 H13         1.0406   -0.8621    1.9160 H         1 <0>         0.0000
     38 H14         0.0464   -1.9809    0.9853 H         1 <0>         0.0000
     39 H15        -0.1069   -0.6240   -3.0820 H         1 <0>         0.0000
     40 H16        -0.2088   -1.9018   -1.8690 H         1 <0>         0.0000
     41 H17        -1.0012    0.2265    1.7824 H         1 <0>         0.0000
     42 H18         1.8991   -0.3074   -2.0475 H         1 <0>         0.0000
     43 H19        -2.3727   -0.3648   -3.4213 H         1 <0>         0.0000
     44 H20        -3.4567   -0.0364   -2.0588 H         1 <0>         0.0000
     45 H21        -2.7818   -1.6694   -2.2781 H         1 <0>         0.0000
     46 H22         2.8997   -2.0685   -1.1872 H         1 <0>         0.0000
     47 H23         1.4977   -3.0092   -0.6487 H         1 <0>         0.0000
@<TRIPOS>BOND
     1    1    8 1
     2    1   21 3
     3    2    3 ar
     4    2    4 ar
     5    2   25 1
     6    3    5 ar
     7    3   26 1
     8    4    8 ar
     9    4   27 1
    10    5    9 ar
    11    5   28 1
    12    6    7 1
    13    6   10 2
    14    6   29 1
    15    7   11 2
    16    7   30 1
    17    8    9 ar
    18    9   10 1
    19   10   24 1
    20   11   20 1
    21   11   24 1
    22   12   13 1
    23   12   17 1
    24   12   31 1
    25   12   32 1
    26   13   18 1
    27   13   33 1
    28   13   34 1
    29   14   17 1
    30   14   22 1
    31   14   35 1
    32   14   36 1
    33   15   17 1
    34   15   23 1
    35   15   37 1
    36   15   38 1
    37   16   18 1
    38   16   22 1
    39   16   39 1
    40   16   40 1
    41   17   41 1
    42   18   23 1
    43   18   42 1
    44   19   22 1
    45   19   43 1
    46   19   44 1
    47   19   45 1
    48   20   23 1
    49   20   46 1
    50   20   47 1
