@<TRIPOS>MOLECULE
*****
   34    37     0     0     0
SMALL
NO_CHARGES

@<TRIPOS>ATOM
      1 C1          0.5043   -1.8340   -1.4956 C.ar      1 <0>         0.0000
      2 C2          1.2993   -0.8159   -0.9543 C.ar      1 <0>         0.0000
      3 C3          0.8139   -3.1843   -1.2893 C.ar      1 <0>         0.0000
      4 C4          2.4308   -1.1279   -0.1876 C.ar      1 <0>         0.0000
      5 C5         -1.3709   -6.6875   -2.8538 C.ar      1 <0>         0.0000
      6 C6         -2.0941   -9.4048   -3.3257 C.ar      1 <0>         0.0000
      7 C7          1.9421   -3.5009   -0.5259 C.ar      1 <0>         0.0000
      8 C8         -0.5907   -7.7379   -2.2941 C.ar      1 <0>         0.0000
      9 C9         -2.4632   -7.0221   -3.6136 C.ar      1 <0>         0.0000
     10 C10        -2.8207   -8.3544   -3.8471 C.ar      1 <0>         0.0000
     11 C11         2.7193   -2.4682    0.0043 C.ar      1 <0>         0.0000
     12 C12        -0.9721   -9.0696   -2.5446 C.ar      1 <0>         0.0000
     13 C13         2.5361   -4.8106   -0.1251 C.2       1 <0>         0.0000
     14 C14         0.5785   -7.4204   -1.4796 C.2       1 <0>         0.0000
     15 C15        -4.3047   -7.0401   -4.9069 C.3       1 <0>         0.0000
     16 N1          3.6153   -4.7976    0.6096 N.2       1 <0>         0.0000
     17 N2          0.9214   -6.1997   -1.2410 N.2       1 <0>         0.0000
     18 N3          2.0293   -6.0271   -0.4713 N.pl3     1 <0>         0.0000
     19 O1          5.3557   -2.9164    0.2674 O.2       1 <0>         0.0000
     20 O2          3.9333   -2.9191    2.3585 O.2       1 <0>         0.0000
     21 O3         -3.3535   -6.1875   -4.2469 O.3       1 <0>         0.0000
     22 O4         -3.9409   -8.4085   -4.6301 O.3       1 <0>         0.0000
     23 S1          4.0831   -3.1986    0.9307 S.o2      1 <0>         0.0000
     24 Cl1        -0.0537  -10.4179   -1.8845 Cl        1 <0>         0.0000
     25 H1         -0.3692   -1.5735   -2.0866 H         1 <0>         0.0000
     26 H2          1.0380    0.2241   -1.1288 H         1 <0>         0.0000
     27 H3          0.1993   -3.9689   -1.7070 H         1 <0>         0.0000
     28 H4          3.0577   -0.3512    0.2400 H         1 <0>         0.0000
     29 H5         -1.0937   -5.6560   -2.6748 H         1 <0>         0.0000
     30 H6         -2.3686  -10.4379   -3.5049 H         1 <0>         0.0000
     31 H7          1.1554   -8.2577   -1.0778 H         1 <0>         0.0000
     32 H8         -5.3052   -6.8478   -4.5074 H         1 <0>         0.0000
     33 H9         -4.2597   -6.8690   -5.9870 H         1 <0>         0.0000
     34 H10         2.5485   -6.8340   -0.1192 H         1 <0>         0.0000
@<TRIPOS>BOND
     1    1    2 ar
     2    1    3 ar
     3    1   25 1
     4    2    4 ar
     5    2   26 1
     6    3    7 ar
     7    3   27 1
     8    4   11 ar
     9    4   28 1
    10    5    8 ar
    11    5    9 ar
    12    5   29 1
    13    6   10 ar
    14    6   12 ar
    15    6   30 1
    16    7   11 ar
    17    7   13 1
    18    8   12 ar
    19    8   14 1
    20    9   10 ar
    21    9   21 1
    22   10   22 1
    23   11   23 1
    24   12   24 1
    25   13   16 2
    26   13   18 1
    27   14   17 2
    28   14   31 1
    29   15   21 1
    30   15   22 1
    31   15   32 1
    32   15   33 1
    33   16   23 1
    34   17   18 1
    35   18   34 1
    36   19   23 2
    37   20   23 2
