@<TRIPOS>MOLECULE
*****
   41    43     0     0     0
SMALL
NO_CHARGES

@<TRIPOS>ATOM
      1 C1         -2.4980   -1.2900    7.1664 C.ar      1 <0>         0.0000
      2 C2         -3.4401   -1.7227    6.2294 C.ar      1 <0>         0.0000
      3 C3         -1.2242   -0.9001    6.7362 C.ar      1 <0>         0.0000
      4 C4         -3.1071   -1.7667    4.8712 C.ar      1 <0>         0.0000
      5 C5         -0.8977   -0.9443    5.3796 C.ar      1 <0>         0.0000
      6 C6         -1.8349   -1.3802    4.4329 C.ar      1 <0>         0.0000
      7 C7         -1.4233   -0.0394    2.3148 C.2       1 <0>         0.0000
      8 C8          0.0188    1.9014    0.0995 C.3       1 <0>         0.0000
      9 C9         -0.0953   -0.8519   -0.9612 C.3       1 <0>         0.0000
     10 C10        -1.4166    1.3358    0.3152 C.3       1 <0>         0.0000
     11 C11        -1.2162   -1.1277    0.0538 C.3       1 <0>         0.0000
     12 C12         2.5410    1.5837    0.3658 C.3       1 <0>         0.0000
     13 C13         1.1393    0.9395    0.5228 C.3       1 <0>         0.0000
     14 C14         1.1952   -0.3658   -0.3031 C.3       1 <0>         0.0000
     15 C15        -1.4863   -1.4307    2.9646 C.3       1 <0>         0.0000
     16 N1          2.9643    1.5066   -1.0442 N.pl3     1 <0>         0.0000
     17 N2         -1.4449    0.0134    0.9410 N.am      1 <0>         0.0000
     18 O1         -1.3544    0.9880    2.9892 O.2       1 <0>         0.0000
     19 O2          1.8612    0.1735   -2.9412 O.2       1 <0>         0.0000
     20 O3          3.5642   -0.9886   -1.4407 O.2       1 <0>         0.0000
     21 S1          2.4738   -0.0292   -1.6200 S.o2      1 <0>         0.0000
     22 H1         -2.7524   -1.2564    8.2227 H         1 <0>         0.0000
     23 H2         -4.4320   -2.0275    6.5534 H         1 <0>         0.0000
     24 H3         -0.4870   -0.5592    7.4587 H         1 <0>         0.0000
     25 H4         -3.8461   -2.1044    4.1472 H         1 <0>         0.0000
     26 H5          0.0882   -0.6258    5.0506 H         1 <0>         0.0000
     27 H6          0.1407    2.1861   -0.9522 H         1 <0>         0.0000
     28 H7          0.1293    2.8152    0.6904 H         1 <0>         0.0000
     29 H8          0.0999   -1.7763   -1.5145 H         1 <0>         0.0000
     30 H9         -0.4222   -0.1241   -1.7068 H         1 <0>         0.0000
     31 H10        -1.9831    2.0082    0.9575 H         1 <0>         0.0000
     32 H11        -1.9471    1.2574   -0.6378 H         1 <0>         0.0000
     33 H12        -2.1346   -1.3697   -0.4983 H         1 <0>         0.0000
     34 H13        -0.9565   -2.0025    0.6485 H         1 <0>         0.0000
     35 H14         2.5484    2.6298    0.6786 H         1 <0>         0.0000
     36 H15         3.2794    1.0472    0.9688 H         1 <0>         0.0000
     37 H16         0.9954    0.6909    1.5768 H         1 <0>         0.0000
     38 H17         1.6554   -1.1614    0.2890 H         1 <0>         0.0000
     39 H18        -0.5060   -1.9071    2.8321 H         1 <0>         0.0000
     40 H19        -2.2083   -2.0567    2.4330 H         1 <0>         0.0000
     41 H20         2.4962    2.2031   -1.6240 H         1 <0>         0.0000
@<TRIPOS>BOND
     1    1    3 ar
     2    1    2 ar
     3    1   22 1
     4    2    4 ar
     5    2   23 1
     6    3    5 ar
     7    3   24 1
     8    4    6 ar
     9    4   25 1
    10    5    6 ar
    11    5   26 1
    12    6   15 1
    13    7   15 1
    14    7   17 am
    15    7   18 2
    16    8   10 1
    17    8   13 1
    18    8   27 1
    19    8   28 1
    20    9   11 1
    21    9   14 1
    22    9   29 1
    23    9   30 1
    24   10   17 1
    25   10   31 1
    26   10   32 1
    27   11   17 1
    28   11   33 1
    29   11   34 1
    30   12   13 1
    31   12   16 1
    32   12   35 1
    33   12   36 1
    34   13   14 1
    35   13   37 1
    36   14   21 1
    37   14   38 1
    38   15   39 1
    39   15   40 1
    40   16   21 1
    41   16   41 1
    42   19   21 2
    43   20   21 2
