@<TRIPOS>MOLECULE
*****
   42    45     0     0     0
SMALL
NO_CHARGES

@<TRIPOS>ATOM
      1 C1          0.8306    0.8525    2.2779 C.ar      1 <0>         0.0000
      2 C2          1.8599    0.2352    1.5595 C.ar      1 <0>         0.0000
      3 C3         -0.5032    0.4576    2.0846 C.ar      1 <0>         0.0000
      4 C4          1.5856   -0.8031    0.6596 C.ar      1 <0>         0.0000
      5 C5          1.8111   -3.0819    2.8686 C.ar      1 <0>         0.0000
      6 C6         -0.3675   -4.0078    2.4438 C.ar      1 <0>         0.0000
      7 C7         -0.7820   -0.5686    1.1899 C.ar      1 <0>         0.0000
      8 C8          0.9314   -3.7275    2.0015 C.ar      1 <0>         0.0000
      9 C9          0.2644   -1.2206    0.5197 C.ar      1 <0>         0.0000
     10 C10         1.4106   -2.6765    4.1423 C.ar      1 <0>         0.0000
     11 C11         0.1031   -2.9512    4.5980 C.ar      1 <0>         0.0000
     12 C12        -0.7651   -3.6198    3.7195 C.ar      1 <0>         0.0000
     13 C13         0.1656   -3.5655   -0.3713 C.2       1 <0>         0.0000
     14 C14        -2.0987   -1.1833    0.7649 C.3       1 <0>         0.0000
     15 C15         1.3506   -1.3311    7.0367 C.3       1 <0>         0.0000
     16 C16        -1.7008   -1.9534   -0.5172 C.3       1 <0>         0.0000
     17 C17         1.8416   -0.8841    5.6591 C.3       1 <0>         0.0000
     18 C18         0.5456   -2.6251    6.9229 C.3       1 <0>         0.0000
     19 C19         1.3078   -3.9959    0.5551 C.3       1 <0>         0.0000
     20 N1         -0.2591   -2.2475   -0.3135 N.am      1 <0>         0.0000
     21 O1         -0.4308   -4.3907   -1.0593 O.2       1 <0>         0.0000
     22 O2          2.3441   -1.9981    4.8957 O.3       1 <0>         0.0000
     23 O3         -0.3816   -2.5706    5.8217 O.3       1 <0>         0.0000
     24 Cl1        -2.4079   -3.9465    4.2377 Cl        1 <0>         0.0000
     25 H1          1.0619    1.6601    2.9673 H         1 <0>         0.0000
     26 H2          2.8862    0.5657    1.6942 H         1 <0>         0.0000
     27 H3         -1.3070    0.9538    2.6235 H         1 <0>         0.0000
     28 H4          2.3864   -1.2648    0.0909 H         1 <0>         0.0000
     29 H5          2.8114   -2.8072    2.5498 H         1 <0>         0.0000
     30 H6         -1.0809   -4.5027    1.7919 H         1 <0>         0.0000
     31 H7         -2.4661   -1.8698    1.5377 H         1 <0>         0.0000
     32 H8         -2.8776   -0.4405    0.5740 H         1 <0>         0.0000
     33 H9          2.1958   -1.5043    7.7125 H         1 <0>         0.0000
     34 H10         0.7381   -0.5317    7.4689 H         1 <0>         0.0000
     35 H11        -2.2383   -2.8873   -0.6738 H         1 <0>         0.0000
     36 H12        -1.8204   -1.3245   -1.4057 H         1 <0>         0.0000
     37 H13         1.0419   -0.3967    5.0932 H         1 <0>         0.0000
     38 H14         2.6771   -0.1847    5.7432 H         1 <0>         0.0000
     39 H15         1.2072   -3.4872    6.7940 H         1 <0>         0.0000
     40 H16        -0.0683   -2.7915    7.8109 H         1 <0>         0.0000
     41 H17         2.2454   -3.4925    0.3100 H         1 <0>         0.0000
     42 H18         1.4479   -5.0622    0.3634 H         1 <0>         0.0000
@<TRIPOS>BOND
     1    1    2 ar
     2    1    3 ar
     3    1   25 1
     4    2    4 ar
     5    2   26 1
     6    3    7 ar
     7    3   27 1
     8    4    9 ar
     9    4   28 1
    10    5    8 ar
    11    5   10 ar
    12    5   29 1
    13    6    8 ar
    14    6   12 ar
    15    6   30 1
    16    7    9 ar
    17    7   14 1
    18    8   19 1
    19    9   20 1
    20   10   11 ar
    21   10   22 1
    22   11   12 ar
    23   11   23 1
    24   12   24 1
    25   13   19 1
    26   13   20 am
    27   13   21 2
    28   14   16 1
    29   14   31 1
    30   14   32 1
    31   15   17 1
    32   15   18 1
    33   15   33 1
    34   15   34 1
    35   16   20 1
    36   16   35 1
    37   16   36 1
    38   17   22 1
    39   17   37 1
    40   17   38 1
    41   18   23 1
    42   18   39 1
    43   18   40 1
    44   19   41 1
    45   19   42 1
