@<TRIPOS>MOLECULE
*****
   29    30     0     0     0
SMALL
NO_CHARGES

@<TRIPOS>ATOM
      1 C1          1.9754   -3.0334    0.8172 C.ar      1 <0>         0.0000
      2 C2          1.0866   -1.9547    0.7982 C.ar      1 <0>         0.0000
      3 C3          2.6892   -3.3271    1.9853 C.ar      1 <0>         0.0000
      4 C4          0.8908   -1.1830    1.9467 C.ar      1 <0>         0.0000
      5 C5          2.5210   -2.5387    3.1240 C.ar      1 <0>         0.0000
      6 C6         -0.9709   -3.5704    3.0915 C.ar      1 <0>         0.0000
      7 C7         -0.4721   -4.8352    2.7899 C.ar      1 <0>         0.0000
      8 C8         -0.0907   -3.7734    5.3512 C.ar      1 <0>         0.0000
      9 C9          1.6057   -1.4732    3.1195 C.ar      1 <0>         0.0000
     10 C10        -0.7553   -3.0490    4.3642 C.ar      1 <0>         0.0000
     11 C11         0.2364   -5.5616    3.7509 C.ar      1 <0>         0.0000
     12 C12         0.4196   -5.0338    5.0407 C.ar      1 <0>         0.0000
     13 C13         1.4086   -0.6657    4.3445 C.2       1 <0>         0.0000
     14 C14         0.2727   -0.5086    5.0357 C.2       1 <0>         0.0000
     15 O1         -1.9391   -0.8358    3.5271 O.2       1 <0>         0.0000
     16 O2         -1.9664   -1.3617    6.0322 O.2       1 <0>         0.0000
     17 S1         -1.2801   -1.3643    4.7315 S.o2      1 <0>         0.0000
     18 Cl1         0.8977   -7.1107    3.3074 Cl        1 <0>         0.0000
     19 Cl2         1.2949   -5.9119    6.2676 Cl        1 <0>         0.0000
     20 H1          2.1149   -3.6422   -0.0722 H         1 <0>         0.0000
     21 H2          0.5331   -1.7190   -0.1069 H         1 <0>         0.0000
     22 H3          3.3745   -4.1699    2.0091 H         1 <0>         0.0000
     23 H4          0.1762   -0.3664    1.9435 H         1 <0>         0.0000
     24 H5          3.0749   -2.7696    4.0306 H         1 <0>         0.0000
     25 H6         -1.4932   -2.9813    2.3467 H         1 <0>         0.0000
     26 H7         -0.6050   -5.2565    1.7992 H         1 <0>         0.0000
     27 H8          0.0512   -3.3618    6.3451 H         1 <0>         0.0000
     28 H9          2.2884   -0.1558    4.7396 H         1 <0>         0.0000
     29 H10         0.1989    0.1115    5.9250 H         1 <0>         0.0000
@<TRIPOS>BOND
     1    1    3 ar
     2    1    2 ar
     3    1   20 1
     4    2    4 ar
     5    2   21 1
     6    3    5 ar
     7    3   22 1
     8    4    9 ar
     9    4   23 1
    10    5    9 ar
    11    5   24 1
    12    6    7 ar
    13    6   10 ar
    14    6   25 1
    15    7   11 ar
    16    7   26 1
    17    8   10 ar
    18    8   12 ar
    19    8   27 1
    20    9   13 1
    21   10   17 1
    22   11   12 ar
    23   11   18 1
    24   12   19 1
    25   13   14 2
    26   13   28 1
    27   14   17 1
    28   14   29 1
    29   15   17 2
    30   16   17 2
