@<TRIPOS>MOLECULE
*****
   39    42     0     0     0
SMALL
NO_CHARGES

@<TRIPOS>ATOM
      1 C1          2.0702   -1.7929    7.3077 C.ar      1 <0>         0.0000
      2 C2         -4.0963    1.2454   -2.9349 C.ar      1 <0>         0.0000
      3 C3          2.6136   -1.8173    6.0392 C.ar      1 <0>         0.0000
      4 C4         -2.8267    1.3549   -2.3664 C.ar      1 <0>         0.0000
      5 C5          0.9313   -0.9997    7.5889 C.ar      1 <0>         0.0000
      6 C6          1.9102   -0.2325    2.7232 C.ar      1 <0>         0.0000
      7 C7         -4.8276    0.0736   -2.7181 C.ar      1 <0>         0.0000
      8 C8         -3.1500   -0.8283   -1.4479 C.ar      1 <0>         0.0000
      9 C9          2.0289   -1.0405    5.0071 C.ar      1 <0>         0.0000
     10 C10        -2.3245    0.2964   -1.5992 C.ar      1 <0>         0.0000
     11 C11         0.8788   -0.2295    5.2601 C.ar      1 <0>         0.0000
     12 C12         2.5328   -1.0142    3.6727 C.ar      1 <0>         0.0000
     13 C13         0.3647   -0.2485    6.5866 C.ar      1 <0>         0.0000
     14 C14         0.7743    0.5322    3.0981 C.ar      1 <0>         0.0000
     15 C15        -0.7124   -0.2750    0.4153 C.3       1 <0>         0.0000
     16 C16        -0.4414    1.6682   -0.3599 C.3       1 <0>         0.0000
     17 C17        -0.9536    0.3441   -0.9868 C.3       1 <0>         0.0000
     18 C18         0.1031    1.4258    2.0737 C.3       1 <0>         0.0000
     19 N1         -4.3700   -0.9523   -1.9872 N.ar      1 <0>         0.0000
     20 N2          0.2634    0.5367    4.3161 N.ar      1 <0>         0.0000
     21 N3          0.1723    0.8751    0.7304 N.3       1 <0>         0.0000
     22 O1          3.6289   -1.7840    3.4120 O.3       1 <0>         0.0000
     23 F1         -0.7207    0.5042    6.8623 F         1 <0>         0.0000
     24 H1          2.5129   -2.3842    8.1041 H         1 <0>         0.0000
     25 H2         -4.5163    2.0498   -3.5325 H         1 <0>         0.0000
     26 H3          3.4856   -2.4224    5.8162 H         1 <0>         0.0000
     27 H4         -2.2333    2.2547   -2.5144 H         1 <0>         0.0000
     28 H5          0.4945   -0.9722    8.5827 H         1 <0>         0.0000
     29 H6          2.2551   -0.1863    1.6933 H         1 <0>         0.0000
     30 H7         -5.8218   -0.0456   -3.1461 H         1 <0>         0.0000
     31 H8         -2.8070   -1.6759   -0.8547 H         1 <0>         0.0000
     32 H9         -1.6305   -0.2829    1.0232 H         1 <0>         0.0000
     33 H10        -0.2311   -1.2562    0.4764 H         1 <0>         0.0000
     34 H11         0.2620    2.2808   -0.9341 H         1 <0>         0.0000
     35 H12        -1.2776    2.2969   -0.0144 H         1 <0>         0.0000
     36 H13        -0.2132   -0.0413   -1.6957 H         1 <0>         0.0000
     37 H14        -0.9302    1.6098    2.4107 H         1 <0>         0.0000
     38 H15         0.6181    2.3960    2.0662 H         1 <0>         0.0000
     39 H16         3.8747   -1.6773    2.4784 H         1 <0>         0.0000
@<TRIPOS>BOND
     1    1    3 ar
     2    1    5 ar
     3    1   24 1
     4    2    4 ar
     5    2    7 ar
     6    2   25 1
     7    3    9 ar
     8    3   26 1
     9    4   10 ar
    10    4   27 1
    11    5   13 ar
    12    5   28 1
    13    6   12 ar
    14    6   14 ar
    15    6   29 1
    16    7   19 ar
    17    7   30 1
    18    8   10 ar
    19    8   19 ar
    20    8   31 1
    21    9   11 ar
    22    9   12 ar
    23   10   17 1
    24   11   13 ar
    25   11   20 ar
    26   12   22 1
    27   13   23 1
    28   14   18 1
    29   14   20 ar
    30   15   17 1
    31   15   21 1
    32   15   32 1
    33   15   33 1
    34   16   17 1
    35   16   21 1
    36   16   34 1
    37   16   35 1
    38   17   36 1
    39   18   21 1
    40   18   37 1
    41   18   38 1
    42   22   39 1
