@<TRIPOS>MOLECULE
*****
   41    43     0     0     0
SMALL
NO_CHARGES

@<TRIPOS>ATOM
      1 C1          0.7877    1.7775    5.0829 C.ar      1 <0>         0.0000
      2 C2         -0.0437    2.7230    4.4759 C.ar      1 <0>         0.0000
      3 C3          0.3506    0.4527    5.2056 C.ar      1 <0>         0.0000
      4 C4         -1.2959    2.3414    3.9805 C.ar      1 <0>         0.0000
      5 C5         -0.8999    0.0761    4.7115 C.ar      1 <0>         0.0000
      6 C6         -1.7335    1.0156    4.0821 C.ar      1 <0>         0.0000
      7 C7         -2.8549   -0.5619    2.4758 C.2       1 <0>         0.0000
      8 C8         -0.5595    1.4568    0.7413 C.3       1 <0>         0.0000
      9 C9         -0.8315   -1.1530   -0.5218 C.3       1 <0>         0.0000
     10 C10        -2.0777    1.0946    0.7459 C.3       1 <0>         0.0000
     11 C11        -2.1155   -1.3543    0.2916 C.3       1 <0>         0.0000
     12 C12         1.8176    0.8044    1.4166 C.3       1 <0>         0.0000
     13 C13         0.3483    0.3404    1.2750 C.3       1 <0>         0.0000
     14 C14         0.3910   -0.8974    0.3568 C.3       1 <0>         0.0000
     15 C15        -3.0581    0.5683    3.4929 C.3       1 <0>         0.0000
     16 N1          2.4737    0.7737    0.0956 N.pl3     1 <0>         0.0000
     17 N2         -2.3805   -0.2511    1.2249 N.am      1 <0>         0.0000
     18 O1         -3.0740   -1.7268    2.8182 O.2       1 <0>         0.0000
     19 O2          1.5352   -0.2235   -2.0774 O.2       1 <0>         0.0000
     20 O3          2.8218   -1.7378   -0.4794 O.2       1 <0>         0.0000
     21 S1          1.8966   -0.6274   -0.7096 S.o2      1 <0>         0.0000
     22 H1          1.7623    2.0700    5.4645 H         1 <0>         0.0000
     23 H2          0.2797    3.7572    4.3879 H         1 <0>         0.0000
     24 H3          0.9864   -0.2875    5.6844 H         1 <0>         0.0000
     25 H4         -1.9352    3.0850    3.5087 H         1 <0>         0.0000
     26 H5         -1.2321   -0.9559    4.7940 H         1 <0>         0.0000
     27 H6         -0.2611    1.7346   -0.2759 H         1 <0>         0.0000
     28 H7         -0.4048    2.3386    1.3679 H         1 <0>         0.0000
     29 H8         -0.6709   -2.0556   -1.1200 H         1 <0>         0.0000
     30 H9         -0.9434   -0.3385   -1.2416 H         1 <0>         0.0000
     31 H10        -2.6214    1.8153    1.3522 H         1 <0>         0.0000
     32 H11        -2.4841    1.1836   -0.2669 H         1 <0>         0.0000
     33 H12        -2.9600   -1.4596   -0.4027 H         1 <0>         0.0000
     34 H13        -2.0652   -2.2683    0.8831 H         1 <0>         0.0000
     35 H14         1.8906    1.8129    1.8281 H         1 <0>         0.0000
     36 H15         2.3641    0.1321    2.0841 H         1 <0>         0.0000
     37 H16        -0.0080    0.0383    2.2595 H         1 <0>         0.0000
     38 H17         0.6489   -1.7867    0.9374 H         1 <0>         0.0000
     39 H18        -3.6899    0.1319    4.2694 H         1 <0>         0.0000
     40 H19        -3.5972    1.4197    3.0706 H         1 <0>         0.0000
     41 H20         2.2060    1.5714   -0.4810 H         1 <0>         0.0000
@<TRIPOS>BOND
     1    1    3 ar
     2    1    2 ar
     3    1   22 1
     4    2    4 ar
     5    2   23 1
     6    3    5 ar
     7    3   24 1
     8    4    6 ar
     9    4   25 1
    10    5    6 ar
    11    5   26 1
    12    6   15 1
    13    7   15 1
    14    7   17 am
    15    7   18 2
    16    8   10 1
    17    8   13 1
    18    8   27 1
    19    8   28 1
    20    9   11 1
    21    9   14 1
    22    9   29 1
    23    9   30 1
    24   10   17 1
    25   10   31 1
    26   10   32 1
    27   11   17 1
    28   11   33 1
    29   11   34 1
    30   12   13 1
    31   12   16 1
    32   12   35 1
    33   12   36 1
    34   13   14 1
    35   13   37 1
    36   14   21 1
    37   14   38 1
    38   15   39 1
    39   15   40 1
    40   16   21 1
    41   16   41 1
    42   19   21 2
    43   20   21 2
