@<TRIPOS>MOLECULE
*****
   47    50     0     0     0
SMALL
NO_CHARGES

@<TRIPOS>ATOM
      1 C1          5.5807    0.2528   -1.3130 C.1       1 <0>         0.0000
      2 C2          8.6425   -0.6123   -3.2279 C.ar      1 <0>         0.0000
      3 C3          8.2149   -1.7158   -3.9776 C.ar      1 <0>         0.0000
      4 C4          7.7571   -0.0040   -2.3432 C.ar      1 <0>         0.0000
      5 C5          6.9213   -2.2073   -3.8280 C.ar      1 <0>         0.0000
      6 C6          3.8964   -2.9008   -3.7098 C.2       1 <0>         0.0000
      7 C7          2.6492   -3.1426   -3.0501 C.2       1 <0>         0.0000
      8 C8          6.4420   -0.4849   -2.1964 C.ar      1 <0>         0.0000
      9 C9          6.0054   -1.6109   -2.9399 C.ar      1 <0>         0.0000
     10 C10         4.6638   -2.1657   -2.8366 C.2       1 <0>         0.0000
     11 C11         2.7340   -2.5502   -1.8171 C.2       1 <0>         0.0000
     12 C12         0.9681    1.4625    0.6966 C.3       1 <0>         0.0000
     13 C13         1.3285    1.2548   -0.7978 C.3       1 <0>         0.0000
     14 C14        -1.3026    0.2809    0.6696 C.3       1 <0>         0.0000
     15 C15         0.8670   -1.0316    1.0602 C.3       1 <0>         0.0000
     16 C16        -0.5046   -0.3591   -1.5611 C.3       1 <0>         0.0000
     17 C17         0.1235    0.3022    1.2509 C.3       1 <0>         0.0000
     18 C18         1.0028   -0.1782   -1.2456 C.3       1 <0>         0.0000
     19 C19        -2.7500    0.4655   -1.2394 C.3       1 <0>         0.0000
     20 C20         1.7901   -2.4601   -0.6635 C.3       1 <0>         0.0000
     21 N1          4.9488    0.9281   -0.6041 N.1       1 <0>         0.0000
     22 N2         -1.3728    0.5124   -0.7717 N.3       1 <0>         0.0000
     23 N3          1.5459   -1.0948   -0.2355 N.3       1 <0>         0.0000
     24 O1          3.9577   -1.9550   -1.6795 O.3       1 <0>         0.0000
     25 H1          9.6543   -0.2321   -3.3333 H         1 <0>         0.0000
     26 H2          8.8978   -2.2030   -4.6683 H         1 <0>         0.0000
     27 H3          8.0646    0.8592   -1.7612 H         1 <0>         0.0000
     28 H4          6.6126   -3.0850   -4.3873 H         1 <0>         0.0000
     29 H5          4.1730   -3.1979   -4.7126 H         1 <0>         0.0000
     30 H6          1.7915   -3.6743   -3.4407 H         1 <0>         0.0000
     31 H7          1.8886    1.5290    1.2859 H         1 <0>         0.0000
     32 H8          0.4285    2.4052    0.8343 H         1 <0>         0.0000
     33 H9          0.7807    1.9610   -1.4274 H         1 <0>         0.0000
     34 H10         2.3982    1.4195   -0.9410 H         1 <0>         0.0000
     35 H11        -1.7853   -0.6776    0.9509 H         1 <0>         0.0000
     36 H12        -1.8867    1.0768    1.1481 H         1 <0>         0.0000
     37 H13         1.6202   -1.1500    1.8515 H         1 <0>         0.0000
     38 H14         0.1454   -1.8597    1.1828 H         1 <0>         0.0000
     39 H15        -0.6688   -0.1005   -2.6135 H         1 <0>         0.0000
     40 H16        -0.7832   -1.4278   -1.4559 H         1 <0>         0.0000
     41 H17        -0.0007    0.4364    2.3322 H         1 <0>         0.0000
     42 H18         1.5479   -0.3853   -2.1711 H         1 <0>         0.0000
     43 H19        -2.7936    0.7366   -2.2994 H         1 <0>         0.0000
     44 H20        -3.3558    1.1870   -0.6804 H         1 <0>         0.0000
     45 H21        -3.2168   -0.5325   -1.1215 H         1 <0>         0.0000
     46 H22         0.8738   -3.0128   -0.9482 H         1 <0>         0.0000
     47 H23         2.2207   -2.9985    0.1913 H         1 <0>         0.0000
@<TRIPOS>BOND
     1    1    8 1
     2    1   21 3
     3    2    3 ar
     4    2    4 ar
     5    2   25 1
     6    3    5 ar
     7    3   26 1
     8    4    8 ar
     9    4   27 1
    10    5    9 ar
    11    5   28 1
    12    6    7 1
    13    6   10 2
    14    6   29 1
    15    7   11 2
    16    7   30 1
    17    8    9 ar
    18    9   10 1
    19   10   24 1
    20   11   20 1
    21   11   24 1
    22   12   13 1
    23   12   17 1
    24   12   31 1
    25   12   32 1
    26   13   18 1
    27   13   33 1
    28   13   34 1
    29   14   17 1
    30   14   22 1
    31   14   35 1
    32   14   36 1
    33   15   17 1
    34   15   23 1
    35   15   37 1
    36   15   38 1
    37   16   18 1
    38   16   22 1
    39   16   39 1
    40   16   40 1
    41   17   41 1
    42   18   23 1
    43   18   42 1
    44   19   22 1
    45   19   43 1
    46   19   44 1
    47   19   45 1
    48   20   23 1
    49   20   46 1
    50   20   47 1
