@<TRIPOS>MOLECULE
*****
   41    43     0     0     0
SMALL
NO_CHARGES

@<TRIPOS>ATOM
      1 C1          3.7383    4.0879    5.5686 C.ar      1 <0>         0.0000
      2 C2          3.9232    3.9440    4.1904 C.ar      1 <0>         0.0000
      3 C3          2.4877    3.8085    6.1312 C.ar      1 <0>         0.0000
      4 C4          2.8621    3.5254    3.3814 C.ar      1 <0>         0.0000
      5 C5          1.4320    3.3895    5.3186 C.ar      1 <0>         0.0000
      6 C6          1.6076    3.2454    3.9362 C.ar      1 <0>         0.0000
      7 C7          0.2849    1.2570    3.0832 C.2       1 <0>         0.0000
      8 C8         -0.1221   -1.3332    0.9768 C.3       1 <0>         0.0000
      9 C9         -0.5409    1.5100   -0.0997 C.3       1 <0>         0.0000
     10 C10        -0.8281   -0.7142    2.1941 C.3       1 <0>         0.0000
     11 C11        -1.3512    1.5075    1.2114 C.3       1 <0>         0.0000
     12 C12        -0.3534   -2.0928   -1.4594 C.3       1 <0>         0.0000
     13 C13        -0.8648   -1.1297   -0.3550 C.3       1 <0>         0.0000
     14 C14        -0.7556    0.2771   -0.9842 C.3       1 <0>         0.0000
     15 C15         0.4698    2.7833    3.0595 C.3       1 <0>         0.0000
     16 N1          0.8926   -1.5574   -2.0352 N.pl3     1 <0>         0.0000
     17 N2         -0.7113    0.7389    2.2745 N.am      1 <0>         0.0000
     18 O1          0.9656    0.5371    3.8090 O.2       1 <0>         0.0000
     19 O2          1.8736    0.7939   -1.7086 O.2       1 <0>         0.0000
     20 O3          0.1329    0.4211   -3.5358 O.2       1 <0>         0.0000
     21 S1          0.6571    0.1313   -2.2005 S.o2      1 <0>         0.0000
     22 H1          4.5609    4.4149    6.1996 H         1 <0>         0.0000
     23 H2          4.8913    4.1580    3.7446 H         1 <0>         0.0000
     24 H3          2.3367    3.9153    7.2024 H         1 <0>         0.0000
     25 H4          3.0142    3.4120    2.3098 H         1 <0>         0.0000
     26 H5          0.4655    3.1627    5.7632 H         1 <0>         0.0000
     27 H6          0.9059   -0.9561    0.9322 H         1 <0>         0.0000
     28 H7         -0.0524   -2.4128    1.1586 H         1 <0>         0.0000
     29 H8         -0.8029    2.3953   -0.6888 H         1 <0>         0.0000
     30 H9          0.5196    1.6088    0.1467 H         1 <0>         0.0000
     31 H10        -1.8940   -0.9760    2.1752 H         1 <0>         0.0000
     32 H11        -0.3956   -1.1184    3.1082 H         1 <0>         0.0000
     33 H12        -1.4983    2.5346    1.5451 H         1 <0>         0.0000
     34 H13        -2.3535    1.0951    1.0489 H         1 <0>         0.0000
     35 H14        -0.1590   -3.0947   -1.0712 H         1 <0>         0.0000
     36 H15        -1.0869   -2.1805   -2.2667 H         1 <0>         0.0000
     37 H16        -1.9265   -1.3445   -0.1836 H         1 <0>         0.0000
     38 H17        -1.6161    0.4316   -1.6400 H         1 <0>         0.0000
     39 H18        -0.4701    3.2483    3.3807 H         1 <0>         0.0000
     40 H19         0.6413    3.1142    2.0307 H         1 <0>         0.0000
     41 H20         1.6880   -1.6853   -1.4085 H         1 <0>         0.0000
@<TRIPOS>BOND
     1    1    3 ar
     2    1    2 ar
     3    1   22 1
     4    2    4 ar
     5    2   23 1
     6    3    5 ar
     7    3   24 1
     8    4    6 ar
     9    4   25 1
    10    5    6 ar
    11    5   26 1
    12    6   15 1
    13    7   15 1
    14    7   17 am
    15    7   18 2
    16    8   10 1
    17    8   13 1
    18    8   27 1
    19    8   28 1
    20    9   11 1
    21    9   14 1
    22    9   29 1
    23    9   30 1
    24   10   17 1
    25   10   31 1
    26   10   32 1
    27   11   17 1
    28   11   33 1
    29   11   34 1
    30   12   13 1
    31   12   16 1
    32   12   35 1
    33   12   36 1
    34   13   14 1
    35   13   37 1
    36   14   21 1
    37   14   38 1
    38   15   39 1
    39   15   40 1
    40   16   21 1
    41   16   41 1
    42   19   21 2
    43   20   21 2
