@<TRIPOS>MOLECULE
*****
   32    33     0     0     0
SMALL
NO_CHARGES

@<TRIPOS>ATOM
      1 C1          0.2998   -3.0444   -2.9670 C.2       1 <0>         0.0000
      2 C2         -0.4843    1.3249    2.0097 C.3       1 <0>         0.0000
      3 C3         -0.1968   -0.0867    1.4825 C.3       1 <0>         0.0000
      4 C4         -1.0076   -0.0273   -1.0002 C.3       1 <0>         0.0000
      5 C5          0.8886   -0.9239   -0.7550 C.3       1 <0>         0.0000
      6 C6          0.5615    2.1476    1.2489 C.3       1 <0>         0.0000
      7 C7          0.1459    0.1860    0.0180 C.3       1 <0>         0.0000
      8 C8          1.0047   -4.7584   -4.5563 C.3       1 <0>         0.0000
      9 C9         -0.4160   -2.9134   -5.3636 C.3       1 <0>         0.0000
     10 C10        -0.4607   -1.7359   -2.7203 C.3       1 <0>         0.0000
     11 N1         -0.4140   -1.3421   -1.3336 N.3       1 <0>         0.0000
     12 N2          0.1987   -3.5873   -4.2288 N.am      1 <0>         0.0000
     13 O1          0.9709   -3.5691   -2.0796 O.2       1 <0>         0.0000
     14 O2          0.7592    1.4753   -0.0100 O.3       1 <0>         0.0000
     15 H1         -1.4963    1.6387    1.7306 H         1 <0>         0.0000
     16 H2         -0.3852    1.4159    3.0949 H         1 <0>         0.0000
     17 H3          0.6755   -0.5139    1.9909 H         1 <0>         0.0000
     18 H4         -1.0289   -0.7857    1.5907 H         1 <0>         0.0000
     19 H5         -2.0396   -0.0652   -0.6290 H         1 <0>         0.0000
     20 H6         -0.9306    0.7106   -1.8149 H         1 <0>         0.0000
     21 H7          1.5719   -0.4861   -1.4994 H         1 <0>         0.0000
     22 H8          1.4062   -1.7026   -0.1912 H         1 <0>         0.0000
     23 H9          0.2457    3.1758    1.0463 H         1 <0>         0.0000
     24 H10         1.5164    2.1765    1.7914 H         1 <0>         0.0000
     25 H11         0.3888   -5.4996   -5.0779 H         1 <0>         0.0000
     26 H12         1.3921   -5.1884   -3.6343 H         1 <0>         0.0000
     27 H13         1.8483   -4.4865   -5.2056 H         1 <0>         0.0000
     28 H14         0.3232   -2.3527   -5.9540 H         1 <0>         0.0000
     29 H15        -1.1984   -2.2253   -5.0473 H         1 <0>         0.0000
     30 H16        -0.8770   -3.6597   -6.0191 H         1 <0>         0.0000
     31 H17        -0.0371   -0.9595   -3.3912 H         1 <0>         0.0000
     32 H18        -1.5130   -1.8562   -3.0047 H         1 <0>         0.0000
@<TRIPOS>BOND
     1    1   10 1
     2    1   12 am
     3    1   13 2
     4    2    3 1
     5    2    6 1
     6    2   15 1
     7    2   16 1
     8    3    7 1
     9    3   17 1
    10    3   18 1
    11    4    7 1
    12    4   11 1
    13    4   19 1
    14    4   20 1
    15    5    7 1
    16    5   11 1
    17    5   21 1
    18    5   22 1
    19    6   14 1
    20    6   23 1
    21    6   24 1
    22    7   14 1
    23    8   12 1
    24    8   25 1
    25    8   26 1
    26    8   27 1
    27    9   12 1
    28    9   28 1
    29    9   29 1
    30    9   30 1
    31   10   11 1
    32   10   31 1
    33   10   32 1
