@<TRIPOS>MOLECULE
*****
   25    26     0     0     0
SMALL
NO_CHARGES

@<TRIPOS>ATOM
      1 C1          0.8340   -3.4660    4.1442 C.ar      1 <0>         0.0000
      2 C2          1.1272   -4.8330    4.0966 C.ar      1 <0>         0.0000
      3 C3          1.7439   -2.5422    3.6263 C.ar      1 <0>         0.0000
      4 C4          2.3271   -5.2715    3.5315 C.ar      1 <0>         0.0000
      5 C5          7.3530   -3.1615    4.5212 C.2       1 <0>         0.0000
      6 C6          5.2962   -2.8942    5.3114 C.2       1 <0>         0.0000
      7 C7          6.4567   -3.6135    5.5324 C.2       1 <0>         0.0000
      8 C8          2.9543   -2.9700    3.0677 C.ar      1 <0>         0.0000
      9 C9          3.2412   -4.3439    3.0236 C.ar      1 <0>         0.0000
     10 C10         4.5863   -1.2981    3.5011 C.3       1 <0>         0.0000
     11 N1          6.7899   -2.2497    3.7306 N.2       1 <0>         0.0000
     12 N2          5.5440   -2.0761    4.2291 N.pl3     1 <0>         0.0000
     13 N3          6.7438   -4.5240    6.5717 N.pl3     1 <0>         0.0000
     14 O1          3.8393   -2.0578    2.5371 O.3       1 <0>         0.0000
     15 Cl1         4.7470   -4.8987    2.3397 Cl        1 <0>         0.0000
     16 H1         -0.1036   -3.1207    4.5707 H         1 <0>         0.0000
     17 H2          0.4227   -5.5601    4.4906 H         1 <0>         0.0000
     18 H3          1.5229   -1.4781    3.6333 H         1 <0>         0.0000
     19 H4          2.5643   -6.3299    3.4844 H         1 <0>         0.0000
     20 H5          8.3805   -3.4633    4.3538 H         1 <0>         0.0000
     21 H6          4.3398   -2.8982    5.8160 H         1 <0>         0.0000
     22 H7          3.9006   -0.8277    4.2133 H         1 <0>         0.0000
     23 H8          5.1251   -0.5484    2.9249 H         1 <0>         0.0000
     24 H9          7.3863   -5.2492    6.2684 H         1 <0>         0.0000
     25 H10         5.9053   -4.9638    6.9377 H         1 <0>         0.0000
@<TRIPOS>BOND
     1    1    2 ar
     2    1    3 ar
     3    1   16 1
     4    2    4 ar
     5    2   17 1
     6    3    8 ar
     7    3   18 1
     8    4    9 ar
     9    4   19 1
    10    5    7 1
    11    5   11 2
    12    5   20 1
    13    6    7 2
    14    6   12 1
    15    6   21 1
    16    7   13 1
    17    8    9 ar
    18    8   14 1
    19    9   15 1
    20   10   12 1
    21   10   14 1
    22   10   22 1
    23   10   23 1
    24   11   12 1
    25   13   24 1
    26   13   25 1
