@<TRIPOS>MOLECULE
*****
   41    43     0     0     0
SMALL
NO_CHARGES

@<TRIPOS>ATOM
      1 C1          0.3212   -2.3106    3.9928 C.ar      1 <0>         0.0000
      2 C2         -0.7931   -2.2654    3.1472 C.ar      1 <0>         0.0000
      3 C3          1.4400   -3.0588    3.6174 C.ar      1 <0>         0.0000
      4 C4         -0.7768   -2.9377    1.9232 C.ar      1 <0>         0.0000
      5 C5          1.4553   -3.7286    2.3892 C.ar      1 <0>         0.0000
      6 C6          0.3591   -3.6574    1.5190 C.ar      1 <0>         0.0000
      7 C7          0.1421   -3.1919   -0.9315 C.2       1 <0>         0.0000
      8 C8          0.4862    0.0766   -1.5530 C.3       1 <0>         0.0000
      9 C9          2.7266   -0.9197    0.0141 C.3       1 <0>         0.0000
     10 C10         0.8542   -1.2702   -2.2408 C.3       1 <0>         0.0000
     11 C11         2.4736   -2.2809   -0.6636 C.3       1 <0>         0.0000
     12 C12        -0.2844    1.3310    0.5083 C.3       1 <0>         0.0000
     13 C13         0.2470   -0.0261   -0.0424 C.3       1 <0>         0.0000
     14 C14         1.5013   -0.4355    0.7861 C.3       1 <0>         0.0000
     15 C15         0.4109   -4.2666    0.1281 C.3       1 <0>         0.0000
     16 N1          0.2618    1.4775    1.8711 N.pl3     1 <0>         0.0000
     17 N2          1.1633   -2.3520   -1.3035 N.am      1 <0>         0.0000
     18 O1         -0.9945   -3.0707   -1.3989 O.2       1 <0>         0.0000
     19 O2          2.6341    2.0000    0.8719 O.2       1 <0>         0.0000
     20 O3          2.4472    0.7719    3.0797 O.2       1 <0>         0.0000
     21 S1          1.9106    1.0549    1.7461 S.o2      1 <0>         0.0000
     22 H1          0.3226   -1.7587    4.9279 H         1 <0>         0.0000
     23 H2         -1.6676   -1.6873    3.4334 H         1 <0>         0.0000
     24 H3          2.3094   -3.1006    4.2675 H         1 <0>         0.0000
     25 H4         -1.6347   -2.8835    1.2578 H         1 <0>         0.0000
     26 H5          2.3383   -4.2950    2.0995 H         1 <0>         0.0000
     27 H6          1.2627    0.8255   -1.7390 H         1 <0>         0.0000
     28 H7         -0.4300    0.4634   -2.0119 H         1 <0>         0.0000
     29 H8          3.5737   -1.0341    0.6990 H         1 <0>         0.0000
     30 H9          3.0219   -0.1663   -0.7192 H         1 <0>         0.0000
     31 H10         0.0264   -1.6141   -2.8580 H         1 <0>         0.0000
     32 H11         1.7269   -1.1352   -2.8879 H         1 <0>         0.0000
     33 H12         3.2549   -2.4548   -1.4147 H         1 <0>         0.0000
     34 H13         2.5548   -3.0713    0.0761 H         1 <0>         0.0000
     35 H14         0.0306    2.1549   -0.1446 H         1 <0>         0.0000
     36 H15        -1.3749    1.3240    0.5666 H         1 <0>         0.0000
     37 H16        -0.5132   -0.7846    0.1451 H         1 <0>         0.0000
     38 H17         1.2211   -1.1567    1.5521 H         1 <0>         0.0000
     39 H18         1.3606   -4.7830   -0.0323 H         1 <0>         0.0000
     40 H19        -0.3911   -4.9968   -0.0011 H         1 <0>         0.0000
     41 H20         0.1767    2.4222    2.2488 H         1 <0>         0.0000
@<TRIPOS>BOND
     1    1    3 ar
     2    1    2 ar
     3    1   22 1
     4    2    4 ar
     5    2   23 1
     6    3    5 ar
     7    3   24 1
     8    4    6 ar
     9    4   25 1
    10    5    6 ar
    11    5   26 1
    12    6   15 1
    13    7   15 1
    14    7   17 am
    15    7   18 2
    16    8   10 1
    17    8   13 1
    18    8   27 1
    19    8   28 1
    20    9   11 1
    21    9   14 1
    22    9   29 1
    23    9   30 1
    24   10   17 1
    25   10   31 1
    26   10   32 1
    27   11   17 1
    28   11   33 1
    29   11   34 1
    30   12   13 1
    31   12   16 1
    32   12   35 1
    33   12   36 1
    34   13   14 1
    35   13   37 1
    36   14   21 1
    37   14   38 1
    38   15   39 1
    39   15   40 1
    40   16   21 1
    41   16   41 1
    42   19   21 2
    43   20   21 2
