@<TRIPOS>MOLECULE
*****
   43    45     0     0     0
SMALL
NO_CHARGES

@<TRIPOS>ATOM
      1 C1          4.0494   -4.5494   -1.2019 C.ar      1 <0>         0.0000
      2 C2          3.5982   -4.4425   -2.5332 C.ar      1 <0>         0.0000
      3 C3          4.2165   -3.4081   -0.4156 C.ar      1 <0>         0.0000
      4 C4          3.2888   -3.2043   -3.1043 C.ar      1 <0>         0.0000
      5 C5          3.9256   -2.1693   -0.9888 C.ar      1 <0>         0.0000
      6 C6          3.4520   -2.0739   -2.2991 C.ar      1 <0>         0.0000
      7 C7          3.9769   -0.8066   -0.4237 C.2       1 <0>         0.0000
      8 C8          2.1430    1.5934   -0.0704 C.2       1 <0>         0.0000
      9 C9         -0.0125   -0.5596    1.7583 C.3       1 <0>         0.0000
     10 C10         0.2304    0.8731    1.2502 C.3       1 <0>         0.0000
     11 C11         0.3780    0.1616   -1.1180 C.3       1 <0>         0.0000
     12 C12        -0.5918   -0.9709   -0.6852 C.3       1 <0>         0.0000
     13 C13        -0.0994   -1.6116    0.6313 C.3       1 <0>         0.0000
     14 C14        -2.0619   -0.5204   -0.6428 C.3       1 <0>         0.0000
     15 C15        -0.9546   -2.8053    1.0680 C.3       1 <0>         0.0000
     16 C16         3.0777    1.3802   -1.2838 C.3       1 <0>         0.0000
     17 N1          3.1393   -0.7283   -2.6129 N.pl3     1 <0>         0.0000
     18 N2          3.5779    0.0233   -1.4765 N.am      1 <0>         0.0000
     19 N3          1.0071    0.8397    0.0174 N.am      1 <0>         0.0000
     20 O1          4.2758   -0.4176    0.6963 O.2       1 <0>         0.0000
     21 O2          2.4598    2.4373    0.7669 O.2       1 <0>         0.0000
     22 O3          1.2569   -2.0684    0.4282 O.3       1 <0>         0.0000
     23 H1          4.2668   -5.5309   -0.7903 H         1 <0>         0.0000
     24 H2          3.4778   -5.3441   -3.1282 H         1 <0>         0.0000
     25 H3          4.5565   -3.4629    0.6144 H         1 <0>         0.0000
     26 H4          2.9234   -3.1310   -4.1252 H         1 <0>         0.0000
     27 H5          0.8103   -0.8660    2.4092 H         1 <0>         0.0000
     28 H6         -0.9300   -0.5763    2.3554 H         1 <0>         0.0000
     29 H7         -0.7184    1.3962    1.0715 H         1 <0>         0.0000
     30 H8          0.7879    1.4618    1.9769 H         1 <0>         0.0000
     31 H9          1.1463   -0.2566   -1.7609 H         1 <0>         0.0000
     32 H10        -0.1860    0.8942   -1.7160 H         1 <0>         0.0000
     33 H11        -0.5242   -1.7440   -1.4630 H         1 <0>         0.0000
     34 H12        -2.2614    0.1859    0.1681 H         1 <0>         0.0000
     35 H13        -2.7354   -1.3724   -0.5154 H         1 <0>         0.0000
     36 H14        -2.3339   -0.0275   -1.5821 H         1 <0>         0.0000
     37 H15        -0.9948   -3.5681    0.2798 H         1 <0>         0.0000
     38 H16        -1.9807   -2.5147    1.3085 H         1 <0>         0.0000
     39 H17        -0.5097   -3.2595    1.9586 H         1 <0>         0.0000
     40 H18         3.9186    2.0517   -1.1038 H         1 <0>         0.0000
     41 H19         2.5849    1.6842   -2.2113 H         1 <0>         0.0000
     42 H20         3.6336   -0.4007   -3.4447 H         1 <0>         0.0000
     43 H21         1.2437   -2.7809   -0.2321 H         1 <0>         0.0000
@<TRIPOS>BOND
     1    1    2 ar
     2    1    3 ar
     3    1   23 1
     4    2    4 ar
     5    2   24 1
     6    3    5 ar
     7    3   25 1
     8    4    6 ar
     9    4   26 1
    10    5    6 ar
    11    5    7 1
    12    6   17 1
    13    7   18 am
    14    7   20 2
    15    8   16 1
    16    8   19 am
    17    8   21 2
    18    9   10 1
    19    9   13 1
    20    9   27 1
    21    9   28 1
    22   10   19 1
    23   10   29 1
    24   10   30 1
    25   11   12 1
    26   11   19 1
    27   11   31 1
    28   11   32 1
    29   12   13 1
    30   12   14 1
    31   12   33 1
    32   13   15 1
    33   13   22 1
    34   14   34 1
    35   14   35 1
    36   14   36 1
    37   15   37 1
    38   15   38 1
    39   15   39 1
    40   16   18 1
    41   16   40 1
    42   16   41 1
    43   17   18 1
    44   17   42 1
    45   22   43 1
