@<TRIPOS>MOLECULE
*****
   41    43     0     0     0
SMALL
NO_CHARGES

@<TRIPOS>ATOM
      1 C1          3.2424   -1.4442    3.5849 C.ar      1 <0>         0.0000
      2 C2          3.2205   -0.2308    4.2827 C.ar      1 <0>         0.0000
      3 C3          2.1703   -1.7783    2.7534 C.ar      1 <0>         0.0000
      4 C4          2.1495    0.6522    4.1278 C.ar      1 <0>         0.0000
      5 C5          1.1005   -0.8899    2.5976 C.ar      1 <0>         0.0000
      6 C6          1.0862    0.3424    3.2647 C.ar      1 <0>         0.0000
      7 C7          0.5908    2.6851    2.5307 C.2       1 <0>         0.0000
      8 C8          3.1912    3.9274    0.9333 C.3       1 <0>         0.0000
      9 C9          2.3299    1.4449   -0.3440 C.3       1 <0>         0.0000
     10 C10         1.6395    4.0212    0.7928 C.3       1 <0>         0.0000
     11 C11         0.9310    1.7175    0.2343 C.3       1 <0>         0.0000
     12 C12         5.2008    2.6333    1.8599 C.3       1 <0>         0.0000
     13 C13         3.6758    2.6226    1.5830 C.3       1 <0>         0.0000
     14 C14         3.4123    1.3573    0.7314 C.3       1 <0>         0.0000
     15 C15        -0.0128    1.3644    3.0216 C.3       1 <0>         0.0000
     16 N1          5.9350    2.2655    0.6358 N.pl3     1 <0>         0.0000
     17 N2          0.9363    2.8059    1.2084 N.am      1 <0>         0.0000
     18 O1          0.8037    3.5964    3.3366 O.2       1 <0>         0.0000
     19 O2          5.0195    1.2298   -1.5293 O.2       1 <0>         0.0000
     20 O3          5.5364   -0.2886    0.4529 O.2       1 <0>         0.0000
     21 S1          5.0497    0.9855   -0.0794 S.o2      1 <0>         0.0000
     22 H1          4.0876   -2.1189    3.6850 H         1 <0>         0.0000
     23 H2          4.0438    0.0304    4.9428 H         1 <0>         0.0000
     24 H3          2.1732   -2.7213    2.2136 H         1 <0>         0.0000
     25 H4          2.1406    1.5995    4.6611 H         1 <0>         0.0000
     26 H5          0.2752   -1.1574    1.9405 H         1 <0>         0.0000
     27 H6          3.6578    4.0600   -0.0500 H         1 <0>         0.0000
     28 H7          3.5344    4.7583    1.5570 H         1 <0>         0.0000
     29 H8          2.2913    0.5064   -0.9059 H         1 <0>         0.0000
     30 H9          2.5979    2.2144   -1.0719 H         1 <0>         0.0000
     31 H10         1.2615    4.8372    1.4061 H         1 <0>         0.0000
     32 H11         1.3607    4.2209   -0.2460 H         1 <0>         0.0000
     33 H12         0.2534    1.9692   -0.5923 H         1 <0>         0.0000
     34 H13         0.5502    0.8153    0.7021 H         1 <0>         0.0000
     35 H14         5.5505    3.6100    2.2013 H         1 <0>         0.0000
     36 H15         5.4479    1.8974    2.6304 H         1 <0>         0.0000
     37 H16         3.1684    2.5097    2.5407 H         1 <0>         0.0000
     38 H17         3.2550    0.4961    1.3823 H         1 <0>         0.0000
     39 H18        -0.7641    0.9676    2.3342 H         1 <0>         0.0000
     40 H19        -0.5166    1.6132    3.9582 H         1 <0>         0.0000
     41 H20         5.9504    3.0271   -0.0433 H         1 <0>         0.0000
@<TRIPOS>BOND
     1    1    3 ar
     2    1    2 ar
     3    1   22 1
     4    2    4 ar
     5    2   23 1
     6    3    5 ar
     7    3   24 1
     8    4    6 ar
     9    4   25 1
    10    5    6 ar
    11    5   26 1
    12    6   15 1
    13    7   15 1
    14    7   17 am
    15    7   18 2
    16    8   10 1
    17    8   13 1
    18    8   27 1
    19    8   28 1
    20    9   11 1
    21    9   14 1
    22    9   29 1
    23    9   30 1
    24   10   17 1
    25   10   31 1
    26   10   32 1
    27   11   17 1
    28   11   33 1
    29   11   34 1
    30   12   13 1
    31   12   16 1
    32   12   35 1
    33   12   36 1
    34   13   14 1
    35   13   37 1
    36   14   21 1
    37   14   38 1
    38   15   39 1
    39   15   40 1
    40   16   21 1
    41   16   41 1
    42   19   21 2
    43   20   21 2
