@<TRIPOS>MOLECULE
*****
   43    45     0     0     0
SMALL
NO_CHARGES

@<TRIPOS>ATOM
      1 C1         -5.4990    2.4705   -6.7879 C.ar      1 <0>         0.0000
      2 C2         -6.1908    2.7459   -5.5895 C.ar      1 <0>         0.0000
      3 C3         -4.2595    1.8328   -6.7572 C.ar      1 <0>         0.0000
      4 C4         -5.6770    2.3824   -4.3434 C.ar      1 <0>         0.0000
      5 C5         -3.7320    1.4802   -5.5116 C.ar      1 <0>         0.0000
      6 C6         -4.4376    1.7336   -4.3272 C.ar      1 <0>         0.0000
      7 C7         -2.4624    0.8315   -5.1446 C.2       1 <0>         0.0000
      8 C8         -1.1694    0.7043   -1.6840 C.2       1 <0>         0.0000
      9 C9          0.0668   -2.1676   -0.0883 C.3       1 <0>         0.0000
     10 C10         0.4070   -1.1960   -1.2248 C.3       1 <0>         0.0000
     11 C11         0.2291    0.7039    0.3213 C.3       1 <0>         0.0000
     12 C12        -0.1024   -0.2232    1.5031 C.3       1 <0>         0.0000
     13 C13         0.4889   -1.6429    1.2988 C.3       1 <0>         0.0000
     14 C14         0.3043    0.4283    2.8284 C.3       1 <0>         0.0000
     15 C15         2.0090   -1.6929    1.4701 C.3       1 <0>         0.0000
     16 C16        -1.6223   -0.0181   -2.9609 C.3       1 <0>         0.0000
     17 N1         -3.7355    1.2223   -3.2227 N.pl3     1 <0>         0.0000
     18 N2         -2.4810    0.8181   -3.7525 N.am      1 <0>         0.0000
     19 N3         -0.1778    0.1178   -0.9568 N.am      1 <0>         0.0000
     20 O1         -1.5583    0.3658   -5.8398 O.2       1 <0>         0.0000
     21 O2         -1.7119    1.7623   -1.3418 O.2       1 <0>         0.0000
     22 O3         -0.0120   -2.5362    2.3117 O.3       1 <0>         0.0000
     23 H1         -5.9386    2.7629   -7.7372 H         1 <0>         0.0000
     24 H2         -7.1532    3.2490   -5.6368 H         1 <0>         0.0000
     25 H3         -3.7032    1.6176   -7.6651 H         1 <0>         0.0000
     26 H4         -6.2231    2.5882   -3.4269 H         1 <0>         0.0000
     27 H5         -1.0198   -2.3297   -0.0884 H         1 <0>         0.0000
     28 H6          0.5402   -3.1383   -0.2682 H         1 <0>         0.0000
     29 H7          1.4939   -1.0825   -1.3199 H         1 <0>         0.0000
     30 H8          0.0484   -1.5890   -2.1741 H         1 <0>         0.0000
     31 H9         -0.2846    1.6585    0.4280 H         1 <0>         0.0000
     32 H10         1.3077    0.9046    0.2867 H         1 <0>         0.0000
     33 H11        -1.1962   -0.3452    1.5035 H         1 <0>         0.0000
     34 H12         1.3576    0.7277    2.8233 H         1 <0>         0.0000
     35 H13         0.1523   -0.2615    3.6626 H         1 <0>         0.0000
     36 H14        -0.2929    1.3275    3.0117 H         1 <0>         0.0000
     37 H15         2.2828   -1.4433    2.4972 H         1 <0>         0.0000
     38 H16         2.5230   -1.0005    0.7989 H         1 <0>         0.0000
     39 H17         2.3692   -2.7047    1.2636 H         1 <0>         0.0000
     40 H18        -2.1328   -0.9530   -2.6865 H         1 <0>         0.0000
     41 H19        -0.7823   -0.2681   -3.6131 H         1 <0>         0.0000
     42 H20        -3.5595    1.8774   -2.4575 H         1 <0>         0.0000
     43 H21        -0.9804   -2.5589    2.2404 H         1 <0>         0.0000
@<TRIPOS>BOND
     1    1    2 ar
     2    1    3 ar
     3    1   23 1
     4    2    4 ar
     5    2   24 1
     6    3    5 ar
     7    3   25 1
     8    4    6 ar
     9    4   26 1
    10    5    6 ar
    11    5    7 1
    12    6   17 1
    13    7   18 am
    14    7   20 2
    15    8   16 1
    16    8   19 am
    17    8   21 2
    18    9   10 1
    19    9   13 1
    20    9   27 1
    21    9   28 1
    22   10   19 1
    23   10   29 1
    24   10   30 1
    25   11   12 1
    26   11   19 1
    27   11   31 1
    28   11   32 1
    29   12   13 1
    30   12   14 1
    31   12   33 1
    32   13   15 1
    33   13   22 1
    34   14   34 1
    35   14   35 1
    36   14   36 1
    37   15   37 1
    38   15   38 1
    39   15   39 1
    40   16   18 1
    41   16   40 1
    42   16   41 1
    43   17   18 1
    44   17   42 1
    45   22   43 1
