@<TRIPOS>MOLECULE
*****
   25    26     0     0     0
SMALL
NO_CHARGES

@<TRIPOS>ATOM
      1 C1         -0.1020   -2.6123   -5.0359 C.ar      1 <0>         0.0000
      2 C2         -0.4121   -1.8558   -3.9049 C.ar      1 <0>         0.0000
      3 C3         -0.3529   -2.1158   -6.3189 C.ar      1 <0>         0.0000
      4 C4         -0.9906   -0.5885   -4.0332 C.ar      1 <0>         0.0000
      5 C5         -0.9326   -0.8584   -6.4395 C.ar      1 <0>         0.0000
      6 C6         -1.2647   -0.1025   -5.3173 C.ar      1 <0>         0.0000
      7 C7          2.6454    1.8556   -3.4639 C.3       1 <0>         0.0000
      8 C8          2.2080    3.1383   -2.7533 C.3       1 <0>         0.0000
      9 C9          0.6765    1.4240   -2.4378 C.3       1 <0>         0.0000
     10 C10        -0.8188    1.4274   -2.7222 C.3       1 <0>         0.0000
     11 O1          1.4076    1.1559   -3.6199 O.3       1 <0>         0.0000
     12 O2          1.0681    2.7218   -1.9831 O.3       1 <0>         0.0000
     13 O3         -1.3384    0.0980   -2.8960 O.3       1 <0>         0.0000
     14 F1         -1.2013   -0.3467   -7.6618 F         1 <0>         0.0000
     15 F2         -1.8558    1.1014   -5.4876 F         1 <0>         0.0000
     16 H1          0.3471   -3.5942   -4.9201 H         1 <0>         0.0000
     17 H2         -0.2111   -2.2254   -2.9043 H         1 <0>         0.0000
     18 H3         -0.1139   -2.6789   -7.2153 H         1 <0>         0.0000
     19 H4          3.0731    2.0162   -4.4549 H         1 <0>         0.0000
     20 H5          3.3434    1.2698   -2.8498 H         1 <0>         0.0000
     21 H6          2.9679    3.5393   -2.0766 H         1 <0>         0.0000
     22 H7          1.9041    3.9141   -3.4655 H         1 <0>         0.0000
     23 H8          0.9247    0.6826   -1.6613 H         1 <0>         0.0000
     24 H9         -1.0254    2.0632   -3.5855 H         1 <0>         0.0000
     25 H10        -1.3377    1.8233   -1.8479 H         1 <0>         0.0000
@<TRIPOS>BOND
     1    1    2 ar
     2    1    3 ar
     3    1   16 1
     4    2    4 ar
     5    2   17 1
     6    3    5 ar
     7    3   18 1
     8    4    6 ar
     9    4   13 1
    10    5    6 ar
    11    5   14 1
    12    6   15 1
    13    7    8 1
    14    7   11 1
    15    7   19 1
    16    7   20 1
    17    8   12 1
    18    8   21 1
    19    8   22 1
    20    9   10 1
    21    9   12 1
    22    9   11 1
    23    9   23 1
    24   10   13 1
    25   10   24 1
    26   10   25 1
