@<TRIPOS>MOLECULE
*****
   41    43     0     0     0
SMALL
NO_CHARGES

@<TRIPOS>ATOM
      1 C1         -3.8027   -4.9450    3.6216 C.ar      1 <0>         0.0000
      2 C2         -4.2557   -3.6283    3.7640 C.ar      1 <0>         0.0000
      3 C3         -2.4320   -5.1929    3.5054 C.ar      1 <0>         0.0000
      4 C4         -3.3447   -2.5699    3.7882 C.ar      1 <0>         0.0000
      5 C5         -1.5231   -4.1297    3.5275 C.ar      1 <0>         0.0000
      6 C6         -1.9672   -2.8090    3.6690 C.ar      1 <0>         0.0000
      7 C7         -1.4177   -0.4512    2.8598 C.2       1 <0>         0.0000
      8 C8         -0.9869    1.3719    0.1090 C.3       1 <0>         0.0000
      9 C9         -0.4359   -1.4629   -0.5168 C.3       1 <0>         0.0000
     10 C10        -2.1077    0.4839    0.7266 C.3       1 <0>         0.0000
     11 C11        -1.1931   -1.8288    0.7679 C.3       1 <0>         0.0000
     12 C12         1.5136    1.8157   -0.1843 C.3       1 <0>         0.0000
     13 C13         0.4344    0.8558    0.3790 C.3       1 <0>         0.0000
     14 C14         0.7372   -0.5174   -0.2619 C.3       1 <0>         0.0000
     15 C15        -0.9867   -1.6517    3.7045 C.3       1 <0>         0.0000
     16 N1          1.6668    1.5892   -1.6332 N.pl3     1 <0>         0.0000
     17 N2         -1.6005   -0.6384    1.5141 N.am      1 <0>         0.0000
     18 O1         -1.6225    0.6452    3.3898 O.2       1 <0>         0.0000
     19 O2          0.6773   -0.3266   -3.0280 O.2       1 <0>         0.0000
     20 O3          2.9126   -0.6797   -1.8532 O.2       1 <0>         0.0000
     21 S1          1.5677   -0.1029   -1.8794 S.o2      1 <0>         0.0000
     22 H1         -4.5115   -5.7687    3.6015 H         1 <0>         0.0000
     23 H2         -5.3198   -3.4264    3.8571 H         1 <0>         0.0000
     24 H3         -2.0692   -6.2117    3.3952 H         1 <0>         0.0000
     25 H4         -3.7033   -1.5490    3.8995 H         1 <0>         0.0000
     26 H5         -0.4577   -4.3321    3.4337 H         1 <0>         0.0000
     27 H6         -1.1567    1.4695   -0.9696 H         1 <0>         0.0000
     28 H7         -1.0587    2.3777    0.5334 H         1 <0>         0.0000
     29 H8         -0.0692   -2.3887   -0.9717 H         1 <0>         0.0000
     30 H9         -1.1112   -1.0194   -1.2516 H         1 <0>         0.0000
     31 H10        -2.7302    1.0845    1.3877 H         1 <0>         0.0000
     32 H11        -2.7496    0.0730   -0.0577 H         1 <0>         0.0000
     33 H12        -2.0713   -2.4333    0.5070 H         1 <0>         0.0000
     34 H13        -0.5590   -2.4495    1.3982 H         1 <0>         0.0000
     35 H14         1.2577    2.8642   -0.0177 H         1 <0>         0.0000
     36 H15         2.4808    1.6263    0.2905 H         1 <0>         0.0000
     37 H16         0.5717    0.7820    1.4607 H         1 <0>         0.0000
     38 H17         1.5289   -1.0214    0.2991 H         1 <0>         0.0000
     39 H18        -0.8947   -1.2606    4.7207 H         1 <0>         0.0000
     40 H19         0.0104   -1.9923    3.4044 H         1 <0>         0.0000
     41 H20         0.9079    2.0101   -2.1693 H         1 <0>         0.0000
@<TRIPOS>BOND
     1    1    3 ar
     2    1    2 ar
     3    1   22 1
     4    2    4 ar
     5    2   23 1
     6    3    5 ar
     7    3   24 1
     8    4    6 ar
     9    4   25 1
    10    5    6 ar
    11    5   26 1
    12    6   15 1
    13    7   15 1
    14    7   17 am
    15    7   18 2
    16    8   10 1
    17    8   13 1
    18    8   27 1
    19    8   28 1
    20    9   11 1
    21    9   14 1
    22    9   29 1
    23    9   30 1
    24   10   17 1
    25   10   31 1
    26   10   32 1
    27   11   17 1
    28   11   33 1
    29   11   34 1
    30   12   13 1
    31   12   16 1
    32   12   35 1
    33   12   36 1
    34   13   14 1
    35   13   37 1
    36   14   21 1
    37   14   38 1
    38   15   39 1
    39   15   40 1
    40   16   21 1
    41   16   41 1
    42   19   21 2
    43   20   21 2
