@<TRIPOS>MOLECULE
*****
   43    45     0     0     0
SMALL
NO_CHARGES

@<TRIPOS>ATOM
      1 C1         -6.7252   -2.1606   -0.0777 C.ar      1 <0>         0.0000
      2 C2         -6.8806   -2.1030   -1.4794 C.ar      1 <0>         0.0000
      3 C3         -5.6863   -1.4734    0.5473 C.ar      1 <0>         0.0000
      4 C4         -6.0216   -1.3535   -2.2842 C.ar      1 <0>         0.0000
      5 C5         -4.8141   -0.7292   -0.2537 C.ar      1 <0>         0.0000
      6 C6         -4.9844   -0.6656   -1.6454 C.ar      1 <0>         0.0000
      7 C7         -3.6015    0.0324    0.0820 C.2       1 <0>         0.0000
      8 C8         -0.9751    0.1070   -1.9222 C.2       1 <0>         0.0000
      9 C9          2.2066   -1.4595   -0.9143 C.3       1 <0>         0.0000
     10 C10         0.9010   -1.3980   -1.6989 C.3       1 <0>         0.0000
     11 C11         0.2102   -0.0231    0.2874 C.3       1 <0>         0.0000
     12 C12         0.6228   -1.2859    1.0532 C.3       1 <0>         0.0000
     13 C13         2.0154   -1.7943    0.5867 C.3       1 <0>         0.0000
     14 C14         0.4841   -1.0795    2.5633 C.3       1 <0>         0.0000
     15 C15         3.1801   -1.2114    1.3856 C.3       1 <0>         0.0000
     16 C16        -1.9239    1.1902   -1.3930 C.3       1 <0>         0.0000
     17 N1         -4.0228    0.1851   -2.2173 N.pl3     1 <0>         0.0000
     18 N2         -3.2051    0.5789   -1.1269 N.am      1 <0>         0.0000
     19 N3          0.0391   -0.3385   -1.1448 N.am      1 <0>         0.0000
     20 O1         -3.0119    0.1990    1.1568 O.2       1 <0>         0.0000
     21 O2         -1.2112   -0.3566   -3.0516 O.2       1 <0>         0.0000
     22 O3          2.1008   -3.2184    0.8028 O.3       1 <0>         0.0000
     23 H1         -7.4230   -2.7477    0.5125 H         1 <0>         0.0000
     24 H2         -7.6950   -2.6520   -1.9450 H         1 <0>         0.0000
     25 H3         -5.5416   -1.5097    1.6234 H         1 <0>         0.0000
     26 H4         -6.1560   -1.3048   -3.3612 H         1 <0>         0.0000
     27 H5          2.8697   -2.2114   -1.3521 H         1 <0>         0.0000
     28 H6          2.7122   -0.4926   -1.0143 H         1 <0>         0.0000
     29 H7          1.0799   -1.1747   -2.7519 H         1 <0>         0.0000
     30 H8          0.3667   -2.3581   -1.6755 H         1 <0>         0.0000
     31 H9         -0.7344    0.3264    0.7004 H         1 <0>         0.0000
     32 H10         0.9617    0.7677    0.4177 H         1 <0>         0.0000
     33 H11        -0.1043   -2.0586    0.7662 H         1 <0>         0.0000
     34 H12         1.0819   -0.2316    2.9136 H         1 <0>         0.0000
     35 H13         0.8089   -1.9715    3.1064 H         1 <0>         0.0000
     36 H14        -0.5612   -0.8809    2.8188 H         1 <0>         0.0000
     37 H15         3.1579   -1.5615    2.4194 H         1 <0>         0.0000
     38 H16         3.1493   -0.1174    1.3830 H         1 <0>         0.0000
     39 H17         4.1271   -1.5293    0.9388 H         1 <0>         0.0000
     40 H18        -2.0433    1.9354   -2.1837 H         1 <0>         0.0000
     41 H19        -1.6030    1.6888   -0.4805 H         1 <0>         0.0000
     42 H20        -3.4362   -0.2293   -2.9490 H         1 <0>         0.0000
     43 H21         1.3620   -3.6410    0.3357 H         1 <0>         0.0000
@<TRIPOS>BOND
     1    1    2 ar
     2    1    3 ar
     3    1   23 1
     4    2    4 ar
     5    2   24 1
     6    3    5 ar
     7    3   25 1
     8    4    6 ar
     9    4   26 1
    10    5    6 ar
    11    5    7 1
    12    6   17 1
    13    7   18 am
    14    7   20 2
    15    8   16 1
    16    8   19 am
    17    8   21 2
    18    9   10 1
    19    9   13 1
    20    9   27 1
    21    9   28 1
    22   10   19 1
    23   10   29 1
    24   10   30 1
    25   11   12 1
    26   11   19 1
    27   11   31 1
    28   11   32 1
    29   12   13 1
    30   12   14 1
    31   12   33 1
    32   13   15 1
    33   13   22 1
    34   14   34 1
    35   14   35 1
    36   14   36 1
    37   15   37 1
    38   15   38 1
    39   15   39 1
    40   16   18 1
    41   16   40 1
    42   16   41 1
    43   17   18 1
    44   17   42 1
    45   22   43 1
