@<TRIPOS>MOLECULE
*****
   29    30     0     0     0
SMALL
NO_CHARGES

@<TRIPOS>ATOM
      1 C1         -0.3352    0.3119   -5.7598 C.ar      1 <0>         0.0000
      2 C2         -0.6225    1.2640   -3.5812 C.ar      1 <0>         0.0000
      3 C3         -1.2474    1.2609   -6.2324 C.ar      1 <0>         0.0000
      4 C4         -1.5127    2.1680   -4.1556 C.ar      1 <0>         0.0000
      5 C5         -0.0030    0.2995   -4.3966 C.ar      1 <0>         0.0000
      6 C6          1.5805   -2.0496   -0.6201 C.ar      1 <0>         0.0000
      7 C7          1.8875   -3.3442   -0.1740 C.ar      1 <0>         0.0000
      8 C8          1.1868   -1.1204    0.3571 C.ar      1 <0>         0.0000
      9 C9          1.8030   -3.7132    1.1610 C.ar      1 <0>         0.0000
     10 C10         1.0835   -1.4937    1.6963 C.ar      1 <0>         0.0000
     11 C11         1.3892   -2.7883    2.1222 C.ar      1 <0>         0.0000
     12 C12         0.9447   -0.6856   -3.8240 C.2       1 <0>         0.0000
     13 C13         1.9186   -1.4315   -4.7055 C.3       1 <0>         0.0000
     14 N1         -1.8340    2.1837   -5.4612 N.ar      1 <0>         0.0000
     15 N2          0.8796   -0.8493   -2.5432 N.2       1 <0>         0.0000
     16 N3          1.7419   -1.7458   -1.9688 N.pl3     1 <0>         0.0000
     17 F1          2.2745   -4.2611   -1.0951 F         1 <0>         0.0000
     18 F2          0.9333    0.1582    0.0362 F         1 <0>         0.0000
     19 F3          2.1076   -4.9720    1.5066 F         1 <0>         0.0000
     20 F4          0.7010   -0.5659    2.5848 F         1 <0>         0.0000
     21 Br1         1.2586   -3.2747    3.9456 Br        1 <0>         0.0000
     22 H1          0.0821   -0.4081   -6.4568 H         1 <0>         0.0000
     23 H2         -0.4019    1.3003   -2.5199 H         1 <0>         0.0000
     24 H3         -1.5168    1.2747   -7.2877 H         1 <0>         0.0000
     25 H4         -1.9934    2.9247   -3.5377 H         1 <0>         0.0000
     26 H5          2.9194   -1.4169   -4.2592 H         1 <0>         0.0000
     27 H6          1.6262   -2.4819   -4.8380 H         1 <0>         0.0000
     28 H7          1.9969   -0.9836   -5.6954 H         1 <0>         0.0000
     29 H8          2.0892   -2.5167   -2.5340 H         1 <0>         0.0000
@<TRIPOS>BOND
     1    1    3 ar
     2    1    5 ar
     3    1   22 1
     4    2    4 ar
     5    2    5 ar
     6    2   23 1
     7    3   14 ar
     8    3   24 1
     9    4   14 ar
    10    4   25 1
    11    5   12 1
    12    6    7 ar
    13    6    8 ar
    14    6   16 1
    15    7    9 ar
    16    7   17 1
    17    8   10 ar
    18    8   18 1
    19    9   11 ar
    20    9   19 1
    21   10   11 ar
    22   10   20 1
    23   11   21 1
    24   12   13 1
    25   12   15 2
    26   13   26 1
    27   13   27 1
    28   13   28 1
    29   15   16 1
    30   16   29 1
