@<TRIPOS>MOLECULE
*****
   41    43     0     0     0
SMALL
NO_CHARGES

@<TRIPOS>ATOM
      1 C1         -0.7942   -5.1694    5.8078 C.ar      1 <0>         0.0000
      2 C2         -1.6853   -4.1743    5.3984 C.ar      1 <0>         0.0000
      3 C3          0.1156   -5.7037    4.8873 C.ar      1 <0>         0.0000
      4 C4         -1.6657   -3.7200    4.0748 C.ar      1 <0>         0.0000
      5 C5          0.1320   -5.2458    3.5690 C.ar      1 <0>         0.0000
      6 C6         -0.7607   -4.2500    3.1477 C.ar      1 <0>         0.0000
      7 C7          0.5169   -2.9848    1.3450 C.2       1 <0>         0.0000
      8 C8          1.6015   -0.1729    0.3475 C.3       1 <0>         0.0000
      9 C9         -1.2932   -0.9584   -0.7316 C.3       1 <0>         0.0000
     10 C10         1.7302   -1.5917   -0.2260 C.3       1 <0>         0.0000
     11 C11        -0.5834   -2.3197   -0.8056 C.3       1 <0>         0.0000
     12 C12        -0.0700    1.7444    0.5575 C.3       1 <0>         0.0000
     13 C13         0.6606    0.7905   -0.4119 C.3       1 <0>         0.0000
     14 C14        -0.4313    0.1674   -1.3052 C.3       1 <0>         0.0000
     15 C15        -0.7568   -3.7607    1.7196 C.3       1 <0>         0.0000
     16 N1         -1.1106    2.4649   -0.2030 N.pl3     1 <0>         0.0000
     17 N2          0.5660   -2.4297    0.0836 N.am      1 <0>         0.0000
     18 O1          1.4638   -2.8796    2.1227 O.2       1 <0>         0.0000
     19 O2         -2.8883    1.3842   -1.7263 O.2       1 <0>         0.0000
     20 O3         -0.7988    2.3715   -2.7815 O.2       1 <0>         0.0000
     21 S1         -1.4448    1.6622   -1.6762 S.o2      1 <0>         0.0000
     22 H1         -0.8066   -5.5262    6.8345 H         1 <0>         0.0000
     23 H2         -2.3957   -3.7527    6.1049 H         1 <0>         0.0000
     24 H3          0.8150   -6.4749    5.1998 H         1 <0>         0.0000
     25 H4         -2.3643   -2.9457    3.7630 H         1 <0>         0.0000
     26 H5          0.8527   -5.6526    2.8644 H         1 <0>         0.0000
     27 H6          1.2852   -0.2783    1.3894 H         1 <0>         0.0000
     28 H7          2.5979    0.2803    0.3802 H         1 <0>         0.0000
     29 H8         -2.2224   -1.0149   -1.3079 H         1 <0>         0.0000
     30 H9         -1.5782   -0.7469    0.3048 H         1 <0>         0.0000
     31 H10         1.8614   -1.5767   -1.3131 H         1 <0>         0.0000
     32 H11         2.6054   -2.0719    0.2122 H         1 <0>         0.0000
     33 H12        -1.2956   -3.1125   -0.5830 H         1 <0>         0.0000
     34 H13        -0.2421   -2.4947   -1.8335 H         1 <0>         0.0000
     35 H14        -0.5175    1.1672    1.3761 H         1 <0>         0.0000
     36 H15         0.6362    2.4585    0.9904 H         1 <0>         0.0000
     37 H16         1.2685    1.4074   -1.0816 H         1 <0>         0.0000
     38 H17        -0.0267   -0.1217   -2.2786 H         1 <0>         0.0000
     39 H18        -0.8559   -4.6076    1.0289 H         1 <0>         0.0000
     40 H19        -1.6324   -3.1261    1.5519 H         1 <0>         0.0000
     41 H20        -1.9859    2.5887    0.3005 H         1 <0>         0.0000
@<TRIPOS>BOND
     1    1    3 ar
     2    1    2 ar
     3    1   22 1
     4    2    4 ar
     5    2   23 1
     6    3    5 ar
     7    3   24 1
     8    4    6 ar
     9    4   25 1
    10    5    6 ar
    11    5   26 1
    12    6   15 1
    13    7   15 1
    14    7   17 am
    15    7   18 2
    16    8   10 1
    17    8   13 1
    18    8   27 1
    19    8   28 1
    20    9   11 1
    21    9   14 1
    22    9   29 1
    23    9   30 1
    24   10   17 1
    25   10   31 1
    26   10   32 1
    27   11   17 1
    28   11   33 1
    29   11   34 1
    30   12   13 1
    31   12   16 1
    32   12   35 1
    33   12   36 1
    34   13   14 1
    35   13   37 1
    36   14   21 1
    37   14   38 1
    38   15   39 1
    39   15   40 1
    40   16   21 1
    41   16   41 1
    42   19   21 2
    43   20   21 2
