@<TRIPOS>MOLECULE
*****
   29    30     0     0     0
SMALL
NO_CHARGES

@<TRIPOS>ATOM
      1 C1          0.3996    0.2251    0.7349 C.ar      1 <0>         0.0000
      2 C2          0.6741    0.9599    1.8945 C.ar      1 <0>         0.0000
      3 C3          0.6487   -1.1501    0.7079 C.ar      1 <0>         0.0000
      4 C4          1.2044    0.3228    3.0167 C.ar      1 <0>         0.0000
      5 C5          1.1487   -1.7977    1.8409 C.ar      1 <0>         0.0000
      6 C6         -1.8370   -1.6746    3.0850 C.ar      1 <0>         0.0000
      7 C7         -2.4897   -0.4768    2.8045 C.ar      1 <0>         0.0000
      8 C8         -1.3506   -0.8718    5.3303 C.ar      1 <0>         0.0000
      9 C9          1.4269   -1.0642    3.0050 C.ar      1 <0>         0.0000
     10 C10        -1.2588   -1.8468    4.3396 C.ar      1 <0>         0.0000
     11 C11        -2.5555    0.5332    3.7682 C.ar      1 <0>         0.0000
     12 C12        -1.9929    0.3320    5.0405 C.ar      1 <0>         0.0000
     13 C13         1.9561   -1.7357    4.2135 C.2       1 <0>         0.0000
     14 C14         1.3653   -2.7033    4.9255 C.2       1 <0>         0.0000
     15 O1         -0.6983   -3.8613    5.9904 O.2       1 <0>         0.0000
     16 O2         -0.3620   -4.1803    3.4728 O.2       1 <0>         0.0000
     17 S1         -0.3003   -3.3358    4.6757 S.o2      1 <0>         0.0000
     18 Cl1        -3.3248    2.0387    3.3494 Cl        1 <0>         0.0000
     19 Cl2        -2.0584    1.5671    6.2704 Cl        1 <0>         0.0000
     20 H1         -0.0040    0.7245   -0.1419 H         1 <0>         0.0000
     21 H2          0.4738    2.0274    1.9246 H         1 <0>         0.0000
     22 H3          0.4418   -1.7251   -0.1907 H         1 <0>         0.0000
     23 H4          1.4153    0.8950    3.9168 H         1 <0>         0.0000
     24 H5          1.3106   -2.8706    1.8328 H         1 <0>         0.0000
     25 H6         -1.7490   -2.4539    2.3370 H         1 <0>         0.0000
     26 H7         -2.9290   -0.3061    1.8275 H         1 <0>         0.0000
     27 H8         -0.9129   -1.0294    6.3106 H         1 <0>         0.0000
     28 H9          2.9266   -1.3940    4.5761 H         1 <0>         0.0000
     29 H10         1.8199   -3.1598    5.8006 H         1 <0>         0.0000
@<TRIPOS>BOND
     1    1    3 ar
     2    1    2 ar
     3    1   20 1
     4    2    4 ar
     5    2   21 1
     6    3    5 ar
     7    3   22 1
     8    4    9 ar
     9    4   23 1
    10    5    9 ar
    11    5   24 1
    12    6    7 ar
    13    6   10 ar
    14    6   25 1
    15    7   11 ar
    16    7   26 1
    17    8   10 ar
    18    8   12 ar
    19    8   27 1
    20    9   13 1
    21   10   17 1
    22   11   12 ar
    23   11   18 1
    24   12   19 1
    25   13   14 2
    26   13   28 1
    27   14   17 1
    28   14   29 1
    29   15   17 2
    30   16   17 2
