@<TRIPOS>MOLECULE
*****
   47    50     0     0     0
SMALL
NO_CHARGES

@<TRIPOS>ATOM
      1 C1          4.5694   -0.3072   -6.7935 C.1       1 <0>         0.0000
      2 C2          1.4594   -1.8659   -8.0860 C.ar      1 <0>         0.0000
      3 C3          0.8023   -2.2116   -6.8981 C.ar      1 <0>         0.0000
      4 C4          2.6995   -1.2392   -8.0159 C.ar      1 <0>         0.0000
      5 C5          1.3784   -1.9329   -5.6622 C.ar      1 <0>         0.0000
      6 C6          4.3366   -0.4389   -3.7561 C.2       1 <0>         0.0000
      7 C7          4.2580   -0.4934   -2.3301 C.2       1 <0>         0.0000
      8 C8          3.2900   -0.9538   -6.7711 C.ar      1 <0>         0.0000
      9 C9          2.6341   -1.2980   -5.5598 C.ar      1 <0>         0.0000
     10 C10         3.1881   -1.0258   -4.2419 C.2       1 <0>         0.0000
     11 C11         3.0751   -1.1071   -2.0187 C.2       1 <0>         0.0000
     12 C12         0.4965    1.8484    1.2378 C.3       1 <0>         0.0000
     13 C13         0.7741    1.9565   -0.2852 C.3       1 <0>         0.0000
     14 C14        -1.2428   -0.0231    1.1411 C.3       1 <0>         0.0000
     15 C15         1.2670   -0.5544    1.2316 C.3       1 <0>         0.0000
     16 C16        -0.4980   -0.0648   -1.1946 C.3       1 <0>         0.0000
     17 C17         0.1441    0.4099    1.6525 C.3       1 <0>         0.0000
     18 C18         0.8925    0.5660   -0.9276 C.3       1 <0>         0.0000
     19 C19        -2.8484   -0.0815   -0.6462 C.3       1 <0>         0.0000
     20 C20         2.3779   -1.4177   -0.7344 C.3       1 <0>         0.0000
     21 N1          5.6088    0.2185   -6.8478 N.1       1 <0>         0.0000
     22 N2         -1.5214    0.3600   -0.2409 N.3       1 <0>         0.0000
     23 N3          1.8054   -0.2335   -0.0965 N.3       1 <0>         0.0000
     24 O1          2.4150   -1.4361   -3.1736 O.3       1 <0>         0.0000
     25 H1          1.0107   -2.0827   -9.0508 H         1 <0>         0.0000
     26 H2         -0.1667   -2.7021   -6.9368 H         1 <0>         0.0000
     27 H3          3.2307   -0.9610   -8.9210 H         1 <0>         0.0000
     28 H4          0.8588   -2.2056   -4.7509 H         1 <0>         0.0000
     29 H5          5.1416   -0.0200   -4.3402 H         1 <0>         0.0000
     30 H6          4.9813   -0.1149   -1.6203 H         1 <0>         0.0000
     31 H7          1.3846    2.1585    1.7995 H         1 <0>         0.0000
     32 H8         -0.3158    2.5225    1.5275 H         1 <0>         0.0000
     33 H9         -0.0235    2.5142   -0.7819 H         1 <0>         0.0000
     34 H10         1.7145    2.4887   -0.4555 H         1 <0>         0.0000
     35 H11        -1.3503   -1.1169    1.2906 H         1 <0>         0.0000
     36 H12        -2.0090    0.4540    1.7644 H         1 <0>         0.0000
     37 H13         2.0885   -0.5045    1.9598 H         1 <0>         0.0000
     38 H14         0.8763   -1.5866    1.2684 H         1 <0>         0.0000
     39 H15        -0.8334    0.2578   -2.1867 H         1 <0>         0.0000
     40 H16        -0.4062   -1.1682   -1.2421 H         1 <0>         0.0000
     41 H17         0.0855    0.3592    2.7464 H         1 <0>         0.0000
     42 H18         1.3826    0.6777   -1.8980 H         1 <0>         0.0000
     43 H19        -3.0762    0.2948   -1.6488 H         1 <0>         0.0000
     44 H20        -3.5988    0.3184    0.0441 H         1 <0>         0.0000
     45 H21        -2.9542   -1.1841   -0.6615 H         1 <0>         0.0000
     46 H22         1.6297   -2.2066   -0.9324 H         1 <0>         0.0000
     47 H23         3.1045   -1.8452   -0.0337 H         1 <0>         0.0000
@<TRIPOS>BOND
     1    1    8 1
     2    1   21 3
     3    2    3 ar
     4    2    4 ar
     5    2   25 1
     6    3    5 ar
     7    3   26 1
     8    4    8 ar
     9    4   27 1
    10    5    9 ar
    11    5   28 1
    12    6    7 1
    13    6   10 2
    14    6   29 1
    15    7   11 2
    16    7   30 1
    17    8    9 ar
    18    9   10 1
    19   10   24 1
    20   11   20 1
    21   11   24 1
    22   12   13 1
    23   12   17 1
    24   12   31 1
    25   12   32 1
    26   13   18 1
    27   13   33 1
    28   13   34 1
    29   14   17 1
    30   14   22 1
    31   14   35 1
    32   14   36 1
    33   15   17 1
    34   15   23 1
    35   15   37 1
    36   15   38 1
    37   16   18 1
    38   16   22 1
    39   16   39 1
    40   16   40 1
    41   17   41 1
    42   18   23 1
    43   18   42 1
    44   19   22 1
    45   19   43 1
    46   19   44 1
    47   19   45 1
    48   20   23 1
    49   20   46 1
    50   20   47 1
