@<TRIPOS>MOLECULE
*****
   39    41     0     0     0
SMALL
NO_CHARGES

@<TRIPOS>ATOM
      1 C1          2.3067   -6.2279    0.2692 C.ar      1 <0>         0.0000
      2 C2          1.7719   -6.0080   -1.0097 C.ar      1 <0>         0.0000
      3 C3          1.4711   -6.3626    1.3830 C.ar      1 <0>         0.0000
      4 C4          0.3877   -5.9178   -1.2061 C.ar      1 <0>         0.0000
      5 C5         -5.7350   -8.7181    0.7576 C.2       1 <0>         0.0000
      6 C6          0.0931   -6.2706    1.1910 C.ar      1 <0>         0.0000
      7 C7         -4.6655   -8.1910    1.5575 C.2       1 <0>         0.0000
      8 C8         -0.4184   -6.0474   -0.0833 C.ar      1 <0>         0.0000
      9 C9         -5.3939   -9.9892    0.3733 C.2       1 <0>         0.0000
     10 C10        -3.6931   -9.1933    1.6607 C.2       1 <0>         0.0000
     11 C11        -0.9522   -6.3754    2.2469 C.2       1 <0>         0.0000
     12 C12        -4.6963   -6.8207    2.0583 C.2       1 <0>         0.0000
     13 C13        -6.1272  -10.9623   -0.4941 C.3       1 <0>         0.0000
     14 C14        -2.4150   -9.2886    2.4317 C.3       1 <0>         0.0000
     15 C15        -3.4479  -11.5412    0.8252 C.3       1 <0>         0.0000
     16 C16        -3.4183   -6.0637    2.4598 C.3       1 <0>         0.0000
     17 N1         -4.1444  -10.2698    0.9338 N.pl3     1 <0>         0.0000
     18 N2         -2.2177   -6.3369    1.6640 N.am      1 <0>         0.0000
     19 O1         -0.7510   -6.4877    3.4470 O.2       1 <0>         0.0000
     20 O2         -5.7468   -6.1874    2.1541 O.2       1 <0>         0.0000
     21 O3         -2.7282   -4.6474   -0.2485 O.2       1 <0>         0.0000
     22 O4         -2.7561   -7.1169   -0.7894 O.2       1 <0>         0.0000
     23 S1         -2.2031   -5.9947   -0.0396 S.o2      1 <0>         0.0000
     24 H1          3.3839   -6.2932    0.3927 H         1 <0>         0.0000
     25 H2          2.4391   -5.9049   -1.8608 H         1 <0>         0.0000
     26 H3          1.8651   -6.5322    2.3805 H         1 <0>         0.0000
     27 H4         -0.0341   -5.7507   -2.1924 H         1 <0>         0.0000
     28 H5         -6.6279   -8.1757    0.4793 H         1 <0>         0.0000
     29 H6         -5.5744  -11.2018   -1.4112 H         1 <0>         0.0000
     30 H7         -6.3433  -11.9060    0.0219 H         1 <0>         0.0000
     31 H8         -7.0818  -10.5230   -0.7921 H         1 <0>         0.0000
     32 H9         -2.3396  -10.2503    2.9510 H         1 <0>         0.0000
     33 H10        -1.5358   -9.1990    1.7807 H         1 <0>         0.0000
     34 H11        -2.3449   -8.5119    3.1905 H         1 <0>         0.0000
     35 H12        -2.3812  -11.3775    0.6560 H         1 <0>         0.0000
     36 H13        -3.5735  -12.1474    1.7302 H         1 <0>         0.0000
     37 H14        -3.8429  -12.1005   -0.0226 H         1 <0>         0.0000
     38 H15        -3.1493   -6.3094    3.4913 H         1 <0>         0.0000
     39 H16        -3.6623   -4.9990    2.4167 H         1 <0>         0.0000
@<TRIPOS>BOND
     1    1    2 ar
     2    1    3 ar
     3    1   24 1
     4    2    4 ar
     5    2   25 1
     6    3    6 ar
     7    3   26 1
     8    4    8 ar
     9    4   27 1
    10    5    7 1
    11    5    9 2
    12    5   28 1
    13    6    8 ar
    14    6   11 1
    15    7   10 2
    16    7   12 1
    17    8   23 1
    18    9   13 1
    19    9   17 1
    20   10   14 1
    21   10   17 1
    22   11   18 am
    23   11   19 2
    24   12   16 1
    25   12   20 2
    26   13   29 1
    27   13   30 1
    28   13   31 1
    29   14   32 1
    30   14   33 1
    31   14   34 1
    32   15   17 1
    33   15   35 1
    34   15   36 1
    35   15   37 1
    36   16   18 1
    37   16   38 1
    38   16   39 1
    39   18   23 1
    40   21   23 2
    41   22   23 2
