@<TRIPOS>MOLECULE
*****
   43    45     0     0     0
SMALL
NO_CHARGES

@<TRIPOS>ATOM
      1 C1          4.2409    6.0774   -1.6711 C.ar      1 <0>         0.0000
      2 C2          5.0374    5.9146   -0.5173 C.ar      1 <0>         0.0000
      3 C3          3.6505    4.9738   -2.2839 C.ar      1 <0>         0.0000
      4 C4          5.2749    4.6579    0.0408 C.ar      1 <0>         0.0000
      5 C5          3.8740    3.7117   -1.7242 C.ar      1 <0>         0.0000
      6 C6          4.6785    3.5571   -0.5841 C.ar      1 <0>         0.0000
      7 C7          3.3468    2.3862   -2.0811 C.2       1 <0>         0.0000
      8 C8          2.6221    0.1200    0.2625 C.2       1 <0>         0.0000
      9 C9         -0.8932   -0.7989    0.9721 C.3       1 <0>         0.0000
     10 C10         0.4700   -0.1979    1.2912 C.3       1 <0>         0.0000
     11 C11         0.6187   -0.2593   -1.2148 C.3       1 <0>         0.0000
     12 C12        -0.6649    0.5809   -1.1628 C.3       1 <0>         0.0000
     13 C13        -1.6613   -0.0574   -0.1435 C.3       1 <0>         0.0000
     14 C14        -0.3274    2.0666   -0.9534 C.3       1 <0>         0.0000
     15 C15        -2.6515    0.9543    0.4397 C.3       1 <0>         0.0000
     16 C16         3.5804    0.1588   -0.9347 C.3       1 <0>         0.0000
     17 N1          4.7951    2.1982   -0.2515 N.pl3     1 <0>         0.0000
     18 N2          3.9539    1.5319   -1.1778 N.am      1 <0>         0.0000
     19 N3          1.3159   -0.1798    0.0834 N.am      1 <0>         0.0000
     20 O1          2.5497    2.0322   -2.9589 O.2       1 <0>         0.0000
     21 O2          3.0938    0.4045    1.3784 O.2       1 <0>         0.0000
     22 O3         -2.3978   -1.1101   -0.8090 O.3       1 <0>         0.0000
     23 H1          4.0900    7.0729   -2.0788 H         1 <0>         0.0000
     24 H2          5.4835    6.7905   -0.0534 H         1 <0>         0.0000
     25 H3          3.0274    5.0751   -3.1680 H         1 <0>         0.0000
     26 H4          5.8991    4.5404    0.9222 H         1 <0>         0.0000
     27 H5         -0.7630   -1.8355    0.6482 H         1 <0>         0.0000
     28 H6         -1.4923   -0.8288    1.8871 H         1 <0>         0.0000
     29 H7          0.3803    0.8188    1.6923 H         1 <0>         0.0000
     30 H8          0.9805   -0.7849    2.0577 H         1 <0>         0.0000
     31 H9          0.3738   -1.3021   -1.4460 H         1 <0>         0.0000
     32 H10         1.2595    0.1342   -2.0011 H         1 <0>         0.0000
     33 H11        -1.1318    0.4898   -2.1515 H         1 <0>         0.0000
     34 H12         0.1294    2.2604    0.0214 H         1 <0>         0.0000
     35 H13        -1.2179    2.6953   -1.0331 H         1 <0>         0.0000
     36 H14         0.3822    2.3894   -1.7206 H         1 <0>         0.0000
     37 H15        -3.1911    1.4888   -0.3516 H         1 <0>         0.0000
     38 H16        -2.1507    1.7023    1.0612 H         1 <0>         0.0000
     39 H17        -3.3844    0.4264    1.0571 H         1 <0>         0.0000
     40 H18         3.1845   -0.2378   -1.8672 H         1 <0>         0.0000
     41 H19         4.4710   -0.4106   -0.6553 H         1 <0>         0.0000
     42 H20         4.5277    1.9358    0.7029 H         1 <0>         0.0000
     43 H21        -2.9869   -0.6954   -1.4604 H         1 <0>         0.0000
@<TRIPOS>BOND
     1    1    2 ar
     2    1    3 ar
     3    1   23 1
     4    2    4 ar
     5    2   24 1
     6    3    5 ar
     7    3   25 1
     8    4    6 ar
     9    4   26 1
    10    5    6 ar
    11    5    7 1
    12    6   17 1
    13    7   18 am
    14    7   20 2
    15    8   16 1
    16    8   19 am
    17    8   21 2
    18    9   10 1
    19    9   13 1
    20    9   27 1
    21    9   28 1
    22   10   19 1
    23   10   29 1
    24   10   30 1
    25   11   12 1
    26   11   19 1
    27   11   31 1
    28   11   32 1
    29   12   13 1
    30   12   14 1
    31   12   33 1
    32   13   15 1
    33   13   22 1
    34   14   34 1
    35   14   35 1
    36   14   36 1
    37   15   37 1
    38   15   38 1
    39   15   39 1
    40   16   18 1
    41   16   40 1
    42   16   41 1
    43   17   18 1
    44   17   42 1
    45   22   43 1
