@<TRIPOS>MOLECULE
*****
   28    29     0     0     0
SMALL
NO_CHARGES

@<TRIPOS>ATOM
      1 C1          1.3411   -2.8880   -1.3004 C.ar      1 <0>         0.0000
      2 C2          1.1240   -3.1952   -2.6463 C.ar      1 <0>         0.0000
      3 C3         -0.1464   -1.0031   -1.4942 C.ar      1 <0>         0.0000
      4 C4          0.6996   -1.7922   -0.7052 C.ar      1 <0>         0.0000
      5 C5         -0.3771   -1.2887   -2.8450 C.ar      1 <0>         0.0000
      6 C6          0.2638   -2.4058   -3.3979 C.ar      1 <0>         0.0000
      7 C7         -2.2714    1.9190   -7.2736 C.3       1 <0>         0.0000
      8 C8         -3.2859    0.8967   -6.7712 C.3       1 <0>         0.0000
      9 C9         -1.6943    1.1932   -5.1554 C.3       1 <0>         0.0000
     10 C10         0.8968   -1.4756    0.7601 C.3       1 <0>         0.0000
     11 C11        -0.8927   -0.0663   -4.8494 C.3       1 <0>         0.0000
     12 O1         -1.1746    1.7458   -6.3664 O.3       1 <0>         0.0000
     13 O2         -3.0769    0.9370   -5.3558 O.3       1 <0>         0.0000
     14 O3         -1.2556   -0.4902   -3.5266 O.3       1 <0>         0.0000
     15 F1          0.0353   -2.7385   -4.7000 F         1 <0>         0.0000
     16 H1          2.0119   -3.5095   -0.7130 H         1 <0>         0.0000
     17 H2          1.6030   -4.0466   -3.1208 H         1 <0>         0.0000
     18 H3         -0.6528   -0.1376   -1.0744 H         1 <0>         0.0000
     19 H4         -1.9118    1.7288   -8.2877 H         1 <0>         0.0000
     20 H5         -2.6633    2.9418   -7.2041 H         1 <0>         0.0000
     21 H6         -4.3264    1.1631   -6.9676 H         1 <0>         0.0000
     22 H7         -3.0811   -0.1056   -7.1713 H         1 <0>         0.0000
     23 H8         -1.6143    1.9100   -4.3293 H         1 <0>         0.0000
     24 H9          0.8923   -0.3964    0.9407 H         1 <0>         0.0000
     25 H10         0.0942   -1.9126    1.3662 H         1 <0>         0.0000
     26 H11         1.8448   -1.8766    1.1299 H         1 <0>         0.0000
     27 H12         0.1756    0.1731   -4.8943 H         1 <0>         0.0000
     28 H13        -1.1170   -0.8416   -5.5865 H         1 <0>         0.0000
@<TRIPOS>BOND
     1    1    2 ar
     2    1    4 ar
     3    1   16 1
     4    2    6 ar
     5    2   17 1
     6    3    4 ar
     7    3    5 ar
     8    3   18 1
     9    4   10 1
    10    5    6 ar
    11    5   14 1
    12    6   15 1
    13    7    8 1
    14    7   12 1
    15    7   19 1
    16    7   20 1
    17    8   13 1
    18    8   21 1
    19    8   22 1
    20    9   11 1
    21    9   13 1
    22    9   12 1
    23    9   23 1
    24   10   24 1
    25   10   25 1
    26   10   26 1
    27   11   14 1
    28   11   27 1
    29   11   28 1
