@<TRIPOS>MOLECULE
*****
   18    18     0     0     0
SMALL
NO_CHARGES

@<TRIPOS>ATOM
      1 C1          0.0152   -1.2639   -1.2447 C.ar      1 <0>         0.0000
      2 C2         -0.4022   -0.6525   -0.0638 C.ar      1 <0>         0.0000
      3 C3          0.8830   -2.3624   -1.2159 C.ar      1 <0>         0.0000
      4 C4          0.9080   -2.2446    1.2169 C.ar      1 <0>         0.0000
      5 C5          0.0425   -1.1395    1.1763 C.ar      1 <0>         0.0000
      6 C6          1.3152   -2.8371    0.0218 C.ar      1 <0>         0.0000
      7 C7         -0.3918   -0.4916    2.4379 C.2       1 <0>         0.0000
      8 N1         -1.5334    0.1211    2.4325 N.2       1 <0>         0.0000
      9 N2          0.4118   -0.6372    3.5583 N.pl3     1 <0>         0.0000
     10 O1         -1.7691    0.7101    3.7096 O.3       1 <0>         0.0000
     11 Br1         2.4921   -4.3527    0.0868 Br        1 <0>         0.0000
     12 H1         -0.3280   -0.8827   -2.2027 H         1 <0>         0.0000
     13 H2         -1.0684    0.2031   -0.0849 H         1 <0>         0.0000
     14 H3          1.2138   -2.8360   -2.1344 H         1 <0>         0.0000
     15 H4          1.2302   -2.6563    2.1672 H         1 <0>         0.0000
     16 H5          1.4087   -0.6327    3.3787 H         1 <0>         0.0000
     17 H6          0.1362   -0.0420    4.3323 H         1 <0>         0.0000
     18 H7         -2.6428    1.1141    3.5917 H         1 <0>         0.0000
@<TRIPOS>BOND
     1    1    2 ar
     2    1    3 ar
     3    1   12 1
     4    2    5 ar
     5    2   13 1
     6    3    6 ar
     7    3   14 1
     8    4    5 ar
     9    4    6 ar
    10    4   15 1
    11    5    7 1
    12    6   11 1
    13    7    8 2
    14    7    9 1
    15    8   10 1
    16    9   16 1
    17    9   17 1
    18   10   18 1
