@<TRIPOS>MOLECULE
*****
   31    33     0     0     0
SMALL
NO_CHARGES

@<TRIPOS>ATOM
      1 C1          2.3869   -3.0846    0.6988 C.ar      1 <0>         0.0000
      2 C2          2.2278   -1.7178    0.4308 C.ar      1 <0>         0.0000
      3 C3          1.4539   -4.0232    0.2452 C.ar      1 <0>         0.0000
      4 C4          2.7974   -4.8263   -2.7529 C.ar      1 <0>         0.0000
      5 C5          0.5327   -4.5996   -3.5746 C.ar      1 <0>         0.0000
      6 C6          1.1071   -1.2536   -0.2710 C.ar      1 <0>         0.0000
      7 C7          3.1809   -3.6960   -3.4715 C.ar      1 <0>         0.0000
      8 C8          0.9043   -3.4705   -4.3012 C.ar      1 <0>         0.0000
      9 C9          0.3578   -3.5680   -0.4906 C.ar      1 <0>         0.0000
     10 C10         1.4650   -5.2713   -2.7637 C.ar      1 <0>         0.0000
     11 C11         0.1962   -2.2013   -0.7094 C.ar      1 <0>         0.0000
     12 C12         2.2232   -3.0162   -4.2291 C.ar      1 <0>         0.0000
     13 C13        -0.8030   -4.3105   -1.0616 C.2       1 <0>         0.0000
     14 C14         1.1101   -6.4202   -1.9049 C.2       1 <0>         0.0000
     15 N1         -1.7898   -3.6126   -1.5514 N.2       1 <0>         0.0000
     16 N2          0.0831   -6.6509   -1.1553 N.2       1 <0>         0.0000
     17 N3         -0.9100   -5.6755   -1.0266 N.pl3     1 <0>         0.0000
     18 O1         -2.3042   -1.2421   -0.5835 O.2       1 <0>         0.0000
     19 O2         -1.2502   -1.4776   -2.8716 O.2       1 <0>         0.0000
     20 S1         -1.4082   -1.9507   -1.4952 S.o2      1 <0>         0.0000
     21 Cl1         2.6866   -1.5733   -5.1033 Cl        1 <0>         0.0000
     22 H1          3.2470   -3.4212    1.2707 H         1 <0>         0.0000
     23 H2          2.9695   -1.0088    0.7875 H         1 <0>         0.0000
     24 H3          1.5798   -5.0774    0.4663 H         1 <0>         0.0000
     25 H4          3.5352   -5.3457   -2.1464 H         1 <0>         0.0000
     26 H5         -0.4955   -4.9382   -3.6302 H         1 <0>         0.0000
     27 H6          0.9516   -0.1948   -0.4541 H         1 <0>         0.0000
     28 H7          4.2052   -3.3390   -3.4390 H         1 <0>         0.0000
     29 H8          0.1700   -2.9325   -4.8896 H         1 <0>         0.0000
     30 H9          1.8401   -7.2301   -1.8612 H         1 <0>         0.0000
     31 H10        -1.8462   -6.0502   -1.1353 H         1 <0>         0.0000
@<TRIPOS>BOND
     1    1    2 ar
     2    1    3 ar
     3    1   22 1
     4    2    6 ar
     5    2   23 1
     6    3    9 ar
     7    3   24 1
     8    4    7 ar
     9    4   10 ar
    10    4   25 1
    11    5    8 ar
    12    5   10 ar
    13    5   26 1
    14    6   11 ar
    15    6   27 1
    16    7   12 ar
    17    7   28 1
    18    8   12 ar
    19    8   29 1
    20    9   11 ar
    21    9   13 1
    22   10   14 1
    23   11   20 1
    24   12   21 1
    25   13   15 2
    26   13   17 1
    27   14   16 2
    28   14   30 1
    29   15   20 1
    30   16   17 1
    31   17   31 1
    32   18   20 2
    33   19   20 2
