@<TRIPOS>MOLECULE
*****
   18    18     0     0     0
SMALL
NO_CHARGES

@<TRIPOS>ATOM
      1 C1         -1.9324    3.9591   -0.5806 C.ar      1 <0>         0.0000
      2 C2         -1.4199    3.3407    0.5626 C.ar      1 <0>         0.0000
      3 C3         -3.3100    4.1222   -0.7461 C.ar      1 <0>         0.0000
      4 C4         -3.6758    3.0383    1.4057 C.ar      1 <0>         0.0000
      5 C5         -2.2888    2.8763    1.5623 C.ar      1 <0>         0.0000
      6 C6         -4.1628    3.6563    0.2585 C.ar      1 <0>         0.0000
      7 C7         -1.7569    2.2103    2.7760 C.2       1 <0>         0.0000
      8 N1         -2.4613    2.2865    3.8605 N.2       1 <0>         0.0000
      9 N2         -0.5117    1.6048    2.6937 N.pl3     1 <0>         0.0000
     10 O1         -1.8167    1.5624    4.9056 O.3       1 <0>         0.0000
     11 Br1        -6.0594    3.8591    0.0399 Br        1 <0>         0.0000
     12 H1         -1.2556    4.3250   -1.3480 H         1 <0>         0.0000
     13 H2         -0.3461    3.2492    0.6935 H         1 <0>         0.0000
     14 H3         -3.7124    4.5993   -1.6337 H         1 <0>         0.0000
     15 H4         -4.3462    2.6763    2.1764 H         1 <0>         0.0000
     16 H5         -0.3130    1.1504    1.8105 H         1 <0>         0.0000
     17 H6         -0.2892    1.0332    3.5019 H         1 <0>         0.0000
     18 H7         -2.4183    1.7008    5.6535 H         1 <0>         0.0000
@<TRIPOS>BOND
     1    1    2 ar
     2    1    3 ar
     3    1   12 1
     4    2    5 ar
     5    2   13 1
     6    3    6 ar
     7    3   14 1
     8    4    5 ar
     9    4    6 ar
    10    4   15 1
    11    5    7 1
    12    6   11 1
    13    7    8 2
    14    7    9 1
    15    8   10 1
    16    9   16 1
    17    9   17 1
    18   10   18 1
