@<TRIPOS>MOLECULE
*****
   15    14     0     0     0
SMALL
NO_CHARGES

@<TRIPOS>ATOM
      1 C1          0.2066   -0.5552    0.0493 C.2       1 <0>         0.0000
      2 C2         -1.2981    0.7115    3.0509 C.3       1 <0>         0.0000
      3 C3         -0.6112   -0.3446    2.2167 C.3       1 <0>         0.0000
      4 N1          0.4759   -0.1561   -1.2224 N.am      1 <0>         0.0000
      5 N2          0.5845   -1.8046    0.4196 N.am      1 <0>         0.0000
      6 O1         -0.3879    0.1775    0.9343 O.3       1 <0>         0.0000
      7 H1         -0.6686    1.6028    3.1334 H         1 <0>         0.0000
      8 H2         -2.2399    1.0151    2.5835 H         1 <0>         0.0000
      9 H3         -1.5102    0.3367    4.0560 H         1 <0>         0.0000
     10 H4         -1.2345   -1.2392    2.1294 H         1 <0>         0.0000
     11 H5          0.3508   -0.6239    2.6559 H         1 <0>         0.0000
     12 H6          0.9428   -0.7466   -1.9019 H         1 <0>         0.0000
     13 H7          0.2114    0.7693   -1.5441 H         1 <0>         0.0000
     14 H8          1.0527   -2.4012   -0.2544 H         1 <0>         0.0000
     15 H9          0.4096   -2.1557    1.3552 H         1 <0>         0.0000
@<TRIPOS>BOND
     1    1    4 am
     2    1    5 am
     3    1    6 2
     4    2    3 1
     5    2    7 1
     6    2    8 1
     7    2    9 1
     8    3    6 1
     9    3   10 1
    10    3   11 1
    11    4   12 1
    12    4   13 1
    13    5   14 1
    14    5   15 1
