@<TRIPOS>MOLECULE
*****
   25    26     0     0     0
SMALL
NO_CHARGES

@<TRIPOS>ATOM
      1 C1         -5.3193   -0.6015   -2.6246 C.ar      1 <0>         0.0000
      2 C2         -4.4049   -1.5708   -2.2124 C.ar      1 <0>         0.0000
      3 C3         -3.4949    0.8561   -3.2444 C.ar      1 <0>         0.0000
      4 C4         -2.5805   -0.1132   -2.8321 C.ar      1 <0>         0.0000
      5 C5         -4.8643    0.6119   -3.1407 C.ar      1 <0>         0.0000
      6 C6         -3.0355   -1.3266   -2.3161 C.ar      1 <0>         0.0000
      7 C7          1.6184    2.9571   -0.8324 C.3       1 <0>         0.0000
      8 C8          0.7969    1.9982   -0.0151 C.3       1 <0>         0.0000
      9 C9          0.5761    1.5129   -2.2172 C.3       1 <0>         0.0000
     10 C10        -0.8145    1.4796   -2.8215 C.3       1 <0>         0.0000
     11 O1          1.0230    2.8718   -2.1257 O.3       1 <0>         0.0000
     12 O2          0.5569    0.9154   -0.9136 O.3       1 <0>         0.0000
     13 O3         -1.2342    0.1291   -2.9348 O.3       1 <0>         0.0000
     14 F1         -5.7418    1.5434   -3.5360 F         1 <0>         0.0000
     15 F2         -2.1618   -2.2617   -1.9185 F         1 <0>         0.0000
     16 H1         -6.3856   -0.7907   -2.5430 H         1 <0>         0.0000
     17 H2         -4.7589   -2.5154   -1.8104 H         1 <0>         0.0000
     18 H3         -3.1468    1.8030   -3.6475 H         1 <0>         0.0000
     19 H4          1.5888    3.9833   -0.4583 H         1 <0>         0.0000
     20 H5          2.6606    2.6289   -0.9141 H         1 <0>         0.0000
     21 H6          1.3059    1.6484    0.8863 H         1 <0>         0.0000
     22 H7         -0.1709    2.4310    0.2597 H         1 <0>         0.0000
     23 H8          1.2781    0.9515   -2.8432 H         1 <0>         0.0000
     24 H9         -0.8087    1.9334   -3.8160 H         1 <0>         0.0000
     25 H10        -1.5204    2.0177   -2.1836 H         1 <0>         0.0000
@<TRIPOS>BOND
     1    1    2 ar
     2    1    5 ar
     3    1   16 1
     4    2    6 ar
     5    2   17 1
     6    3    4 ar
     7    3    5 ar
     8    3   18 1
     9    4    6 ar
    10    4   13 1
    11    5   14 1
    12    6   15 1
    13    7    8 1
    14    7   11 1
    15    7   19 1
    16    7   20 1
    17    8   12 1
    18    8   21 1
    19    8   22 1
    20    9   10 1
    21    9   12 1
    22    9   11 1
    23    9   23 1
    24   10   13 1
    25   10   24 1
    26   10   25 1
