@<TRIPOS>MOLECULE
*****
   34    35     0     0     0
SMALL
NO_CHARGES

@<TRIPOS>ATOM
      1 C1          3.0545   -0.9530    3.6210 C.ar      1 <0>         0.0000
      2 C2          1.1344    0.0437    4.6965 C.ar      1 <0>         0.0000
      3 C3          2.1712    1.1456    2.8129 C.ar      1 <0>         0.0000
      4 C4          2.0689   -0.9880    4.6074 C.ar      1 <0>         0.0000
      5 C5          3.1057    0.1139    2.7238 C.ar      1 <0>         0.0000
      6 C6          1.1855    1.1105    3.7993 C.ar      1 <0>         0.0000
      7 C7          1.4132   -0.1973   -0.1382 C.2       1 <0>         0.0000
      8 C8         -0.5967    0.8485    0.9893 C.2       1 <0>         0.0000
      9 C9          0.5684   -1.3907   -0.5325 C.3       1 <0>         0.0000
     10 C10        -1.4380   -0.3467    0.5929 C.3       1 <0>         0.0000
     11 C11         0.9010    0.6434    1.0092 C.3       1 <0>         0.0000
     12 C12        -0.9172   -1.0174   -0.6918 C.3       1 <0>         0.0000
     13 C13        -1.7250   -2.3053   -0.9374 C.3       1 <0>         0.0000
     14 C14        -1.1136   -0.0872   -1.9050 C.3       1 <0>         0.0000
     15 N1          2.2231    2.2203    1.9095 N.2       1 <0>         0.0000
     16 N2          1.5265    1.9606    0.9057 N.2       1 <0>         0.0000
     17 O1          2.5080    0.0006   -0.6655 O.2       1 <0>         0.0000
     18 O2         -1.1266    1.8913    1.3734 O.2       1 <0>         0.0000
     19 Br1         1.9985   -2.4336    5.8234 Br        1 <0>         0.0000
     20 Br2         4.4695    0.1124    1.4029 Br        1 <0>         0.0000
     21 Br3        -0.1089    2.4886    3.9662 Br        1 <0>         0.0000
     22 H1          3.7830   -1.7582    3.5544 H         1 <0>         0.0000
     23 H2          0.3667    0.0136    5.4669 H         1 <0>         0.0000
     24 H3          0.9626   -1.8023   -1.4693 H         1 <0>         0.0000
     25 H4          0.7010   -2.1528    0.2451 H         1 <0>         0.0000
     26 H5         -1.4231   -1.0477    1.4362 H         1 <0>         0.0000
     27 H6         -2.4742   -0.0139    0.4582 H         1 <0>         0.0000
     28 H7          1.1783    0.1649    1.9482 H         1 <0>         0.0000
     29 H8         -1.3649   -2.7850   -1.8410 H         1 <0>         0.0000
     30 H9         -2.7736   -2.0523   -1.0498 H         1 <0>         0.0000
     31 H10        -1.5973   -2.9728   -0.0921 H         1 <0>         0.0000
     32 H11        -0.7400   -0.5809   -2.7947 H         1 <0>         0.0000
     33 H12        -0.5664    0.8336   -1.7381 H         1 <0>         0.0000
     34 H13        -2.1698    0.1280   -2.0196 H         1 <0>         0.0000
@<TRIPOS>BOND
     1    1    4 ar
     2    1    5 ar
     3    1   22 1
     4    2    4 ar
     5    2    6 ar
     6    2   23 1
     7    3    5 ar
     8    3    6 ar
     9    3   15 1
    10    4   19 1
    11    5   20 1
    12    6   21 1
    13    7    9 1
    14    7   11 1
    15    7   17 2
    16    8   10 1
    17    8   11 1
    18    8   18 2
    19    9   12 1
    20    9   24 1
    21    9   25 1
    22   10   12 1
    23   10   26 1
    24   10   27 1
    25   11   16 1
    26   11   28 1
    27   12   13 1
    28   12   14 1
    29   13   29 1
    30   13   30 1
    31   13   31 1
    32   14   32 1
    33   14   33 1
    34   14   34 1
    35   15   16 2
