@<TRIPOS>MOLECULE
*****
   36    38     0     0     0
SMALL
NO_CHARGES

@<TRIPOS>ATOM
      1 C1          0.7125   -1.7325    0.0481 C.ar      1 <0>         0.0000
      2 C2          0.0114   -4.3100    7.1695 C.ar      1 <0>         0.0000
      3 C3          6.1739   -0.3158    5.1405 C.ar      1 <0>         0.0000
      4 C4          0.9060   -0.4423    0.5418 C.ar      1 <0>         0.0000
      5 C5          0.8354   -2.8306    0.8992 C.ar      1 <0>         0.0000
      6 C6          1.3917   -4.1189    7.1077 C.ar      1 <0>         0.0000
      7 C7         -0.8376   -3.5192    6.3953 C.ar      1 <0>         0.0000
      8 C8          5.2229    0.2353    5.9993 C.ar      1 <0>         0.0000
      9 C9          5.7681   -1.1089    4.0673 C.ar      1 <0>         0.0000
     10 C10         1.2222   -0.2503    1.8867 C.ar      1 <0>         0.0000
     11 C11         1.1516   -2.6387    2.2442 C.ar      1 <0>         0.0000
     12 C12         1.9231   -3.1370    6.2715 C.ar      1 <0>         0.0000
     13 C13        -0.3062   -2.5373    5.5591 C.ar      1 <0>         0.0000
     14 C14         3.8661   -0.0066    5.7849 C.ar      1 <0>         0.0000
     15 C15         4.4112   -1.3508    3.8528 C.ar      1 <0>         0.0000
     16 C16         1.3451   -1.3485    2.7379 C.ar      1 <0>         0.0000
     17 C17         1.0741   -2.3462    5.4972 C.ar      1 <0>         0.0000
     18 C18         3.4601   -0.7997    4.7116 C.ar      1 <0>         0.0000
     19 N1          0.9902    0.2621    4.8532 N.2       1 <0>         0.0000
     20 P1          1.7456   -1.1055    4.4406 P.3       1 <0>         0.0000
     21 H1          0.4662   -1.8821   -0.9991 H         1 <0>         0.0000
     22 H2         -0.4025   -5.0745    7.8205 H         1 <0>         0.0000
     23 H3          7.2305   -0.1275    5.3073 H         1 <0>         0.0000
     24 H4          0.8106    0.4127   -0.1211 H         1 <0>         0.0000
     25 H5          0.6844   -3.8351    0.5149 H         1 <0>         0.0000
     26 H6          2.0527   -4.7345    7.7108 H         1 <0>         0.0000
     27 H7         -1.9123   -3.6682    6.4431 H         1 <0>         0.0000
     28 H8          5.5391    0.8526    6.8352 H         1 <0>         0.0000
     29 H9          6.5084   -1.5377    3.3984 H         1 <0>         0.0000
     30 H10         1.3724    0.7562    2.2665 H         1 <0>         0.0000
     31 H11         1.2458   -3.4970    2.9033 H         1 <0>         0.0000
     32 H12         2.9987   -2.9916    6.2270 H         1 <0>         0.0000
     33 H13        -0.9713   -1.9243    4.9576 H         1 <0>         0.0000
     34 H14         3.1292    0.4244    6.4566 H         1 <0>         0.0000
     35 H15         4.0999   -1.9687    3.0153 H         1 <0>         0.0000
     36 H16         1.1460    0.5174    5.8348 H         1 <0>         0.0000
@<TRIPOS>BOND
     1    1    5 ar
     2    1    4 ar
     3    1   21 1
     4    2    7 ar
     5    2    6 ar
     6    2   22 1
     7    3    9 ar
     8    3    8 ar
     9    3   23 1
    10    4   10 ar
    11    4   24 1
    12    5   11 ar
    13    5   25 1
    14    6   12 ar
    15    6   26 1
    16    7   13 ar
    17    7   27 1
    18    8   14 ar
    19    8   28 1
    20    9   15 ar
    21    9   29 1
    22   10   16 ar
    23   10   30 1
    24   11   16 ar
    25   11   31 1
    26   12   17 ar
    27   12   32 1
    28   13   17 ar
    29   13   33 1
    30   14   18 ar
    31   14   34 1
    32   15   18 ar
    33   15   35 1
    34   16   20 1
    35   17   20 1
    36   18   20 1
    37   19   20 2
    38   19   36 1
