@<TRIPOS>MOLECULE
*****
   19    19     0     0     0
SMALL
NO_CHARGES

@<TRIPOS>ATOM
      1 C1          1.8851   -1.0363   -0.1124 C.ar      1 <0>         0.0000
      2 C2          0.8066   -0.4630    0.5610 C.ar      1 <0>         0.0000
      3 C3          2.8783   -1.6520    2.0022 C.ar      1 <0>         0.0000
      4 C4          1.7997   -1.0786    2.6757 C.ar      1 <0>         0.0000
      5 C5          2.9210   -1.6309    0.6081 C.ar      1 <0>         0.0000
      6 C6          0.7638   -0.4841    1.9551 C.ar      1 <0>         0.0000
      7 C7          1.8059   -2.4028    4.6511 C.3       1 <0>         0.0000
      8 C8          1.0633   -2.3501    5.9693 C.3       1 <0>         0.0000
      9 O1          1.7870   -1.1155    4.0384 O.3       1 <0>         0.0000
     10 Br1         4.3828   -2.4074   -0.3040 Br        1 <0>         0.0000
     11 Br2        -0.7183    0.3023    2.8364 Br        1 <0>         0.0000
     12 Br3         1.9564   -1.1235    7.1958 Br        1 <0>         0.0000
     13 H1          1.9028   -1.0105   -1.1989 H         1 <0>         0.0000
     14 H2          0.0085   -0.0049   -0.0176 H         1 <0>         0.0000
     15 H3          3.6810   -2.1141    2.5723 H         1 <0>         0.0000
     16 H4          1.3044   -3.1005    3.9729 H         1 <0>         0.0000
     17 H5          2.8461   -2.7209    4.7752 H         1 <0>         0.0000
     18 H6          1.0583   -3.3228    6.4673 H         1 <0>         0.0000
     19 H7          0.0426   -1.9756    5.8574 H         1 <0>         0.0000
@<TRIPOS>BOND
     1    1    2 ar
     2    1    5 ar
     3    1   13 1
     4    2    6 ar
     5    2   14 1
     6    3    4 ar
     7    3    5 ar
     8    3   15 1
     9    4    6 ar
    10    4    9 1
    11    5   10 1
    12    6   11 1
    13    7    8 1
    14    7    9 1
    15    7   16 1
    16    7   17 1
    17    8   12 1
    18    8   18 1
    19    8   19 1
