@<TRIPOS>MOLECULE
*****
   40    44     0     0     0
SMALL
NO_CHARGES

@<TRIPOS>ATOM
      1 C1         -0.0699   -0.0095    1.8825 C.ar      1 <0>         0.0000
      2 C2         -0.5607   -0.7769    0.8037 C.ar      1 <0>         0.0000
      3 C3         -0.1171   -0.4919    3.1888 C.ar      1 <0>         0.0000
      4 C4         -1.1071   -2.0443    1.0081 C.ar      1 <0>         0.0000
      5 C5          2.9037   -4.0573    8.0479 C.2       1 <0>         0.0000
      6 C6         -0.6650   -1.7659    3.4255 C.ar      1 <0>         0.0000
      7 C7         -0.8701   -2.5702    4.6026 C.2       1 <0>         0.0000
      8 C8         -1.1519   -2.5261    2.3202 C.ar      1 <0>         0.0000
      9 C9          1.6553   -3.4213    7.7938 C.2       1 <0>         0.0000
     10 C10        -1.4563   -3.7463    4.2017 C.2       1 <0>         0.0000
     11 C11         3.7338   -3.0300    8.4044 C.2       1 <0>         0.0000
     12 C12         0.3990   -4.1699    7.4508 C.2       1 <0>         0.0000
     13 C13        -0.5171   -2.2846    6.0367 C.3       1 <0>         0.0000
     14 C14        -1.8448   -4.8616    5.1194 C.3       1 <0>         0.0000
     15 C15         5.7342   -4.0082    9.7210 C.3       1 <0>         0.0000
     16 C16         6.1458   -3.9543    8.2758 C.3       1 <0>         0.0000
     17 C17        -1.8445   -4.3024    6.5542 C.3       1 <0>         0.0000
     18 C18         5.1444   -2.9396    8.8072 C.3       1 <0>         0.0000
     19 N1          1.7168   -2.1163    7.9877 N.2       1 <0>         0.0000
     20 N2         -1.6251   -3.7302    2.8235 N.pl3     1 <0>         0.0000
     21 N3         -0.6275   -3.5268    6.8198 N.am      1 <0>         0.0000
     22 O1          0.3323   -5.3548    7.7992 O.2       1 <0>         0.0000
     23 O2          3.0371   -1.8635    8.3752 O.3       1 <0>         0.0000
     24 H1          0.3508    0.9732    1.6865 H         1 <0>         0.0000
     25 H2         -0.5111   -0.3742   -0.2045 H         1 <0>         0.0000
     26 H3          0.2641    0.1083    4.0115 H         1 <0>         0.0000
     27 H4         -1.4818   -2.6329    0.1739 H         1 <0>         0.0000
     28 H5          3.1115   -5.1148    7.9835 H         1 <0>         0.0000
     29 H6          0.4918   -1.8882    6.1224 H         1 <0>         0.0000
     30 H7         -1.1863   -1.5298    6.4720 H         1 <0>         0.0000
     31 H8         -2.8422   -5.2521    4.8809 H         1 <0>         0.0000
     32 H9         -1.1399   -5.6995    5.0504 H         1 <0>         0.0000
     33 H10         5.0663   -4.8039   10.0360 H         1 <0>         0.0000
     34 H11         6.4407   -3.6776   10.4761 H         1 <0>         0.0000
     35 H12         7.1378   -3.5874    8.0310 H         1 <0>         0.0000
     36 H13         5.7638   -4.7162    7.6034 H         1 <0>         0.0000
     37 H14        -2.6980   -3.6282    6.6847 H         1 <0>         0.0000
     38 H15        -1.9073   -5.1049    7.2869 H         1 <0>         0.0000
     39 H16         5.4956   -1.9225    8.9487 H         1 <0>         0.0000
     40 H17        -2.0453   -4.4695    2.2788 H         1 <0>         0.0000
@<TRIPOS>BOND
     1    1    2 ar
     2    1    3 ar
     3    1   24 1
     4    2    4 ar
     5    2   25 1
     6    3    6 ar
     7    3   26 1
     8    4    8 ar
     9    4   27 1
    10    5    9 1
    11    5   11 2
    12    5   28 1
    13    6    7 1
    14    6    8 ar
    15    7   10 2
    16    7   13 1
    17    8   20 1
    18    9   12 1
    19    9   19 2
    20   10   14 1
    21   10   20 1
    22   11   18 1
    23   11   23 1
    24   12   21 am
    25   12   22 2
    26   13   21 1
    27   13   29 1
    28   13   30 1
    29   14   17 1
    30   14   31 1
    31   14   32 1
    32   15   16 1
    33   15   18 1
    34   15   33 1
    35   15   34 1
    36   16   18 1
    37   16   35 1
    38   16   36 1
    39   17   21 1
    40   17   37 1
    41   17   38 1
    42   18   39 1
    43   19   23 1
    44   20   40 1
