@<TRIPOS>MOLECULE
*****
   15    15     0     0     0
SMALL
NO_CHARGES

@<TRIPOS>ATOM
      1 C1         -0.2291    0.6549   -2.0903 C.2       1 <0>         0.0000
      2 C2         -0.9987    0.2590   -3.1479 C.2       1 <0>         0.0000
      3 C3         -0.4538   -0.1644   -0.9424 C.2       1 <0>         0.0000
      4 C4         -1.3915   -1.1807   -1.1406 C.2       1 <0>         0.0000
      5 C5         -2.0254   -2.3296   -0.3912 C.2       1 <0>         0.0000
      6 N1         -1.6525   -2.5751    0.8835 N.am      1 <0>         0.0000
      7 N2          0.2939    0.1437    0.2690 N.pl3     1 <0>         0.0000
      8 O1          0.0426   -0.4636    1.3245 O.3       1 <0>         0.0000
      9 O2         -2.8554   -3.0140   -0.9960 O.2       1 <0>         0.0000
     10 O3          1.1547    1.0227    0.1887 O.2       1 <0>         0.0000
     11 S1         -1.9875   -1.1015   -2.7674 S.3       1 <0>         0.0000
     12 H1          0.4663    1.4837   -2.0975 H         1 <0>         0.0000
     13 H2         -1.0352    0.7007   -4.1358 H         1 <0>         0.0000
     14 H3         -2.1271   -3.3329    1.3576 H         1 <0>         0.0000
     15 H4         -1.0304   -1.9474    1.3807 H         1 <0>         0.0000
@<TRIPOS>BOND
     1    1    2 2
     2    1    3 1
     3    1   12 1
     4    2   11 1
     5    2   13 1
     6    3    4 2
     7    3    7 1
     8    4    5 1
     9    4   11 1
    10    5    6 am
    11    5    9 2
    12    6   14 1
    13    6   15 1
    14    7    8 1
    15    7   10 2
