@<TRIPOS>MOLECULE
*****
   25    26     0     0     0
SMALL
NO_CHARGES

@<TRIPOS>ATOM
      1 C1          3.4174   -1.0909    1.3154 C.ar      1 <0>         0.0000
      2 C2          2.4548   -0.5164    2.1523 C.ar      1 <0>         0.0000
      3 C3          3.0377   -1.9011    0.2477 C.ar      1 <0>         0.0000
      4 C4          0.7041   -1.5745    0.8391 C.ar      1 <0>         0.0000
      5 C5          1.0921   -0.7564    1.9167 C.ar      1 <0>         0.0000
      6 C6          1.6731   -2.1405    0.0134 C.ar      1 <0>         0.0000
      7 C7         -1.0135    2.2756    6.1536 C.2       1 <0>         0.0000
      8 C8         -1.9558    1.0428    4.5379 C.2       1 <0>         0.0000
      9 C9          0.1119   -0.1371    2.8144 C.2       1 <0>         0.0000
     10 C10        -2.5013    2.4867    6.5304 C.3       1 <0>         0.0000
     11 N1         -0.8290    1.4614    5.0382 N.2       1 <0>         0.0000
     12 N2         -1.1500   -0.3350    2.6214 N.2       1 <0>         0.0000
     13 N3         -2.0865    0.2397    3.4565 N.pl3     1 <0>         0.0000
     14 O1         -0.1240    2.7927    6.8011 O.2       1 <0>         0.0000
     15 O2          1.3570   -2.9468   -1.0526 O.3       1 <0>         0.0000
     16 S1         -3.4934    1.5540    5.3232 S.3       1 <0>         0.0000
     17 H1          4.4725   -0.9056    1.4969 H         1 <0>         0.0000
     18 H2          2.7565    0.1147    2.9839 H         1 <0>         0.0000
     19 H3          3.7720   -2.3548   -0.4113 H         1 <0>         0.0000
     20 H4         -0.3546   -1.7536    0.6664 H         1 <0>         0.0000
     21 H5          0.4884    0.4795    3.6276 H         1 <0>         0.0000
     22 H6         -2.6763    2.1181    7.5424 H         1 <0>         0.0000
     23 H7         -2.7403    3.5506    6.4887 H         1 <0>         0.0000
     24 H8         -3.0271   -0.0081    3.1768 H         1 <0>         0.0000
     25 H9          0.3921   -3.0339   -1.1087 H         1 <0>         0.0000
@<TRIPOS>BOND
     1    1    2 ar
     2    1    3 ar
     3    1   17 1
     4    2    5 ar
     5    2   18 1
     6    3    6 ar
     7    3   19 1
     8    4    5 ar
     9    4    6 ar
    10    4   20 1
    11    5    9 1
    12    6   15 1
    13    7   10 1
    14    7   11 1
    15    7   14 2
    16    8   11 2
    17    8   13 1
    18    8   16 1
    19    9   12 2
    20    9   21 1
    21   10   16 1
    22   10   22 1
    23   10   23 1
    24   12   13 1
    25   13   24 1
    26   15   25 1
