@<TRIPOS>MOLECULE
*****
   29    31     0     0     0
SMALL
NO_CHARGES

@<TRIPOS>ATOM
      1 C1         -3.3707   -1.7185   -4.5221 C.ar      1 <0>         0.0000
      2 C2          1.7142    1.3614   -5.2483 C.ar      1 <0>         0.0000
      3 C3          0.9006    1.0252   -4.1500 C.ar      1 <0>         0.0000
      4 C4         -3.4341   -0.8113   -5.5854 C.ar      1 <0>         0.0000
      5 C5         -2.8062   -2.9760   -4.7218 C.ar      1 <0>         0.0000
      6 C6          1.9834    0.4477   -6.2749 C.ar      1 <0>         0.0000
      7 C7          0.3218   -0.2479   -4.0332 C.ar      1 <0>         0.0000
      8 C8         -2.9662   -1.1805   -6.8473 C.ar      1 <0>         0.0000
      9 C9         -2.2779   -3.3529   -5.9695 C.ar      1 <0>         0.0000
     10 C10         1.4140   -0.8247   -6.1694 C.ar      1 <0>         0.0000
     11 C11         0.6141   -1.1335   -5.0562 C.ar      1 <0>         0.0000
     12 C12        -2.4070   -2.4473   -7.0347 C.ar      1 <0>         0.0000
     13 C13         0.7144   -2.8200   -6.4178 C.2       1 <0>         0.0000
     14 C14        -1.6276   -4.6827   -6.0760 C.2       1 <0>         0.0000
     15 N1          1.4440   -1.9310   -7.0289 N.2       1 <0>         0.0000
     16 N2         -0.4460   -5.0266   -6.4618 N.2       1 <0>         0.0000
     17 N3          0.4946   -4.1053   -6.8437 N.pl3     1 <0>         0.0000
     18 O1          0.1874   -2.4441   -5.2060 O.3       1 <0>         0.0000
     19 Br1        -1.8850   -2.9336   -8.8141 Br        1 <0>         0.0000
     20 H1         -3.7524   -1.4432   -3.5429 H         1 <0>         0.0000
     21 H2          2.1412    2.3592   -5.3010 H         1 <0>         0.0000
     22 H3          0.7154    1.7651   -3.3765 H         1 <0>         0.0000
     23 H4         -3.8593    0.1780   -5.4408 H         1 <0>         0.0000
     24 H5         -2.7269   -3.6751   -3.8931 H         1 <0>         0.0000
     25 H6          2.6035    0.7130   -7.1258 H         1 <0>         0.0000
     26 H7         -0.3139   -0.5219   -3.1974 H         1 <0>         0.0000
     27 H8         -3.0401   -0.4959   -7.6858 H         1 <0>         0.0000
     28 H9         -2.2299   -5.5356   -5.7633 H         1 <0>         0.0000
     29 H10         1.2329   -4.5000   -7.4105 H         1 <0>         0.0000
@<TRIPOS>BOND
     1    1    4 ar
     2    1    5 ar
     3    1   20 1
     4    2    3 ar
     5    2    6 ar
     6    2   21 1
     7    3    7 ar
     8    3   22 1
     9    4    8 ar
    10    4   23 1
    11    5    9 ar
    12    5   24 1
    13    6   10 ar
    14    6   25 1
    15    7   11 ar
    16    7   26 1
    17    8   12 ar
    18    8   27 1
    19    9   12 ar
    20    9   14 1
    21   10   11 ar
    22   10   15 1
    23   11   18 1
    24   12   19 1
    25   13   15 2
    26   13   17 1
    27   13   18 1
    28   14   16 2
    29   14   28 1
    30   16   17 1
    31   17   29 1
