@<TRIPOS>MOLECULE
*****
   28    30     0     0     0
SMALL
NO_CHARGES

@<TRIPOS>ATOM
      1 C1          3.8448   -2.5138   -5.8232 C.ar      1 <0>         0.0000
      2 C2          5.8769   -2.1708   -4.5190 C.ar      1 <0>         0.0000
      3 C3          4.6001   -3.0656   -6.8493 C.ar      1 <0>         0.0000
      4 C4          6.6410   -2.7248   -5.5447 C.ar      1 <0>         0.0000
      5 C5          4.4825   -2.0604   -4.6501 C.ar      1 <0>         0.0000
      6 C6          5.9928   -3.1657   -6.7010 C.ar      1 <0>         0.0000
      7 C7          0.6188    0.5188    1.5768 C.2       1 <0>         0.0000
      8 C8         -0.5450    0.8834    0.9320 C.2       1 <0>         0.0000
      9 C9          1.7540   -0.0944    0.9064 C.2       1 <0>         0.0000
     10 C10         1.9413   -0.8406   -2.5407 C.2       1 <0>         0.0000
     11 C11         0.2754    0.1441   -1.0604 C.2       1 <0>         0.0000
     12 C12        -1.7080    1.5154    1.6441 C.3       1 <0>         0.0000
     13 N1         -0.7145    0.6857   -0.4201 N.2       1 <0>         0.0000
     14 N2          2.4089   -0.7990   -1.3322 N.2       1 <0>         0.0000
     15 N3          3.8263   -1.4835   -3.5486 N.2       1 <0>         0.0000
     16 N4          2.5705   -1.3705   -3.6743 N.2       1 <0>         0.0000
     17 N5          1.4765   -0.2452   -0.5026 N.am      1 <0>         0.0000
     18 O1          2.8150   -0.4541    1.3766 O.2       1 <0>         0.0000
     19 S1          0.3033   -0.2254   -2.7767 S.3       1 <0>         0.0000
     20 Br1         7.0218   -3.9248   -8.1178 Br        1 <0>         0.0000
     21 Br2         0.8411    0.7923    3.4475 Br        1 <0>         0.0000
     22 H1          2.7674   -2.4264   -5.9134 H         1 <0>         0.0000
     23 H2          6.3410   -1.8175   -3.6030 H         1 <0>         0.0000
     24 H3          4.1241   -3.4184   -7.7584 H         1 <0>         0.0000
     25 H4          7.7179   -2.8133   -5.4489 H         1 <0>         0.0000
     26 H5         -1.4073    2.4514    2.1251 H         1 <0>         0.0000
     27 H6         -2.0829    0.8582    2.4351 H         1 <0>         0.0000
     28 H7         -2.5061    1.7142    0.9284 H         1 <0>         0.0000
@<TRIPOS>BOND
     1    1    3 ar
     2    1    5 ar
     3    1   22 1
     4    2    4 ar
     5    2    5 ar
     6    2   23 1
     7    3    6 ar
     8    3   24 1
     9    4    6 ar
    10    4   25 1
    11    5   15 1
    12    6   20 1
    13    7    8 2
    14    7    9 1
    15    7   21 1
    16    8   12 1
    17    8   13 1
    18    9   17 am
    19    9   18 2
    20   10   14 2
    21   10   16 1
    22   10   19 1
    23   11   13 2
    24   11   17 1
    25   11   19 1
    26   12   26 1
    27   12   27 1
    28   12   28 1
    29   14   17 1
    30   15   16 2
