@<TRIPOS>MOLECULE
*****
   50    52     0     0     0
SMALL
NO_CHARGES

@<TRIPOS>ATOM
      1 C1          1.4949    0.6391   -2.2621 C.2       1 <0>         0.0000
      2 C2         -1.9655    1.9659   -4.3917 C.2       1 <0>         0.0000
      3 C3          0.6403   -1.4310    1.5120 C.3       1 <0>         0.0000
      4 C4          0.6091    0.1029    1.5515 C.3       1 <0>         0.0000
      5 C5          1.8083   -1.9430    0.6583 C.3       1 <0>         0.0000
      6 C6          0.5429    0.6964    0.1350 C.3       1 <0>         0.0000
      7 C7          1.7620   -1.3647   -0.7642 C.3       1 <0>         0.0000
      8 C8         -3.0479   -0.8722   -4.0331 C.3       1 <0>         0.0000
      9 C9         -3.3393   -1.0728   -5.5300 C.3       1 <0>         0.0000
     10 C10        -0.9614   -0.1832   -2.5278 C.3       1 <0>         0.0000
     11 C11         0.2786    0.9000   -4.3420 C.3       1 <0>         0.0000
     12 C12        -1.4723    0.3449   -6.2166 C.3       1 <0>         0.0000
     13 C13        -1.5763   -0.5101   -3.8868 C.3       1 <0>         0.0000
     14 C14         1.6785    0.1887   -0.7912 C.3       1 <0>         0.0000
     15 C15        -1.1890    0.6982   -4.7552 C.3       1 <0>         0.0000
     16 C16         3.0210    0.7775   -0.3118 C.3       1 <0>         0.0000
     17 C17        -3.3038   -0.0810   -7.7356 C.3       1 <0>         0.0000
     18 N1          0.2993    0.4869   -2.9198 N.am      1 <0>         0.0000
     19 N2         -2.9079    0.0738   -6.3414 N.3       1 <0>         0.0000
     20 O1          2.4455    1.1283   -2.8851 O.2       1 <0>         0.0000
     21 O2         -2.6679    2.1426   -3.4148 O.2       1 <0>         0.0000
     22 O3         -1.7302    2.9632   -5.2855 O.3       1 <0>         0.0000
     23 H1         -0.3053   -1.8000    1.0892 H         1 <0>         0.0000
     24 H2          0.7075   -1.8364    2.5284 H         1 <0>         0.0000
     25 H3         -0.2604    0.4477    2.1236 H         1 <0>         0.0000
     26 H4          1.4930    0.4734    2.0832 H         1 <0>         0.0000
     27 H5          2.7566   -1.6802    1.1414 H         1 <0>         0.0000
     28 H6          1.7852   -3.0379    0.6018 H         1 <0>         0.0000
     29 H7         -0.4346    0.4449   -0.2767 H         1 <0>         0.0000
     30 H8          0.5843    1.7911    0.1798 H         1 <0>         0.0000
     31 H9          2.6460   -1.6771   -1.3317 H         1 <0>         0.0000
     32 H10         0.8990   -1.7997   -1.2789 H         1 <0>         0.0000
     33 H11        -3.6816   -0.0813   -3.6270 H         1 <0>         0.0000
     34 H12        -3.2784   -1.8003   -3.4973 H         1 <0>         0.0000
     35 H13        -2.8442   -2.0036   -5.8745 H         1 <0>         0.0000
     36 H14        -4.4148   -1.2071   -5.6834 H         1 <0>         0.0000
     37 H15        -1.6108    0.4877   -1.9611 H         1 <0>         0.0000
     38 H16        -0.7769   -1.0821   -1.9398 H         1 <0>         0.0000
     39 H17         0.9437    0.2609   -4.9354 H         1 <0>         0.0000
     40 H18         0.6339    1.9254   -4.4491 H         1 <0>         0.0000
     41 H19        -1.2127    1.1702   -6.8831 H         1 <0>         0.0000
     42 H20        -0.8535   -0.5281   -6.5019 H         1 <0>         0.0000
     43 H21        -0.9914   -1.3466   -4.2969 H         1 <0>         0.0000
     44 H22         3.2288    0.4890    0.7206 H         1 <0>         0.0000
     45 H23         3.0036    1.8694   -0.3636 H         1 <0>         0.0000
     46 H24         3.8441    0.4346   -0.9409 H         1 <0>         0.0000
     47 H25        -3.0265    0.8155   -8.2986 H         1 <0>         0.0000
     48 H26        -4.3899   -0.1999   -7.8004 H         1 <0>         0.0000
     49 H27        -2.8333   -0.9553   -8.2240 H         1 <0>         0.0000
     50 H28        -2.2354    3.7353   -4.9659 H         1 <0>         0.0000
@<TRIPOS>BOND
     1    1   14 1
     2    1   18 am
     3    1   20 2
     4    2   15 1
     5    2   21 2
     6    2   22 1
     7    3    5 1
     8    3    4 1
     9    3   23 1
    10    3   24 1
    11    4    6 1
    12    4   25 1
    13    4   26 1
    14    5    7 1
    15    5   27 1
    16    5   28 1
    17    6   14 1
    18    6   29 1
    19    6   30 1
    20    7   14 1
    21    7   31 1
    22    7   32 1
    23    8    9 1
    24    8   13 1
    25    8   33 1
    26    8   34 1
    27    9   19 1
    28    9   35 1
    29    9   36 1
    30   10   13 1
    31   10   18 1
    32   10   37 1
    33   10   38 1
    34   11   15 1
    35   11   18 1
    36   11   39 1
    37   11   40 1
    38   12   15 1
    39   12   19 1
    40   12   41 1
    41   12   42 1
    42   13   15 1
    43   13   43 1
    44   14   16 1
    45   16   44 1
    46   16   45 1
    47   16   46 1
    48   17   19 1
    49   17   47 1
    50   17   48 1
    51   17   49 1
    52   22   50 1
