@<TRIPOS>MOLECULE
*****
   28    30     0     0     0
SMALL
NO_CHARGES

@<TRIPOS>ATOM
      1 C1         -0.7174    1.9223   -0.6919 C.ar      1 <0>         0.0000
      2 C2         -0.8730    0.6991   -0.0045 C.ar      1 <0>         0.0000
      3 C3         -1.8196    2.6027   -1.1911 C.ar      1 <0>         0.0000
      4 C4         -2.1336    0.1427    0.1907 C.ar      1 <0>         0.0000
      5 C5        -11.5649    3.3721   -2.3348 C.ar      1 <0>         0.0000
      6 C6        -10.7135    3.6042   -3.4182 C.ar      1 <0>         0.0000
      7 C7         -9.6374    2.7962   -0.9713 C.ar      1 <0>         0.0000
      8 C8         -3.1058    2.0574   -1.0043 C.ar      1 <0>         0.0000
      9 C9         -8.7720    3.0253   -2.0585 C.ar      1 <0>         0.0000
     10 C10        -3.2468    0.8278   -0.3131 C.ar      1 <0>         0.0000
     11 C11       -11.0112    2.9717   -1.1182 C.ar      1 <0>         0.0000
     12 C12        -9.3358    3.4443   -3.2823 C.ar      1 <0>         0.0000
     13 C13        -4.3811    2.5735   -1.4253 C.2       1 <0>         0.0000
     14 C14        -5.4502    1.7775   -1.0758 C.2       1 <0>         0.0000
     15 C15        -6.8748    1.9257   -1.3090 C.2       1 <0>         0.0000
     16 N1         -7.3841    2.9211   -1.9406 N.2       1 <0>         0.0000
     17 S1         -4.9196    0.3373   -0.2000 S.3       1 <0>         0.0000
     18 Cl1       -12.0625    2.6959    0.2616 Cl        1 <0>         0.0000
     19 Cl2        -8.2998    3.7282   -4.6609 Cl        1 <0>         0.0000
     20 Cl3        -4.5020    4.0643   -2.2943 Cl        1 <0>         0.0000
     21 H1          0.2785    2.3336   -0.8304 H         1 <0>         0.0000
     22 H2          0.0033    0.1829    0.3779 H         1 <0>         0.0000
     23 H3         -1.7056    3.5437   -1.7205 H         1 <0>         0.0000
     24 H4         -2.2501   -0.7991    0.7195 H         1 <0>         0.0000
     25 H5        -12.6362    3.5104   -2.4349 H         1 <0>         0.0000
     26 H6        -11.1231    3.9140   -4.3743 H         1 <0>         0.0000
     27 H7         -9.2234    2.5253   -0.0055 H         1 <0>         0.0000
     28 H8         -7.5015    1.1091   -0.9198 H         1 <0>         0.0000
@<TRIPOS>BOND
     1    1    2 ar
     2    1    3 ar
     3    1   21 1
     4    2    4 ar
     5    2   22 1
     6    3    8 ar
     7    3   23 1
     8    4   10 ar
     9    4   24 1
    10    5    6 ar
    11    5   11 ar
    12    5   25 1
    13    6   12 ar
    14    6   26 1
    15    7    9 ar
    16    7   11 ar
    17    7   27 1
    18    8   10 ar
    19    8   13 1
    20    9   12 ar
    21    9   16 1
    22   10   17 1
    23   11   18 1
    24   12   19 1
    25   13   14 2
    26   13   20 1
    27   14   15 1
    28   14   17 1
    29   15   16 2
    30   15   28 1
