@<TRIPOS>MOLECULE
*****
   22    22     0     0     0
SMALL
NO_CHARGES

@<TRIPOS>ATOM
      1 C1          2.0949   -0.7063   -0.0280 C.ar      1 <0>         0.0000
      2 C2          1.0491   -0.0902    0.6595 C.ar      1 <0>         0.0000
      3 C3          1.9689   -0.9225    2.7517 C.ar      1 <0>         0.0000
      4 C4          3.0266   -1.5405    2.0637 C.ar      1 <0>         0.0000
      5 C5          3.0730   -1.4257    0.6616 C.ar      1 <0>         0.0000
      6 C6          0.9991   -0.2139    2.0499 C.ar      1 <0>         0.0000
      7 C7          4.0587   -2.2765    2.8429 C.2       1 <0>         0.0000
      8 C8          3.8649   -3.3974   -0.3763 C.3       1 <0>         0.0000
      9 N1          3.6462   -2.8873    3.9114 N.2       1 <0>         0.0000
     10 N2          5.3746   -2.2047    2.4458 N.pl3     1 <0>         0.0000
     11 O1          4.7574   -3.5116    4.5559 O.3       1 <0>         0.0000
     12 O2          4.0967   -2.0100   -0.0731 O.3       1 <0>         0.0000
     13 Br1        -0.4250    0.6348    3.0155 Br        1 <0>         0.0000
     14 H1          2.1683   -0.6331   -1.1093 H         1 <0>         0.0000
     15 H2          0.2928    0.4757    0.1258 H         1 <0>         0.0000
     16 H3          1.9311   -1.0027    3.8317 H         1 <0>         0.0000
     17 H4          4.7237   -3.7328   -0.9609 H         1 <0>         0.0000
     18 H5          2.9483   -3.5110   -0.9662 H         1 <0>         0.0000
     19 H6          3.7849   -3.9918    0.5412 H         1 <0>         0.0000
     20 H7          5.5334   -2.0138    1.4641 H         1 <0>         0.0000
     21 H8          5.9914   -2.8778    2.8843 H         1 <0>         0.0000
     22 H9          4.3315   -3.9696    5.2970 H         1 <0>         0.0000
@<TRIPOS>BOND
     1    1    2 ar
     2    1    5 ar
     3    1   14 1
     4    2    6 ar
     5    2   15 1
     6    3    4 ar
     7    3    6 ar
     8    3   16 1
     9    4    5 ar
    10    4    7 1
    11    5   12 1
    12    6   13 1
    13    7    9 2
    14    7   10 1
    15    8   12 1
    16    8   17 1
    17    8   18 1
    18    8   19 1
    19    9   11 1
    20   10   20 1
    21   10   21 1
    22   11   22 1
