@<TRIPOS>MOLECULE
*****
   45    47     0     0     0
SMALL
NO_CHARGES

@<TRIPOS>ATOM
      1 C1         -1.3022    0.8462   -3.9729 C.2       1 <0>         0.0000
      2 C2          0.3359   -0.4102   -4.8100 C.2       1 <0>         0.0000
      3 C3         -0.2915   -0.0827   -3.6096 C.2       1 <0>         0.0000
      4 C4          1.0834   -1.3788   -2.0546 C.2       1 <0>         0.0000
      5 C5          1.9864   -0.4671    1.3691 C.2       1 <0>         0.0000
      6 C6          1.2502   -1.7091   -0.5773 C.3       1 <0>         0.0000
      7 C7          0.6649    1.8110   -0.5472 C.3       1 <0>         0.0000
      8 C8         -0.3565    2.8517   -0.0959 C.3       1 <0>         0.0000
      9 C9         -0.7858   -0.1506   -1.1671 C.3       1 <0>         0.0000
     10 C10        -0.8836    0.8381    1.1158 C.3       1 <0>         0.0000
     11 C11         0.0794    0.4604   -0.0502 C.3       1 <0>         0.0000
     12 C12         1.9823    0.7327    2.3048 C.3       1 <0>         0.0000
     13 C13        -0.0660    0.2530   -7.2090 C.3       1 <0>         0.0000
     14 C14        -1.3412    4.4939    2.7223 C.3       1 <0>         0.0000
     15 N1         -1.2983    1.0729   -5.2911 N.2       1 <0>         0.0000
     16 N2         -0.2980    0.3118   -5.7760 N.pl3     1 <0>         0.0000
     17 N3          0.0240   -0.5432   -2.3137 N.am      1 <0>         0.0000
     18 N4          1.1063   -0.5346    0.3008 N.am      1 <0>         0.0000
     19 N5         -0.7763    2.3156    1.2206 N.pl3     1 <0>         0.0000
     20 O1          1.8228   -1.8429   -2.9183 O.2       1 <0>         0.0000
     21 O2          2.7859   -1.3777    1.5843 O.2       1 <0>         0.0000
     22 O3         -2.5774    2.1511    2.9919 O.2       1 <0>         0.0000
     23 O4         -3.0465    3.5580    0.9203 O.2       1 <0>         0.0000
     24 S1         -2.1158    3.0677    1.9461 S.o2      1 <0>         0.0000
     25 H1         -2.0289    1.3601   -3.3575 H         1 <0>         0.0000
     26 H2          1.1582   -1.0756   -5.0141 H         1 <0>         0.0000
     27 H3          0.5289   -2.4915   -0.3004 H         1 <0>         0.0000
     28 H4          2.2447   -2.1224   -0.4360 H         1 <0>         0.0000
     29 H5          0.8136    1.8122   -1.6292 H         1 <0>         0.0000
     30 H6          1.6320    1.9955   -0.0790 H         1 <0>         0.0000
     31 H7          0.0808    3.8462    0.0215 H         1 <0>         0.0000
     32 H8         -1.2050    2.9306   -0.7868 H         1 <0>         0.0000
     33 H9         -1.3453   -1.0107   -0.7790 H         1 <0>         0.0000
     34 H10        -1.5191    0.5903   -1.4756 H         1 <0>         0.0000
     35 H11        -1.9058    0.5217    0.8785 H         1 <0>         0.0000
     36 H12        -0.6124    0.3751    2.0621 H         1 <0>         0.0000
     37 H13         1.7323    0.3677    3.3055 H         1 <0>         0.0000
     38 H14         1.3153    1.5552    2.0571 H         1 <0>         0.0000
     39 H15         3.0103    1.1021    2.3501 H         1 <0>         0.0000
     40 H16        -0.7691   -0.4361   -7.6873 H         1 <0>         0.0000
     41 H17        -0.2002    1.2516   -7.6271 H         1 <0>         0.0000
     42 H18         0.9552   -0.0860   -7.3926 H         1 <0>         0.0000
     43 H19        -2.1444    5.0532    3.2054 H         1 <0>         0.0000
     44 H20        -0.6187    4.1348    3.4544 H         1 <0>         0.0000
     45 H21        -0.8662    5.1071    1.9559 H         1 <0>         0.0000
@<TRIPOS>BOND
     1    1    3 1
     2    1   15 2
     3    1   25 1
     4    2    3 2
     5    2   16 1
     6    2   26 1
     7    3   17 1
     8    4    6 1
     9    4   17 am
    10    4   20 2
    11    5   12 1
    12    5   18 am
    13    5   21 2
    14    6   18 1
    15    6   27 1
    16    6   28 1
    17    7    8 1
    18    7   11 1
    19    7   29 1
    20    7   30 1
    21    8   19 1
    22    8   31 1
    23    8   32 1
    24    9   11 1
    25    9   17 1
    26    9   33 1
    27    9   34 1
    28   10   11 1
    29   10   19 1
    30   10   35 1
    31   10   36 1
    32   11   18 1
    33   12   37 1
    34   12   38 1
    35   12   39 1
    36   13   16 1
    37   13   40 1
    38   13   41 1
    39   13   42 1
    40   14   24 1
    41   14   43 1
    42   14   44 1
    43   14   45 1
    44   15   16 1
    45   19   24 1
    46   22   24 2
    47   23   24 2
