@<TRIPOS>MOLECULE
*****
   28    30     0     0     0
SMALL
NO_CHARGES

@<TRIPOS>ATOM
      1 C1         -0.7918    2.0026   -0.2266 C.ar      1 <0>         0.0000
      2 C2         -0.7954    0.6155   -0.4894 C.ar      1 <0>         0.0000
      3 C3         -1.9564    2.7501   -0.3364 C.ar      1 <0>         0.0000
      4 C4         -1.9647   -0.0392   -0.8646 C.ar      1 <0>         0.0000
      5 C5        -11.5354    3.3401   -2.5192 C.ar      1 <0>         0.0000
      6 C6        -11.0419    3.9575   -1.3669 C.ar      1 <0>         0.0000
      7 C7         -9.3180    2.4521   -2.9669 C.ar      1 <0>         0.0000
      8 C8         -3.1521    2.1072   -0.7153 C.ar      1 <0>         0.0000
      9 C9         -8.8124    3.0686   -1.8060 C.ar      1 <0>         0.0000
     10 C10        -3.1409    0.7136   -0.9750 C.ar      1 <0>         0.0000
     11 C11       -10.6605    2.5939   -3.3095 C.ar      1 <0>         0.0000
     12 C12        -9.6982    3.8342   -1.0184 C.ar      1 <0>         0.0000
     13 C13        -4.4662    2.6650   -0.8938 C.2       1 <0>         0.0000
     14 C14        -5.4190    1.7438   -1.2706 C.2       1 <0>         0.0000
     15 C15        -6.8375    1.8853   -1.5423 C.2       1 <0>         0.0000
     16 N1         -7.4617    3.0043   -1.4564 N.2       1 <0>         0.0000
     17 S1         -4.7239    0.1262   -1.4232 S.3       1 <0>         0.0000
     18 Cl1       -11.2565    1.8280   -4.7735 Cl        1 <0>         0.0000
     19 Cl2        -9.1159    4.6066    0.4373 Cl        1 <0>         0.0000
     20 Cl3        -4.7669    4.3494   -0.6398 Cl        1 <0>         0.0000
     21 H1          0.1352    2.4880    0.0649 H         1 <0>         0.0000
     22 H2          0.1274    0.0493   -0.3974 H         1 <0>         0.0000
     23 H3         -1.9593    3.8170   -0.1354 H         1 <0>         0.0000
     24 H4         -1.9645   -1.1069   -1.0655 H         1 <0>         0.0000
     25 H5        -12.5778    3.4473   -2.7997 H         1 <0>         0.0000
     26 H6        -11.7055    4.5407   -0.7365 H         1 <0>         0.0000
     27 H7         -8.6453    1.9026   -3.6174 H         1 <0>         0.0000
     28 H8         -7.3584    0.9547   -1.8140 H         1 <0>         0.0000
@<TRIPOS>BOND
     1    1    2 ar
     2    1    3 ar
     3    1   21 1
     4    2    4 ar
     5    2   22 1
     6    3    8 ar
     7    3   23 1
     8    4   10 ar
     9    4   24 1
    10    5    6 ar
    11    5   11 ar
    12    5   25 1
    13    6   12 ar
    14    6   26 1
    15    7    9 ar
    16    7   11 ar
    17    7   27 1
    18    8   10 ar
    19    8   13 1
    20    9   12 ar
    21    9   16 1
    22   10   17 1
    23   11   18 1
    24   12   19 1
    25   13   14 2
    26   13   20 1
    27   14   15 1
    28   14   17 1
    29   15   16 2
    30   15   28 1
