@<TRIPOS>MOLECULE
*****
   42    45     0     0     0
SMALL
NO_CHARGES

@<TRIPOS>ATOM
      1 C1         -2.0496    5.4676   -3.4863 C.ar      1 <0>         0.0000
      2 C2         -1.8885    4.3201   -4.2701 C.ar      1 <0>         0.0000
      3 C3         -1.1012    5.7714   -2.5033 C.ar      1 <0>         0.0000
      4 C4          3.2254   -2.6280   -0.5446 C.ar      1 <0>         0.0000
      5 C5         -0.7924    3.4770   -4.0786 C.ar      1 <0>         0.0000
      6 C6          0.0019    4.9410   -2.2992 C.ar      1 <0>         0.0000
      7 C7          1.8586   -2.4313   -0.3482 C.ar      1 <0>         0.0000
      8 C8          2.2652   -0.0323   -0.2459 C.ar      1 <0>         0.0000
      9 C9          4.1296   -1.5617   -0.6270 C.ar      1 <0>         0.0000
     10 C10         0.1459    3.7963   -3.0912 C.ar      1 <0>         0.0000
     11 C11         3.6289   -0.2490   -0.5075 C.ar      1 <0>         0.0000
     12 C12         1.4110   -1.1224   -0.1941 C.ar      1 <0>         0.0000
     13 C13         3.0228    2.1427   -2.0563 C.2       1 <0>         0.0000
     14 C14         2.6222    1.3406   -3.1581 C.2       1 <0>         0.0000
     15 C15         4.2497    2.0624   -1.2073 C.2       1 <0>         0.0000
     16 C16         5.6128   -1.8439   -0.7889 C.3       1 <0>         0.0000
     17 C17         6.4536   -0.5814   -1.0182 C.3       1 <0>         0.0000
     18 C18         5.9097    0.5774   -0.1822 C.3       1 <0>         0.0000
     19 C19         3.2448    0.1098   -3.7353 C.3       1 <0>         0.0000
     20 N1          2.1551    3.1497   -1.9164 N.2       1 <0>         0.0000
     21 N2          1.5106    1.8770   -3.6681 N.2       1 <0>         0.0000
     22 N3          1.2650    2.9437   -2.8888 N.pl3     1 <0>         0.0000
     23 N4          4.5279    0.8437   -0.6051 N.am      1 <0>         0.0000
     24 O1          5.0098    3.0221   -1.1140 O.2       1 <0>         0.0000
     25 F1          0.0924   -0.9010    0.0400 F         1 <0>         0.0000
     26 H1         -2.9053    6.1191   -3.6402 H         1 <0>         0.0000
     27 H2         -2.6198    4.0755   -5.0358 H         1 <0>         0.0000
     28 H3         -1.2165    6.6616   -1.8909 H         1 <0>         0.0000
     29 H4          3.6044   -3.6427   -0.6458 H         1 <0>         0.0000
     30 H5         -0.6556    2.5845   -4.6779 H         1 <0>         0.0000
     31 H6          0.7460    5.1665   -1.5442 H         1 <0>         0.0000
     32 H7          1.1581   -3.2585   -0.2958 H         1 <0>         0.0000
     33 H8          1.8700    0.9623   -0.0799 H         1 <0>         0.0000
     34 H9          5.9610   -2.3464    0.1227 H         1 <0>         0.0000
     35 H10         5.7674   -2.5572   -1.6060 H         1 <0>         0.0000
     36 H11         7.5011   -0.7719   -0.7632 H         1 <0>         0.0000
     37 H12         6.4255   -0.2848   -2.0725 H         1 <0>         0.0000
     38 H13         5.9156    0.3303    0.8859 H         1 <0>         0.0000
     39 H14         6.4785    1.4942   -0.3263 H         1 <0>         0.0000
     40 H15         2.9505   -0.7799   -3.1695 H         1 <0>         0.0000
     41 H16         2.9252   -0.0191   -4.7715 H         1 <0>         0.0000
     42 H17         4.3360    0.1732   -3.7084 H         1 <0>         0.0000
@<TRIPOS>BOND
     1    1    3 ar
     2    1    2 ar
     3    1   26 1
     4    2    5 ar
     5    2   27 1
     6    3    6 ar
     7    3   28 1
     8    4    7 ar
     9    4    9 ar
    10    4   29 1
    11    5   10 ar
    12    5   30 1
    13    6   10 ar
    14    6   31 1
    15    7   12 ar
    16    7   32 1
    17    8   11 ar
    18    8   12 ar
    19    8   33 1
    20    9   11 ar
    21    9   16 1
    22   10   22 1
    23   11   23 1
    24   12   25 1
    25   13   14 1
    26   13   15 1
    27   13   20 2
    28   14   19 1
    29   14   21 2
    30   15   23 am
    31   15   24 2
    32   16   17 1
    33   16   34 1
    34   16   35 1
    35   17   18 1
    36   17   36 1
    37   17   37 1
    38   18   23 1
    39   18   38 1
    40   18   39 1
    41   19   40 1
    42   19   41 1
    43   19   42 1
    44   20   22 1
    45   21   22 1
