@<TRIPOS>MOLECULE
*****
   40    44     0     0     0
SMALL
NO_CHARGES

@<TRIPOS>ATOM
      1 C1         -0.7516    0.1589    1.9444 C.ar      1 <0>         0.0000
      2 C2         -1.5429   -0.3256    0.8801 C.ar      1 <0>         0.0000
      3 C3         -0.5654   -0.5924    3.1029 C.ar      1 <0>         0.0000
      4 C4         -2.1631   -1.5734    0.9511 C.ar      1 <0>         0.0000
      5 C5          3.0284   -5.2957    6.3940 C.2       1 <0>         0.0000
      6 C6         -1.1810   -1.8533    3.2036 C.ar      1 <0>         0.0000
      7 C7         -1.2107   -2.8809    4.2124 C.2       1 <0>         0.0000
      8 C8         -1.9734   -2.3256    2.1148 C.ar      1 <0>         0.0000
      9 C9          1.8287   -4.5415    6.5352 C.2       1 <0>         0.0000
     10 C10        -1.9912   -3.9056    3.7348 C.2       1 <0>         0.0000
     11 C11         4.0169   -4.4166    6.7419 C.2       1 <0>         0.0000
     12 C12         0.4578   -5.1249    6.3430 C.2       1 <0>         0.0000
     13 C13        -0.5271   -2.9337    5.5513 C.3       1 <0>         0.0000
     14 C14        -2.2890   -5.1682    4.4791 C.3       1 <0>         0.0000
     15 C15         6.1110   -5.7193    7.5230 C.3       1 <0>         0.0000
     16 C16         6.2362   -5.5402    6.0351 C.3       1 <0>         0.0000
     17 C17        -1.9237   -4.9319    5.9561 C.3       1 <0>         0.0000
     18 C18         5.4801   -4.5037    6.8498 C.3       1 <0>         0.0000
     19 N1          2.0658   -3.3075    6.9422 N.2       1 <0>         0.0000
     20 N2         -2.4512   -3.5809    2.4655 N.pl3     1 <0>         0.0000
     21 N3         -0.6027   -4.3054    6.0810 N.am      1 <0>         0.0000
     22 O1          0.3409   -6.3494    6.4724 O.2       1 <0>         0.0000
     23 O2          3.4559   -3.2241    7.0747 O.3       1 <0>         0.0000
     24 H1         -0.2817    1.1347    1.8544 H         1 <0>         0.0000
     25 H2         -1.6705    0.2831   -0.0111 H         1 <0>         0.0000
     26 H3          0.0463   -0.2085    3.9158 H         1 <0>         0.0000
     27 H4         -2.7698   -1.9439    0.1280 H         1 <0>         0.0000
     28 H5          3.1057   -6.3302    6.0947 H         1 <0>         0.0000
     29 H6          0.5141   -2.6303    5.4730 H         1 <0>         0.0000
     30 H7         -0.9980   -2.2481    6.2693 H         1 <0>         0.0000
     31 H8         -3.3496   -5.4401    4.4052 H         1 <0>         0.0000
     32 H9         -1.7068   -6.0107    4.0855 H         1 <0>         0.0000
     33 H10         5.4300   -6.4793    7.8930 H         1 <0>         0.0000
     34 H11         6.9838   -5.5430    8.1442 H         1 <0>         0.0000
     35 H12         7.1967   -5.2419    5.6265 H         1 <0>         0.0000
     36 H13         5.6488   -6.1847    5.3884 H         1 <0>         0.0000
     37 H14        -2.6538   -4.2521    6.4093 H         1 <0>         0.0000
     38 H15        -1.9136   -5.8678    6.5115 H         1 <0>         0.0000
     39 H16         5.9660   -3.5469    7.0124 H         1 <0>         0.0000
     40 H17        -3.0572   -4.1574    1.8996 H         1 <0>         0.0000
@<TRIPOS>BOND
     1    1    2 ar
     2    1    3 ar
     3    1   24 1
     4    2    4 ar
     5    2   25 1
     6    3    6 ar
     7    3   26 1
     8    4    8 ar
     9    4   27 1
    10    5    9 1
    11    5   11 2
    12    5   28 1
    13    6    7 1
    14    6    8 ar
    15    7   10 2
    16    7   13 1
    17    8   20 1
    18    9   12 1
    19    9   19 2
    20   10   14 1
    21   10   20 1
    22   11   18 1
    23   11   23 1
    24   12   21 am
    25   12   22 2
    26   13   21 1
    27   13   29 1
    28   13   30 1
    29   14   17 1
    30   14   31 1
    31   14   32 1
    32   15   16 1
    33   15   18 1
    34   15   33 1
    35   15   34 1
    36   16   18 1
    37   16   35 1
    38   16   36 1
    39   17   21 1
    40   17   37 1
    41   17   38 1
    42   18   39 1
    43   19   23 1
    44   20   40 1
