@<TRIPOS>MOLECULE
*****
   34    36     0     0     0
SMALL
NO_CHARGES

@<TRIPOS>ATOM
      1 C1         -1.7337    1.2064    0.7287 C.ar      1 <0>         0.0000
      2 C2         -1.2454    0.1337   -0.0293 C.ar      1 <0>         0.0000
      3 C3         -7.2476    0.3786    5.9636 C.ar      1 <0>         0.0000
      4 C4         -6.2621    0.3665    4.9746 C.ar      1 <0>         0.0000
      5 C5         -8.5995    0.4197    5.6096 C.ar      1 <0>         0.0000
      6 C6         -2.8261    1.0158    1.5681 C.ar      1 <0>         0.0000
      7 C7         -1.8601   -1.1110    0.0591 C.ar      1 <0>         0.0000
      8 C8         -7.9917    0.4814    3.2808 C.ar      1 <0>         0.0000
      9 C9         -6.6365    0.4112    3.6242 C.ar      1 <0>         0.0000
     10 C10        -8.9903    0.4741    4.2627 C.ar      1 <0>         0.0000
     11 C11        -3.4608   -0.2325    1.6578 C.ar      1 <0>         0.0000
     12 C12        -2.9757   -1.3089    0.8924 C.ar      1 <0>         0.0000
     13 C13        -5.6180    0.4997    2.5233 C.2       1 <0>         0.0000
     14 C14        -4.6900   -1.7316    3.1609 C.3       1 <0>         0.0000
     15 C15        -5.0261   -2.7699    2.0930 C.3       1 <0>         0.0000
     16 C16       -10.4498    0.5668    3.8812 C.3       1 <0>         0.0000
     17 N1         -4.5513   -0.3982    2.5685 N.am      1 <0>         0.0000
     18 O1         -5.7180    1.3658    1.6594 O.2       1 <0>         0.0000
     19 S1         -3.6626   -2.9512    0.8898 S.3       1 <0>         0.0000
     20 H1         -1.2621    2.1832    0.6694 H         1 <0>         0.0000
     21 H2         -0.3889    0.2661   -0.6848 H         1 <0>         0.0000
     22 H3         -6.9624    0.3551    7.0123 H         1 <0>         0.0000
     23 H4         -5.2103    0.3388    5.2474 H         1 <0>         0.0000
     24 H5         -9.3597    0.4170    6.3879 H         1 <0>         0.0000
     25 H6         -3.2125    1.8391    2.1585 H         1 <0>         0.0000
     26 H7         -1.4832   -1.9455   -0.5276 H         1 <0>         0.0000
     27 H8         -8.2595    0.5518    2.2295 H         1 <0>         0.0000
     28 H9         -5.4871   -1.7140    3.9008 H         1 <0>         0.0000
     29 H10        -3.7567   -1.9946    3.6684 H         1 <0>         0.0000
     30 H11        -5.1654   -3.7554    2.5461 H         1 <0>         0.0000
     31 H12        -5.9473   -2.4880    1.5764 H         1 <0>         0.0000
     32 H13       -10.7694    1.6141    3.8230 H         1 <0>         0.0000
     33 H14       -10.6376    0.1129    2.9040 H         1 <0>         0.0000
     34 H15       -11.0881    0.0688    4.6171 H         1 <0>         0.0000
@<TRIPOS>BOND
     1    1    2 ar
     2    1    6 ar
     3    1   20 1
     4    2    7 ar
     5    2   21 1
     6    3    4 ar
     7    3    5 ar
     8    3   22 1
     9    4    9 ar
    10    4   23 1
    11    5   10 ar
    12    5   24 1
    13    6   11 ar
    14    6   25 1
    15    7   12 ar
    16    7   26 1
    17    8    9 ar
    18    8   10 ar
    19    8   27 1
    20    9   13 1
    21   10   16 1
    22   11   12 ar
    23   11   17 1
    24   12   19 1
    25   13   17 am
    26   13   18 2
    27   14   15 1
    28   14   17 1
    29   14   28 1
    30   14   29 1
    31   15   19 1
    32   15   30 1
    33   15   31 1
    34   16   32 1
    35   16   33 1
    36   16   34 1
