@<TRIPOS>MOLECULE
*****
   40    44     0     0     0
SMALL
NO_CHARGES

@<TRIPOS>ATOM
      1 C1          0.5851    0.5406    1.7222 C.ar      1 <0>         0.0000
      2 C2         -0.0291    0.0798    0.5373 C.ar      1 <0>         0.0000
      3 C3          0.4457   -0.1541    2.9219 C.ar      1 <0>         0.0000
      4 C4         -0.7944   -1.0869    0.5266 C.ar      1 <0>         0.0000
      5 C5          2.7158   -4.9996    7.1087 C.2       1 <0>         0.0000
      6 C6         -0.3220   -1.3327    2.9417 C.ar      1 <0>         0.0000
      7 C7         -0.6730   -2.2878    3.9610 C.2       1 <0>         0.0000
      8 C8         -0.9314   -1.7822    1.7321 C.ar      1 <0>         0.0000
      9 C9          1.6112   -4.1131    6.9479 C.2       1 <0>         0.0000
     10 C10        -1.4579   -3.2495    3.3725 C.2       1 <0>         0.0000
     11 C11         3.7051   -4.2105    7.6240 C.2       1 <0>         0.0000
     12 C12         0.2513   -4.5584    6.4895 C.2       1 <0>         0.0000
     13 C13        -0.2806   -2.3320    5.4124 C.3       1 <0>         0.0000
     14 C14        -2.0450   -4.4247    4.0873 C.3       1 <0>         0.0000
     15 C15         6.1648   -3.4109    7.8281 C.3       1 <0>         0.0000
     16 C16         5.6974   -3.7451    9.2179 C.3       1 <0>         0.0000
     17 C17        -1.9595   -4.1371    5.5974 C.3       1 <0>         0.0000
     18 C18         5.0917   -4.4751    8.0252 C.3       1 <0>         0.0000
     19 N1          1.9010   -2.8872    7.3430 N.2       1 <0>         0.0000
     20 N2         -1.6146   -2.9547    2.0247 N.pl3     1 <0>         0.0000
     21 N3         -0.6261   -3.6504    5.9690 N.am      1 <0>         0.0000
     22 O1         -0.0345   -5.7515    6.6449 O.2       1 <0>         0.0000
     23 O2          3.2334   -2.9434    7.7724 O.3       1 <0>         0.0000
     24 H1          1.1755    1.4526    1.6936 H         1 <0>         0.0000
     25 H2          0.0970    0.6428   -0.3836 H         1 <0>         0.0000
     26 H3          0.9235    0.2106    3.8281 H         1 <0>         0.0000
     27 H4         -1.2638   -1.4393   -0.3889 H         1 <0>         0.0000
     28 H5          2.7361   -6.0558    6.8860 H         1 <0>         0.0000
     29 H6          0.7849   -2.1528    5.5362 H         1 <0>         0.0000
     30 H7         -0.7966   -1.5536    5.9913 H         1 <0>         0.0000
     31 H8         -3.0933   -4.5863    3.8060 H         1 <0>         0.0000
     32 H9         -1.4980   -5.3472    3.8560 H         1 <0>         0.0000
     33 H10         5.8441   -2.4668    7.4001 H         1 <0>         0.0000
     34 H11         7.1446   -3.7542    7.5105 H         1 <0>         0.0000
     35 H12         6.3529   -4.3204    9.8644 H         1 <0>         0.0000
     36 H13         5.0620   -3.0262    9.7246 H         1 <0>         0.0000
     37 H14        -2.6805   -3.3556    5.8621 H         1 <0>         0.0000
     38 H15        -2.1723   -5.0319    6.1792 H         1 <0>         0.0000
     39 H16         5.3906   -5.5077    7.8777 H         1 <0>         0.0000
     40 H17        -2.1575   -3.4972    1.3683 H         1 <0>         0.0000
@<TRIPOS>BOND
     1    1    2 ar
     2    1    3 ar
     3    1   24 1
     4    2    4 ar
     5    2   25 1
     6    3    6 ar
     7    3   26 1
     8    4    8 ar
     9    4   27 1
    10    5    9 1
    11    5   11 2
    12    5   28 1
    13    6    7 1
    14    6    8 ar
    15    7   10 2
    16    7   13 1
    17    8   20 1
    18    9   12 1
    19    9   19 2
    20   10   14 1
    21   10   20 1
    22   11   18 1
    23   11   23 1
    24   12   21 am
    25   12   22 2
    26   13   21 1
    27   13   29 1
    28   13   30 1
    29   14   17 1
    30   14   31 1
    31   14   32 1
    32   15   16 1
    33   15   18 1
    34   15   33 1
    35   15   34 1
    36   16   18 1
    37   16   35 1
    38   16   36 1
    39   17   21 1
    40   17   37 1
    41   17   38 1
    42   18   39 1
    43   19   23 1
    44   20   40 1
