@<TRIPOS>MOLECULE
*****
   25    26     0     0     0
SMALL
NO_CHARGES

@<TRIPOS>ATOM
      1 C1          0.3223   -1.8647   -3.2232 C.ar      1 <0>         0.0000
      2 C2          0.9590   -2.7650   -4.0795 C.ar      1 <0>         0.0000
      3 C3          0.2752   -1.4172   -5.9821 C.ar      1 <0>         0.0000
      4 C4         -0.3433   -0.7402   -3.7169 C.ar      1 <0>         0.0000
      5 C5         -0.3624   -0.5501   -5.1043 C.ar      1 <0>         0.0000
      6 C6          0.9368   -2.5274   -5.4543 C.ar      1 <0>         0.0000
      7 C7          2.8787    2.1024   -2.6940 C.3       1 <0>         0.0000
      8 C8          2.2042    3.4482   -2.4182 C.3       1 <0>         0.0000
      9 C9          0.7230    1.6815   -2.1567 C.3       1 <0>         0.0000
     10 C10        -0.6323    1.4702   -2.8163 C.3       1 <0>         0.0000
     11 O1          1.7661    1.2633   -3.0174 O.3       1 <0>         0.0000
     12 O2          0.9113    3.0773   -1.9112 O.3       1 <0>         0.0000
     13 O3         -1.0085    0.0830   -2.8409 O.3       1 <0>         0.0000
     14 F1         -1.0269    0.5156   -5.6194 F         1 <0>         0.0000
     15 Cl1         1.7460   -3.6397   -6.5457 Cl        1 <0>         0.0000
     16 H1          0.3352   -2.0200   -2.1487 H         1 <0>         0.0000
     17 H2          1.4732   -3.6342   -3.6833 H         1 <0>         0.0000
     18 H3          0.2372   -1.2266   -7.0493 H         1 <0>         0.0000
     19 H4          3.5597    2.1088   -3.5466 H         1 <0>         0.0000
     20 H5          3.4017    1.7215   -1.8057 H         1 <0>         0.0000
     21 H6          2.7244    4.0467   -1.6650 H         1 <0>         0.0000
     22 H7          2.0815    4.0371   -3.3345 H         1 <0>         0.0000
     23 H8          0.7801    1.1384   -1.1995 H         1 <0>         0.0000
     24 H9         -0.6242    1.9077   -3.8170 H         1 <0>         0.0000
     25 H10        -1.3946    1.9643   -2.2118 H         1 <0>         0.0000
@<TRIPOS>BOND
     1    1    2 ar
     2    1    4 ar
     3    1   16 1
     4    2    6 ar
     5    2   17 1
     6    3    5 ar
     7    3    6 ar
     8    3   18 1
     9    4    5 ar
    10    4   13 1
    11    5   14 1
    12    6   15 1
    13    7    8 1
    14    7   11 1
    15    7   19 1
    16    7   20 1
    17    8   12 1
    18    8   21 1
    19    8   22 1
    20    9   10 1
    21    9   12 1
    22    9   11 1
    23    9   23 1
    24   10   13 1
    25   10   24 1
    26   10   25 1
