@<TRIPOS>MOLECULE
*****
   27    29     0     0     0
SMALL
NO_CHARGES

@<TRIPOS>ATOM
      1 C1          0.2837    1.4433    1.9583 C.ar      1 <0>         0.0000
      2 C2         -0.1086    2.2442    3.0479 C.ar      1 <0>         0.0000
      3 C3         -0.1892    2.1165   -2.1021 C.2       1 <0>         0.0000
      4 C4         -0.4886    3.5094   -2.1155 C.2       1 <0>         0.0000
      5 C5         -1.6563   -0.0288    2.2467 C.ar      1 <0>         0.0000
      6 C6         -0.4686    0.3286    1.5721 C.ar      1 <0>         0.0000
      7 C7         -1.2844    1.8983    3.6862 C.ar      1 <0>         0.0000
      8 C8         -2.0388    0.7917    3.2888 C.ar      1 <0>         0.0000
      9 C9         -1.0622    1.4017   -1.3182 C.2       1 <0>         0.0000
     10 C10        -1.5806    3.8017   -1.3335 C.2       1 <0>         0.0000
     11 C11        -3.1513    1.8458    4.9218 C.3       1 <0>         0.0000
     12 N1         -0.0539   -0.4678    0.4574 N.pl3     1 <0>         0.0000
     13 O1         -0.1201   -0.9454   -2.0100 O.2       1 <0>         0.0000
     14 O2         -2.3122   -0.7932   -0.6724 O.2       1 <0>         0.0000
     15 O3         -1.8760    2.4953    4.7773 O.3       1 <0>         0.0000
     16 O4         -3.1292    0.6549    4.1170 O.3       1 <0>         0.0000
     17 S1         -2.2751    2.4017   -0.5740 S.3       1 <0>         0.0000
     18 S2         -0.9613   -0.3370   -0.9816 S.o2      1 <0>         0.0000
     19 Cl1        -2.2749    5.3642   -1.0825 Cl        1 <0>         0.0000
     20 H1          1.1786    1.7052    1.4001 H         1 <0>         0.0000
     21 H2          0.4762    3.1024    3.3622 H         1 <0>         0.0000
     22 H3          0.6178    1.6492   -2.6560 H         1 <0>         0.0000
     23 H4          0.0603    4.2562   -2.6777 H         1 <0>         0.0000
     24 H5         -2.2330   -0.8937    1.9414 H         1 <0>         0.0000
     25 H6         -3.3013    1.5723    5.9681 H         1 <0>         0.0000
     26 H7         -3.9423    2.5150    4.5583 H         1 <0>         0.0000
     27 H8          0.9321   -0.3640    0.2230 H         1 <0>         0.0000
@<TRIPOS>BOND
     1    1    2 ar
     2    1    6 ar
     3    1   20 1
     4    2    7 ar
     5    2   21 1
     6    3    4 1
     7    3    9 2
     8    3   22 1
     9    4   10 2
    10    4   23 1
    11    5    6 ar
    12    5    8 ar
    13    5   24 1
    14    6   12 1
    15    7    8 ar
    16    7   15 1
    17    8   16 1
    18    9   17 1
    19    9   18 1
    20   10   17 1
    21   10   19 1
    22   11   15 1
    23   11   16 1
    24   11   25 1
    25   11   26 1
    26   12   18 1
    27   12   27 1
    28   13   18 2
    29   14   18 2
