@<TRIPOS>MOLECULE
*****
   36    38     0     0     0
SMALL
NO_CHARGES

@<TRIPOS>ATOM
      1 C1         -1.2484    7.5658    2.4672 C.1       1 <0>         0.0000
      2 C2          0.0981    2.0382   -0.3051 C.ar      1 <0>         0.0000
      3 C3         -0.6138    0.8426   -0.0368 C.ar      1 <0>         0.0000
      4 C4         -0.5475    3.1376   -0.8346 C.ar      1 <0>         0.0000
      5 C5         -1.9641    0.7609   -0.3079 C.ar      1 <0>         0.0000
      6 C6         -4.0277    3.9892   -1.9142 C.ar      1 <0>         0.0000
      7 C7         -1.0632    7.0770    1.1529 C.2       1 <0>         0.0000
      8 C8         -1.9394    3.0827   -1.1210 C.ar      1 <0>         0.0000
      9 C9         -2.6853    4.1730   -1.6684 C.ar      1 <0>         0.0000
     10 C10        -2.6574    1.8720   -0.8561 C.ar      1 <0>         0.0000
     11 C11        -4.6571    2.7399   -1.6278 C.ar      1 <0>         0.0000
     12 C12         0.1290    7.0425    0.3615 C.2       1 <0>         0.0000
     13 C13        -2.0513    6.4827    0.3546 C.2       1 <0>         0.0000
     14 C14        -6.1272    2.5599   -1.9147 C.3       1 <0>         0.0000
     15 C15         1.4852    7.5436    0.7428 C.3       1 <0>         0.0000
     16 C16        -2.0403    5.5104   -1.9746 C.3       1 <0>         0.0000
     17 N1         -1.4269    7.9594    3.5533 N.1       1 <0>         0.0000
     18 N2         -3.9950    1.7232   -1.1108 N.ar      1 <0>         0.0000
     19 N3         -0.1027    6.4752   -0.8138 N.2       1 <0>         0.0000
     20 N4         -1.4450    6.1466   -0.8082 N.pl3     1 <0>         0.0000
     21 N5         -3.4056    6.3229    0.5846 N.pl3     1 <0>         0.0000
     22 H1          1.1620    2.0901   -0.0898 H         1 <0>         0.0000
     23 H2         -0.0903   -0.0124    0.3829 H         1 <0>         0.0000
     24 H3          0.0131    4.0467   -1.0248 H         1 <0>         0.0000
     25 H4         -2.5331   -0.1439   -0.1163 H         1 <0>         0.0000
     26 H5         -4.6247    4.7991   -2.3285 H         1 <0>         0.0000
     27 H6         -6.3337    2.6864   -2.9837 H         1 <0>         0.0000
     28 H7         -6.4453    1.5620   -1.6097 H         1 <0>         0.0000
     29 H8         -6.7279    3.3043   -1.3795 H         1 <0>         0.0000
     30 H9          1.8439    7.0469    1.6503 H         1 <0>         0.0000
     31 H10         2.1924    7.3558   -0.0675 H         1 <0>         0.0000
     32 H11         1.4599    8.6188    0.9483 H         1 <0>         0.0000
     33 H12        -1.2242    5.3988   -2.6915 H         1 <0>         0.0000
     34 H13        -2.7847    6.1843   -2.4113 H         1 <0>         0.0000
     35 H14        -3.7913    5.4423    0.2559 H         1 <0>         0.0000
     36 H15        -3.6601    6.5060    1.5505 H         1 <0>         0.0000
@<TRIPOS>BOND
     1    1    7 1
     2    1   17 3
     3    2    3 ar
     4    2    4 ar
     5    2   22 1
     6    3    5 ar
     7    3   23 1
     8    4    8 ar
     9    4   24 1
    10    5   10 ar
    11    5   25 1
    12    6    9 ar
    13    6   11 ar
    14    6   26 1
    15    7   12 1
    16    7   13 2
    17    8    9 ar
    18    8   10 ar
    19    9   16 1
    20   10   18 ar
    21   11   14 1
    22   11   18 ar
    23   12   15 1
    24   12   19 2
    25   13   20 1
    26   13   21 1
    27   14   27 1
    28   14   28 1
    29   14   29 1
    30   15   30 1
    31   15   31 1
    32   15   32 1
    33   16   20 1
    34   16   33 1
    35   16   34 1
    36   19   20 1
    37   21   35 1
    38   21   36 1
