@<TRIPOS>MOLECULE
*****
   19    19     0     0     0
SMALL
NO_CHARGES

@<TRIPOS>ATOM
      1 C1         -1.3056    3.2776    1.2973 C.2       1 <0>         0.0000
      2 C2         -1.5912    3.3529    2.6261 C.2       1 <0>         0.0000
      3 C3         -0.2259    1.7260    2.2685 C.2       1 <0>         0.0000
      4 C4          0.5656   -0.8488    0.2988 C.3       1 <0>         0.0000
      5 C5          2.4896    0.6988    0.6257 C.3       1 <0>         0.0000
      6 N1         -0.4210    2.2196    1.0842 N.2       1 <0>         0.0000
      7 N2          1.4611   -0.1559    1.2373 N.pl3     1 <0>         0.0000
      8 O1          1.9130    0.8541    3.5104 O.2       1 <0>         0.0000
      9 O2         -0.0588   -0.7297    3.1741 O.2       1 <0>         0.0000
     10 O3         -0.8974    2.3523    3.2659 O.3       1 <0>         0.0000
     11 S1          0.8313    0.3198    2.6905 S.o2      1 <0>         0.0000
     12 H1         -1.6630    3.8950    0.4849 H         1 <0>         0.0000
     13 H2         -2.2056    3.9878    3.2466 H         1 <0>         0.0000
     14 H3         -0.1314   -1.4750    0.8547 H         1 <0>         0.0000
     15 H4          1.1821   -1.4937   -0.3336 H         1 <0>         0.0000
     16 H5          0.0144   -0.1379   -0.3274 H         1 <0>         0.0000
     17 H6          3.1085    1.1401    1.4062 H         1 <0>         0.0000
     18 H7          2.0406    1.4881    0.0117 H         1 <0>         0.0000
     19 H8          3.1222    0.0623    0.0007 H         1 <0>         0.0000
@<TRIPOS>BOND
     1    1    2 2
     2    1    6 1
     3    1   12 1
     4    2   10 1
     5    2   13 1
     6    3    6 2
     7    3   10 1
     8    3   11 1
     9    4    7 1
    10    4   14 1
    11    4   15 1
    12    4   16 1
    13    5    7 1
    14    5   17 1
    15    5   18 1
    16    5   19 1
    17    7   11 1
    18    8   11 2
    19    9   11 2
