@<TRIPOS>MOLECULE
*****
   40    43     0     0     0
SMALL
NO_CHARGES

@<TRIPOS>ATOM
      1 C1          0.3519    2.4217    2.8948 C.ar      1 <0>         0.0000
      2 C2          0.4012    1.1862    2.2582 C.ar      1 <0>         0.0000
      3 C3          2.0602    0.4638    3.8659 C.ar      1 <0>         0.0000
      4 C4          1.0052    6.1548    4.9961 C.2       1 <0>         0.0000
      5 C5          0.7972    5.2131    4.0178 C.2       1 <0>         0.0000
      6 C6          1.1697    2.7152    3.9912 C.ar      1 <0>         0.0000
      7 C7          1.2721    0.1896    2.7372 C.ar      1 <0>         0.0000
      8 C8          2.0238    1.7147    4.4908 C.ar      1 <0>         0.0000
      9 C9          1.5735    4.2767    5.8739 C.2       1 <0>         0.0000
     10 C10         0.5039   -1.5982    1.1781 C.2       1 <0>         0.0000
     11 C11         4.3835   -5.2298    2.3994 C.2       1 <0>         0.0000
     12 C12         2.0202    3.1844    6.7820 C.3       1 <0>         0.0000
     13 C13         2.3207   -2.0870    2.5842 C.3       1 <0>         0.0000
     14 C14         2.1331   -3.1973    1.5397 C.3       1 <0>         0.0000
     15 C15         5.4572   -5.7129    3.3576 C.3       1 <0>         0.0000
     16 C16         2.0093   -4.6033    2.1253 C.3       1 <0>         0.0000
     17 N1          1.4906    5.5626    6.1489 N.2       1 <0>         0.0000
     18 N2          1.1629    3.9978    4.5869 N.pl3     1 <0>         0.0000
     19 N3          1.3779   -1.0762    2.1237 N.am      1 <0>         0.0000
     20 N4          3.1587   -4.9512    2.9555 N.am      1 <0>         0.0000
     21 O1         -0.4601   -1.0714    0.6687 O.2       1 <0>         0.0000
     22 O2          4.5929   -5.0822    1.1972 O.2       1 <0>         0.0000
     23 O3          0.8920   -2.8738    0.8754 O.3       1 <0>         0.0000
     24 S1          3.1059    2.0128    5.8716 S.3       1 <0>         0.0000
     25 H1         -0.3423    3.1722    2.5300 H         1 <0>         0.0000
     26 H2         -0.2400    0.9843    1.4121 H         1 <0>         0.0000
     27 H3          2.7127   -0.2938    4.2842 H         1 <0>         0.0000
     28 H4          0.8453    7.2233    4.9348 H         1 <0>         0.0000
     29 H5          0.4755    5.2949    2.9908 H         1 <0>         0.0000
     30 H6          2.6054    3.6088    7.5984 H         1 <0>         0.0000
     31 H7          1.1753    2.6277    7.2008 H         1 <0>         0.0000
     32 H8          2.0701   -2.4275    3.5982 H         1 <0>         0.0000
     33 H9          3.3449   -1.7065    2.5916 H         1 <0>         0.0000
     34 H10         2.9293   -3.1769    0.7936 H         1 <0>         0.0000
     35 H11         5.7845   -6.7069    3.0409 H         1 <0>         0.0000
     36 H12         6.3197   -5.0457    3.2835 H         1 <0>         0.0000
     37 H13         5.1302   -5.7600    4.4001 H         1 <0>         0.0000
     38 H14         1.9069   -5.3208    1.3060 H         1 <0>         0.0000
     39 H15         1.1093   -4.6525    2.7440 H         1 <0>         0.0000
     40 H16         3.0021   -5.1769    3.9276 H         1 <0>         0.0000
@<TRIPOS>BOND
     1    1    2 ar
     2    1    6 ar
     3    1   25 1
     4    2    7 ar
     5    2   26 1
     6    3    7 ar
     7    3    8 ar
     8    3   27 1
     9    4    5 2
    10    4   17 1
    11    4   28 1
    12    5   18 1
    13    5   29 1
    14    6    8 ar
    15    6   18 1
    16    7   19 1
    17    8   24 1
    18    9   12 1
    19    9   17 2
    20    9   18 1
    21   10   19 am
    22   10   21 2
    23   10   23 1
    24   11   15 1
    25   11   20 am
    26   11   22 2
    27   12   24 1
    28   12   30 1
    29   12   31 1
    30   13   14 1
    31   13   19 1
    32   13   32 1
    33   13   33 1
    34   14   16 1
    35   14   23 1
    36   14   34 1
    37   15   35 1
    38   15   36 1
    39   15   37 1
    40   16   20 1
    41   16   38 1
    42   16   39 1
    43   20   40 1
