@<TRIPOS>MOLECULE
*****
   42    42     0     0     0
SMALL
NO_CHARGES

@<TRIPOS>ATOM
      1 C1         -0.2467   -2.4375    3.5495 C.1       1 <0>         0.0000
      2 C2          3.2074    3.1836    0.3614 C.ar      1 <0>         0.0000
      3 C3          1.8310    3.3982    0.2675 C.ar      1 <0>         0.0000
      4 C4          3.7020    2.1764    1.1902 C.ar      1 <0>         0.0000
      5 C5          0.9287    2.6125    0.9952 C.ar      1 <0>         0.0000
      6 C6          2.8319    1.3657    1.9321 C.ar      1 <0>         0.0000
      7 C7          1.4484    1.5958    1.8221 C.ar      1 <0>         0.0000
      8 C8         -1.0101   -3.1650    4.3288 C.2       1 <0>         0.0000
      9 C9          0.4999   -1.6895    2.7726 C.2       1 <0>         0.0000
     10 C10         0.0404    1.1600    3.7926 C.2       1 <0>         0.0000
     11 C11        -0.5541    2.8826    0.9182 C.3       1 <0>         0.0000
     12 C12         3.3940    0.2779    2.8164 C.3       1 <0>         0.0000
     13 C13         0.3073   -0.6368    0.5139 C.3       1 <0>         0.0000
     14 C14        -1.4697    2.8035    6.3317 C.3       1 <0>         0.0000
     15 C15         0.6915    2.3665    4.4611 C.3       1 <0>         0.0000
     16 C16        -0.0220   -0.4883    2.0006 C.3       1 <0>         0.0000
     17 N1          0.5254    0.7818    2.5713 N.am      1 <0>         0.0000
     18 O1         -0.8417    0.5342    4.3838 O.2       1 <0>         0.0000
     19 O2          0.2977    4.6795    5.6690 O.2       1 <0>         0.0000
     20 O3         -1.4119    3.9408    3.9247 O.2       1 <0>         0.0000
     21 S1         -0.5080    3.6177    5.0429 S.o2      1 <0>         0.0000
     22 H1          3.8942    3.8059   -0.2064 H         1 <0>         0.0000
     23 H2          1.4482    4.1894   -0.3722 H         1 <0>         0.0000
     24 H3          4.7746    2.0170    1.2701 H         1 <0>         0.0000
     25 H4         -1.1251   -2.9187    5.3827 H         1 <0>         0.0000
     26 H5         -1.5551   -4.0268    3.9479 H         1 <0>         0.0000
     27 H6          1.5514   -1.9399    2.6373 H         1 <0>         0.0000
     28 H7         -1.1347    1.9627    0.8071 H         1 <0>         0.0000
     29 H8         -0.9150    3.3743    1.8272 H         1 <0>         0.0000
     30 H9         -0.7810    3.5331    0.0697 H         1 <0>         0.0000
     31 H10         4.4051    0.5323    3.1452 H         1 <0>         0.0000
     32 H11         2.7765    0.1013    3.6996 H         1 <0>         0.0000
     33 H12         3.4594   -0.6731    2.2747 H         1 <0>         0.0000
     34 H13         1.3854   -0.7048    0.3422 H         1 <0>         0.0000
     35 H14        -0.1522   -1.5609    0.1530 H         1 <0>         0.0000
     36 H15        -0.0779    0.1944   -0.0801 H         1 <0>         0.0000
     37 H16        -2.1881    3.5537    6.6683 H         1 <0>         0.0000
     38 H17        -1.9585    1.9309    5.9024 H         1 <0>         0.0000
     39 H18        -0.7962    2.5265    7.1440 H         1 <0>         0.0000
     40 H19         1.3680    2.9386    3.8262 H         1 <0>         0.0000
     41 H20         1.2379    2.0306    5.3464 H         1 <0>         0.0000
     42 H21        -1.1040   -0.4446    2.1379 H         1 <0>         0.0000
@<TRIPOS>BOND
     1    1    8 2
     2    1    9 2
     3    2    4 ar
     4    2    3 ar
     5    2   22 1
     6    3    5 ar
     7    3   23 1
     8    4    6 ar
     9    4   24 1
    10    5    7 ar
    11    5   11 1
    12    6    7 ar
    13    6   12 1
    14    7   17 1
    15    8   25 1
    16    8   26 1
    17    9   16 1
    18    9   27 1
    19   10   15 1
    20   10   17 am
    21   10   18 2
    22   11   28 1
    23   11   29 1
    24   11   30 1
    25   12   31 1
    26   12   32 1
    27   12   33 1
    28   13   16 1
    29   13   34 1
    30   13   35 1
    31   13   36 1
    32   14   21 1
    33   14   37 1
    34   14   38 1
    35   14   39 1
    36   15   21 1
    37   15   40 1
    38   15   41 1
    39   16   17 1
    40   16   42 1
    41   19   21 2
    42   20   21 2
