@<TRIPOS>MOLECULE
*****
   49    50     0     0     0
SMALL
NO_CHARGES

@<TRIPOS>ATOM
      1 C1          3.6218    5.9338    3.4655 C.ar      1 <0>         0.0000
      2 C2          1.2467    6.3052    3.7424 C.ar      1 <0>         0.0000
      3 C3          3.3660    4.8764    2.5919 C.ar      1 <0>         0.0000
      4 C4          0.9791    5.2550    2.8745 C.ar      1 <0>         0.0000
      5 C5          2.5743    6.6574    4.0473 C.ar      1 <0>         0.0000
      6 C6          2.0377    4.5366    2.2936 C.ar      1 <0>         0.0000
      7 C7         -1.8916    3.7198   -2.5811 C.2       1 <0>         0.0000
      8 C8         -0.5917    3.5238   -2.1638 C.2       1 <0>         0.0000
      9 C9         -1.9483    4.8266   -3.4994 C.2       1 <0>         0.0000
     10 C10         2.9138    7.7726    4.9679 C.2       1 <0>         0.0000
     11 C11        -0.0599    2.5171   -1.2181 C.2       1 <0>         0.0000
     12 C12         2.2864   -0.0516   -1.8661 C.3       1 <0>         0.0000
     13 C13        -0.0621    8.9414    7.6307 C.3       1 <0>         0.0000
     14 C14         0.9329   11.2736    7.7047 C.3       1 <0>         0.0000
     15 C15         2.9821    0.9209   -0.9082 C.3       1 <0>         0.0000
     16 C16         2.0569    9.4932    6.3647 C.3       1 <0>         0.0000
     17 C17         2.6926    2.8035    0.7682 C.3       1 <0>         0.0000
     18 C18         0.7105   10.0153    6.8536 C.3       1 <0>         0.0000
     19 C19         2.0029    1.8303   -0.1718 C.3       1 <0>         0.0000
     20 N1         -0.8185    5.4314   -3.7704 N.2       1 <0>         0.0000
     21 O1          4.0518    8.1061    5.2583 O.2       1 <0>         0.0000
     22 O2         -0.7295    1.7093   -0.6111 O.2       1 <0>         0.0000
     23 O3          1.6722    3.5222    1.4551 O.3       1 <0>         0.0000
     24 O4          1.8126    8.3904    5.4584 O.3       1 <0>         0.0000
     25 O5          1.2889    2.6390   -1.1493 O.3       1 <0>         0.0000
     26 S1          0.4246    4.7021   -2.9257 S.3       1 <0>         0.0000
     27 Cl1        -3.2679    2.8060   -2.1061 Cl        1 <0>         0.0000
     28 Cl2        -3.4189    5.3687   -4.2348 Cl        1 <0>         0.0000
     29 H1          4.6430    6.2109    3.7080 H         1 <0>         0.0000
     30 H2          0.4296    6.8618    4.1881 H         1 <0>         0.0000
     31 H3          4.1969    4.3313    2.1587 H         1 <0>         0.0000
     32 H4         -0.0393    4.9702    2.6272 H         1 <0>         0.0000
     33 H5          1.7519    0.4865   -2.6542 H         1 <0>         0.0000
     34 H6          3.0178   -0.7079   -2.3468 H         1 <0>         0.0000
     35 H7          1.5621   -0.6787   -1.3366 H         1 <0>         0.0000
     36 H8          0.4874    8.6443    8.5325 H         1 <0>         0.0000
     37 H9         -0.2198    8.0463    7.0225 H         1 <0>         0.0000
     38 H10        -1.0415    9.3173    7.9453 H         1 <0>         0.0000
     39 H11         1.5332   11.0467    8.5940 H         1 <0>         0.0000
     40 H12        -0.0232   11.6826    8.0467 H         1 <0>         0.0000
     41 H13         1.4507   12.0574    7.1408 H         1 <0>         0.0000
     42 H14         3.5477    0.3608   -0.1539 H         1 <0>         0.0000
     43 H15         3.7049    1.5378   -1.4557 H         1 <0>         0.0000
     44 H16         2.6205   10.2646    5.8312 H         1 <0>         0.0000
     45 H17         2.6757    9.1382    7.1954 H         1 <0>         0.0000
     46 H18         3.3175    2.2470    1.4787 H         1 <0>         0.0000
     47 H19         3.3283    3.4918    0.1974 H         1 <0>         0.0000
     48 H20         0.1251   10.2945    5.9678 H         1 <0>         0.0000
     49 H21         1.2654    1.2445    0.3802 H         1 <0>         0.0000
@<TRIPOS>BOND
     1    1    3 ar
     2    1    5 ar
     3    1   29 1
     4    2    4 ar
     5    2    5 ar
     6    2   30 1
     7    3    6 ar
     8    3   31 1
     9    4    6 ar
    10    4   32 1
    11    5   10 1
    12    6   23 1
    13    7    8 2
    14    7    9 1
    15    7   27 1
    16    8   11 1
    17    8   26 1
    18    9   20 2
    19    9   28 1
    20   10   21 2
    21   10   24 1
    22   11   22 2
    23   11   25 1
    24   12   15 1
    25   12   33 1
    26   12   34 1
    27   12   35 1
    28   13   18 1
    29   13   36 1
    30   13   37 1
    31   13   38 1
    32   14   18 1
    33   14   39 1
    34   14   40 1
    35   14   41 1
    36   15   19 1
    37   15   42 1
    38   15   43 1
    39   16   18 1
    40   16   24 1
    41   16   44 1
    42   16   45 1
    43   17   19 1
    44   17   23 1
    45   17   46 1
    46   17   47 1
    47   18   48 1
    48   19   25 1
    49   19   49 1
    50   20   26 1
