@<TRIPOS>MOLECULE
*****
   21    22     0     0     0
SMALL
NO_CHARGES

@<TRIPOS>ATOM
      1 C1          1.8851   -1.0363   -0.1124 C.ar      1 <0>         0.0000
      2 C2          0.8066   -0.4630    0.5610 C.ar      1 <0>         0.0000
      3 C3          2.9210   -1.6309    0.6081 C.ar      1 <0>         0.0000
      4 C4          0.7638   -0.4841    1.9551 C.ar      1 <0>         0.0000
      5 C5          1.7997   -1.0786    2.6757 C.ar      1 <0>         0.0000
      6 C6          2.8783   -1.6520    2.0022 C.ar      1 <0>         0.0000
      7 C7         -0.3638    0.1141    2.6522 C.2       1 <0>         0.0000
      8 C8         -2.8549   -0.4962    2.6616 C.3       1 <0>         0.0000
      9 C9         -2.2378   -1.1966    1.4887 C.3       1 <0>         0.0000
     10 C10        -1.6928    0.1077    1.9544 C.3       1 <0>         0.0000
     11 O1         -0.3098    0.6301    3.7704 O.2       1 <0>         0.0000
     12 F1          1.7521   -1.0952    4.0167 F         1 <0>         0.0000
     13 Br1         4.2862   -2.4641    2.9688 Br        1 <0>         0.0000
     14 H1          1.9197   -1.0190   -1.1979 H         1 <0>         0.0000
     15 H2          0.0041   -0.0042   -0.0109 H         1 <0>         0.0000
     16 H3          3.7533   -2.0743    0.0675 H         1 <0>         0.0000
     17 H4         -3.8168   -0.0198    2.5159 H         1 <0>         0.0000
     18 H5         -2.7194   -0.9401    3.6404 H         1 <0>         0.0000
     19 H6         -1.6863   -2.1091    1.6800 H         1 <0>         0.0000
     20 H7         -2.7838   -1.1914    0.5532 H         1 <0>         0.0000
     21 H8         -1.8513    0.9790    1.3519 H         1 <0>         0.0000
@<TRIPOS>BOND
     1    1    2 ar
     2    1    3 ar
     3    1   14 1
     4    2    4 ar
     5    2   15 1
     6    3    6 ar
     7    3   16 1
     8    4    5 ar
     9    4    7 1
    10    5    6 ar
    11    5   12 1
    12    6   13 1
    13    7   10 1
    14    7   11 2
    15    8    9 1
    16    8   10 1
    17    8   17 1
    18    8   18 1
    19    9   10 1
    20    9   19 1
    21    9   20 1
    22   10   21 1
