@<TRIPOS>MOLECULE
*****
   26    26     0     0     0
SMALL
NO_CHARGES

@<TRIPOS>ATOM
      1 C1          7.0830   -2.4000   -0.2770 C.ar      1 <0>         0.0000
      2 C2          6.5970   -1.7430    0.8480 C.ar      1 <0>         0.0000
      3 C3          6.4810   -2.1940   -1.5120 C.ar      1 <0>         0.0000
      4 C4          5.5090   -0.8820    0.7380 C.ar      1 <0>         0.0000
      5 C5          5.3930   -1.3330   -1.6230 C.ar      1 <0>         0.0000
      6 C6          4.8930   -0.6690   -0.4990 C.ar      1 <0>         0.0000
      7 C7          2.5050   -0.5780   -1.1730 C.2       1 <0>         0.0000
      8 C8          0.8140   -2.3070   -0.6530 C.3       1 <0>         0.0000
      9 C9          2.3790    1.9490    0.6450 C.3       1 <0>         0.0000
     10 C10         3.6900    0.2630   -0.6710 C.3       1 <0>         0.0000
     11 N1          1.9290   -1.4300   -0.3130 N.am      1 <0>         0.0000
     12 O1          2.0850   -0.4820   -2.3250 O.2       1 <0>         0.0000
     13 O2          3.3480    0.8680    0.6520 O.3       1 <0>         0.0000
     14 H1          7.9110   -3.0560   -0.1920 H         1 <0>         0.0000
     15 H2          7.0560   -1.8970    1.7910 H         1 <0>         0.0000
     16 H3          6.8490   -2.6940   -2.3710 H         1 <0>         0.0000
     17 H4          5.1550   -0.3880    1.6070 H         1 <0>         0.0000
     18 H5          4.9410   -1.1870   -2.5720 H         1 <0>         0.0000
     19 H6          0.5680   -2.9500    0.1930 H         1 <0>         0.0000
     20 H7          1.0820   -2.9290   -1.5090 H         1 <0>         0.0000
     21 H8         -0.0600   -1.7080   -0.9160 H         1 <0>         0.0000
     22 H9          2.2600    2.2980    1.6720 H         1 <0>         0.0000
     23 H10         1.4290    1.5690    0.2640 H         1 <0>         0.0000
     24 H11         2.7580    2.7540    0.0150 H         1 <0>         0.0000
     25 H12         3.9260    1.0260   -1.4000 H         1 <0>         0.0000
     26 H13         2.3130   -1.4560    0.6210 H         1 <0>         0.0000
@<TRIPOS>BOND
     1    1    2 ar
     2    1    3 ar
     3    1   14 1
     4    2    4 ar
     5    2   15 1
     6    3    5 ar
     7    3   16 1
     8    4    6 ar
     9    4   17 1
    10    5    6 ar
    11    5   18 1
    12    6   10 1
    13    7   10 1
    14    7   11 am
    15    7   12 2
    16    8   11 1
    17    8   19 1
    18    8   20 1
    19    8   21 1
    20    9   13 1
    21    9   22 1
    22    9   23 1
    23    9   24 1
    24   10   13 1
    25   10   25 1
    26   11   26 1
