@<TRIPOS>MOLECULE
*****
   27    28     0     0     0
SMALL
NO_CHARGES

@<TRIPOS>ATOM
      1 C1          1.3645    0.5297   -1.9274 C.2       1 <0>         0.0000
      2 C2          0.3515    0.5793   -5.6162 C.3       1 <0>         0.0000
      3 C3          0.1195   -0.6929   -4.8548 C.3       1 <0>         0.0000
      4 C4          0.5083    1.8098    1.4911 C.3       1 <0>         0.0000
      5 C5         -1.4191    0.5122    1.1636 C.3       1 <0>         0.0000
      6 C6          1.1803    0.2709   -4.3999 C.3       1 <0>         0.0000
      7 C7         -0.9898    1.8653    1.6546 C.3       1 <0>         0.0000
      8 C8          1.1040    1.5441   -0.8433 C.3       1 <0>         0.0000
      9 N1          0.7713    0.8563    0.4017 N.3       1 <0>         0.0000
     10 N2          1.0302    1.0285   -3.1783 N.am      1 <0>         0.0000
     11 O1          1.8184   -0.5906   -1.7097 O.2       1 <0>         0.0000
     12 O2         -0.5084    0.1982    0.1094 O.3       1 <0>         0.0000
     13 O3         -1.5188    2.8868    0.8179 O.3       1 <0>         0.0000
     14 H1          0.8311    0.5077   -6.5847 H         1 <0>         0.0000
     15 H2         -0.4035    1.3526   -5.5448 H         1 <0>         0.0000
     16 H3         -0.7905   -0.7720   -4.2726 H         1 <0>         0.0000
     17 H4          0.4431   -1.6205   -5.3108 H         1 <0>         0.0000
     18 H5          0.9601    2.7940    1.3222 H         1 <0>         0.0000
     19 H6          0.9597    1.3923    2.3986 H         1 <0>         0.0000
     20 H7         -1.3202   -0.2555    1.9385 H         1 <0>         0.0000
     21 H8         -2.4374    0.5004    0.7650 H         1 <0>         0.0000
     22 H9          2.2100   -0.0223   -4.5741 H         1 <0>         0.0000
     23 H10        -1.3042    2.0666    2.6826 H         1 <0>         0.0000
     24 H11         1.9975    2.1562   -0.6890 H         1 <0>         0.0000
     25 H12         0.2687    2.1889   -1.1317 H         1 <0>         0.0000
     26 H13         0.6616    1.9732   -3.2385 H         1 <0>         0.0000
     27 H14        -2.4799    2.8884    0.9532 H         1 <0>         0.0000
@<TRIPOS>BOND
     1    1    8 1
     2    1   10 am
     3    1   11 2
     4    2    3 1
     5    2    6 1
     6    2   14 1
     7    2   15 1
     8    3    6 1
     9    3   16 1
    10    3   17 1
    11    4    7 1
    12    4    9 1
    13    4   18 1
    14    4   19 1
    15    5    7 1
    16    5   12 1
    17    5   20 1
    18    5   21 1
    19    6   10 1
    20    6   22 1
    21    7   13 1
    22    7   23 1
    23    8    9 1
    24    8   24 1
    25    8   25 1
    26    9   12 1
    27   10   26 1
    28   13   27 1
