@<TRIPOS>MOLECULE
*****
   18    18     0     0     0
SMALL
NO_CHARGES

@<TRIPOS>ATOM
      1 C1          1.5747    0.5818    1.7206 C.2       1 <0>         0.0000
      2 C2         -0.5806    0.7976    0.4601 C.3       1 <0>         0.0000
      3 C3          0.0688   -0.8327   -1.1429 C.3       1 <0>         0.0000
      4 C4          0.9402    0.7254    0.3772 C.3       1 <0>         0.0000
      5 C5         -1.0522   -0.4906   -0.1889 C.3       1 <0>         0.0000
      6 N1          1.2575   -0.4946   -0.3672 N.3       1 <0>         0.0000
      7 N2          1.9404    1.7777    2.2918 N.am      1 <0>         0.0000
      8 O1          1.7303   -0.5133    2.2553 O.2       1 <0>         0.0000
      9 F1         -2.2083   -0.2869   -0.8588 F         1 <0>         0.0000
     10 H1         -0.9664    0.8868    1.4809 H         1 <0>         0.0000
     11 H2         -0.9539    1.6561   -0.1111 H         1 <0>         0.0000
     12 H3          0.0547   -1.8868   -1.4356 H         1 <0>         0.0000
     13 H4          0.0132   -0.2312   -2.0574 H         1 <0>         0.0000
     14 H5          1.3577    1.5985   -0.1132 H         1 <0>         0.0000
     15 H6         -1.2068   -1.2787    0.5572 H         1 <0>         0.0000
     16 H7          2.0160   -0.3066   -1.0246 H         1 <0>         0.0000
     17 H8          1.7607    2.6362    1.7816 H         1 <0>         0.0000
     18 H9          2.3828    1.8363    3.2033 H         1 <0>         0.0000
@<TRIPOS>BOND
     1    1    4 1
     2    1    7 am
     3    1    8 2
     4    2    4 1
     5    2    5 1
     6    2   10 1
     7    2   11 1
     8    3    5 1
     9    3    6 1
    10    3   12 1
    11    3   13 1
    12    4    6 1
    13    4   14 1
    14    5    9 1
    15    5   15 1
    16    6   16 1
    17    7   17 1
    18    7   18 1
