@<TRIPOS>MOLECULE
*****
   35    38     0     0     0
SMALL
NO_CHARGES

@<TRIPOS>ATOM
      1 C1         -5.7237   -2.6334    3.4151 C.ar      1 <0>         0.0000
      2 C2         -7.3207    5.7456    4.9711 C.ar      1 <0>         0.0000
      3 C3         -4.9657   -3.1892    2.3864 C.ar      1 <0>         0.0000
      4 C4         -7.3812    6.4317    6.1825 C.ar      1 <0>         0.0000
      5 C5         -5.4450   -1.3493    3.8971 C.ar      1 <0>         0.0000
      6 C6         -6.2559    4.8820    4.6895 C.ar      1 <0>         0.0000
      7 C7         -3.9078   -2.4822    1.8076 C.ar      1 <0>         0.0000
      8 C8         -6.3831    6.2776    7.1488 C.ar      1 <0>         0.0000
      9 C9         -2.7865    0.8475    2.6860 C.2       1 <0>         0.0000
     10 C10        -3.4402    4.1800    6.9121 C.2       1 <0>         0.0000
     11 C11        -4.3832   -0.6175    3.3291 C.ar      1 <0>         0.0000
     12 C12        -5.2377    4.7107    5.6484 C.ar      1 <0>         0.0000
     13 C13        -3.8331    0.6740    3.5620 C.2       1 <0>         0.0000
     14 C14        -4.0438    3.9381    5.6997 C.2       1 <0>         0.0000
     15 C15        -3.6407   -1.1997    2.2996 C.ar      1 <0>         0.0000
     16 C16        -5.3246    5.4111    6.8535 C.ar      1 <0>         0.0000
     17 C17        -4.2534    1.6563    4.5207 C.2       1 <0>         0.0000
     18 C18        -3.5224    3.0171    4.6239 C.3       1 <0>         0.0000
     19 N1         -2.6783   -0.2878    1.9285 N.pl3     1 <0>         0.0000
     20 N2         -4.2203    5.0695    7.6011 N.pl3     1 <0>         0.0000
     21 O1         -5.2183    1.4407    5.2987 O.2       1 <0>         0.0000
     22 H1         -6.5420   -3.2028    3.8487 H         1 <0>         0.0000
     23 H2         -8.1091    5.8813    4.2357 H         1 <0>         0.0000
     24 H3         -5.1993   -4.1884    2.0276 H         1 <0>         0.0000
     25 H4         -8.2174    7.0975    6.3803 H         1 <0>         0.0000
     26 H5         -6.0454   -0.9300    4.6992 H         1 <0>         0.0000
     27 H6         -6.2235    4.3536    3.7409 H         1 <0>         0.0000
     28 H7         -3.3185   -2.9163    1.0071 H         1 <0>         0.0000
     29 H8         -6.4305    6.8129    8.0910 H         1 <0>         0.0000
     30 H9         -2.1077    1.6750    2.5313 H         1 <0>         0.0000
     31 H10        -2.5269    3.7987    7.3477 H         1 <0>         0.0000
     32 H11        -3.6068    3.5232    3.6549 H         1 <0>         0.0000
     33 H12        -2.4604    2.8196    4.8118 H         1 <0>         0.0000
     34 H13        -1.9913   -0.4357    1.2023 H         1 <0>         0.0000
     35 H14        -4.0156    5.4246    8.5250 H         1 <0>         0.0000
@<TRIPOS>BOND
     1    1    3 ar
     2    1    5 ar
     3    1   22 1
     4    2    4 ar
     5    2    6 ar
     6    2   23 1
     7    3    7 ar
     8    3   24 1
     9    4    8 ar
    10    4   25 1
    11    5   11 ar
    12    5   26 1
    13    6   12 ar
    14    6   27 1
    15    7   15 ar
    16    7   28 1
    17    8   16 ar
    18    8   29 1
    19    9   13 2
    20    9   19 1
    21    9   30 1
    22   10   14 2
    23   10   20 1
    24   10   31 1
    25   11   13 1
    26   11   15 ar
    27   12   14 1
    28   12   16 ar
    29   13   17 1
    30   14   18 1
    31   15   19 1
    32   16   20 1
    33   17   18 1
    34   17   21 2
    35   18   32 1
    36   18   33 1
    37   19   34 1
    38   20   35 1
