@<TRIPOS>MOLECULE
*****
   18    19     0     0     0
SMALL
NO_CHARGES

@<TRIPOS>ATOM
      1 C1          1.3879   -0.0684    1.6522 C.ar      1 <0>         0.0000
      2 C2          0.2265   -0.4197    0.9733 C.ar      1 <0>         0.0000
      3 C3          1.6520   -0.6227    2.8997 C.ar      1 <0>         0.0000
      4 C4         -0.6317   -1.3224    1.5803 C.ar      1 <0>         0.0000
      5 C5          0.7299   -1.5161    3.4206 C.ar      1 <0>         0.0000
      6 C6          1.2380   -1.2198    5.9371 C.3       1 <0>         0.0000
      7 C7         -0.0447   -1.9851    5.8401 C.3       1 <0>         0.0000
      8 C8          0.9930   -2.1236    4.7576 C.3       1 <0>         0.0000
      9 N1         -0.4092   -1.8816    2.7908 N.ar      1 <0>         0.0000
     10 H1          2.0851    0.6372    1.2104 H         1 <0>         0.0000
     11 H2          0.0010    0.0011    0.0002 H         1 <0>         0.0000
     12 H3          2.5554   -0.3560    3.4379 H         1 <0>         0.0000
     13 H4         -1.5501   -1.6305    1.0915 H         1 <0>         0.0000
     14 H5          1.1947   -0.1461    5.7976 H         1 <0>         0.0000
     15 H6          1.9653   -1.5440    6.6718 H         1 <0>         0.0000
     16 H7         -0.1816   -2.8267    6.5090 H         1 <0>         0.0000
     17 H8         -0.9501   -1.4259    5.6376 H         1 <0>         0.0000
     18 H9          1.5490   -3.0518    4.7388 H         1 <0>         0.0000
@<TRIPOS>BOND
     1    1    2 ar
     2    1    3 ar
     3    1   10 1
     4    2    4 ar
     5    2   11 1
     6    3    5 ar
     7    3   12 1
     8    4    9 ar
     9    4   13 1
    10    5    8 1
    11    5    9 ar
    12    6    7 1
    13    6    8 1
    14    6   14 1
    15    6   15 1
    16    7    8 1
    17    7   16 1
    18    7   17 1
    19    8   18 1
