@<TRIPOS>MOLECULE
*****
   27    29     0     0     0
SMALL
NO_CHARGES

@<TRIPOS>ATOM
      1 C1         -1.3043    0.6392   -1.4531 C.ar      1 <0>         0.0000
      2 C2         -0.7831   -0.3171   -0.5689 C.ar      1 <0>         0.0000
      3 C3         -2.4030    0.3241   -2.2651 C.ar      1 <0>         0.0000
      4 C4         -1.3333   -1.6022   -0.4733 C.ar      1 <0>         0.0000
      5 C5         -2.9508   -0.9533   -2.1834 C.ar      1 <0>         0.0000
      6 C6         -2.4196   -1.8939   -1.2966 C.ar      1 <0>         0.0000
      7 C7         -6.6152   -1.3249   -2.8213 C.2       1 <0>         0.0000
      8 C8         -8.7704   -1.6518   -3.1390 C.3       1 <0>         0.0000
      9 C9         -7.9906   -2.2616   -4.3334 C.3       1 <0>         0.0000
     10 C10        -3.9895   -3.0544   -2.4518 C.3       1 <0>         0.0000
     11 C11        -4.1578   -1.5642   -2.8568 C.3       1 <0>         0.0000
     12 N1         -7.7314   -1.1969   -2.2050 N.2       1 <0>         0.0000
     13 N2         -5.3837   -0.9166   -2.3758 N.pl3     1 <0>         0.0000
     14 O1         -3.0809   -3.0936   -1.3169 O.3       1 <0>         0.0000
     15 O2         -6.6094   -1.8816   -4.0785 O.3       1 <0>         0.0000
     16 H1         -0.8558    1.6271   -1.5058 H         1 <0>         0.0000
     17 H2          0.0678   -0.0594    0.0565 H         1 <0>         0.0000
     18 H3         -2.8250    1.0630   -2.9416 H         1 <0>         0.0000
     19 H4         -0.9352   -2.3459    0.2101 H         1 <0>         0.0000
     20 H5         -9.3966   -0.8061   -3.4489 H         1 <0>         0.0000
     21 H6         -9.4244   -2.3869   -2.6586 H         1 <0>         0.0000
     22 H7         -8.0349   -3.3544   -4.3655 H         1 <0>         0.0000
     23 H8         -8.2730   -1.8576   -5.3078 H         1 <0>         0.0000
     24 H9         -4.9268   -3.5241   -2.1500 H         1 <0>         0.0000
     25 H10        -3.5337   -3.6289   -3.2653 H         1 <0>         0.0000
     26 H11        -4.1396   -1.4644   -3.9430 H         1 <0>         0.0000
     27 H12        -5.3910   -0.6591   -1.3949 H         1 <0>         0.0000
@<TRIPOS>BOND
     1    1    2 ar
     2    1    3 ar
     3    1   16 1
     4    2    4 ar
     5    2   17 1
     6    3    5 ar
     7    3   18 1
     8    4    6 ar
     9    4   19 1
    10    5    6 ar
    11    5   11 1
    12    6   14 1
    13    7   12 2
    14    7   13 1
    15    7   15 1
    16    8    9 1
    17    8   12 1
    18    8   20 1
    19    8   21 1
    20    9   15 1
    21    9   22 1
    22    9   23 1
    23   10   11 1
    24   10   14 1
    25   10   24 1
    26   10   25 1
    27   11   13 1
    28   11   26 1
    29   13   27 1
