@<TRIPOS>MOLECULE
*****
   20    21     0     0     0
SMALL
NO_CHARGES

@<TRIPOS>ATOM
      1 C1          1.8902   -1.0388   -0.1157 C.ar      1 <0>         0.0000
      2 C2          2.9265   -1.6340    0.6093 C.ar      1 <0>         0.0000
      3 C3          0.8162   -0.4685    0.5773 C.ar      1 <0>         0.0000
      4 C4          2.9101   -1.6701    2.0065 C.ar      1 <0>         0.0000
      5 C5          0.7825   -0.4949    1.9706 C.ar      1 <0>         0.0000
      6 C6          4.1631   -2.4968    6.1572 C.2       1 <0>         0.0000
      7 C7          3.2553   -2.0243    7.0446 C.2       1 <0>         0.0000
      8 C8          1.8285   -1.0955    2.6943 C.ar      1 <0>         0.0000
      9 C9          2.6063   -1.6000    5.0130 C.2       1 <0>         0.0000
     10 N1          3.7426   -2.2221    4.8522 N.2       1 <0>         0.0000
     11 N2          1.7320   -1.0875    4.0982 N.pl3     1 <0>         0.0000
     12 O1          2.2267   -1.4327    6.3148 O.3       1 <0>         0.0000
     13 H1          1.9171   -1.0186   -1.2015 H         1 <0>         0.0000
     14 H2          3.7669   -2.0809    0.0841 H         1 <0>         0.0000
     15 H3         -0.0002   -0.0004    0.0335 H         1 <0>         0.0000
     16 H4          3.7151   -2.1323    2.5630 H         1 <0>         0.0000
     17 H5         -0.0566   -0.0490    2.5018 H         1 <0>         0.0000
     18 H6          5.0919   -3.0159    6.3515 H         1 <0>         0.0000
     19 H7          3.1555   -2.0042    8.1185 H         1 <0>         0.0000
     20 H8          0.9134   -0.6488    4.4987 H         1 <0>         0.0000
@<TRIPOS>BOND
     1    1    3 ar
     2    1    2 ar
     3    1   13 1
     4    2    4 ar
     5    2   14 1
     6    3    5 ar
     7    3   15 1
     8    4    8 ar
     9    4   16 1
    10    5    8 ar
    11    5   17 1
    12    6    7 2
    13    6   10 1
    14    6   18 1
    15    7   12 1
    16    7   19 1
    17    8   11 1
    18    9   10 2
    19    9   11 1
    20    9   12 1
    21   11   20 1
