@<TRIPOS>MOLECULE
*****
   22    22     0     0     0
SMALL
NO_CHARGES

@<TRIPOS>ATOM
      1 C1         -2.4865    2.7445    2.0961 C.ar      1 <0>         0.0000
      2 C2         -1.7674    3.8955    1.7937 C.ar      1 <0>         0.0000
      3 C3         -1.8137    1.5983    2.5046 C.ar      1 <0>         0.0000
      4 C4         -0.3880    3.8489    1.9149 C.ar      1 <0>         0.0000
      5 C5         -0.4321    1.6545    2.5937 C.ar      1 <0>         0.0000
      6 C6          0.5182   -0.5668    0.4796 C.3       1 <0>         0.0000
      7 C7          2.5343    0.6351    1.2223 C.3       1 <0>         0.0000
      8 N1          0.3007    2.7542    2.3085 N.ar      1 <0>         0.0000
      9 N2          1.3576   -0.1698    1.6385 N.pl3     1 <0>         0.0000
     10 O1          1.5301    0.7684    4.0543 O.2       1 <0>         0.0000
     11 O2         -0.3548   -0.7856    3.4922 O.2       1 <0>         0.0000
     12 S1          0.5556    0.2741    3.0992 S.o2      1 <0>         0.0000
     13 H1         -3.5693    2.7407    2.0134 H         1 <0>         0.0000
     14 H2         -2.2713    4.8004    1.4741 H         1 <0>         0.0000
     15 H3         -2.3611    0.6934    2.7444 H         1 <0>         0.0000
     16 H4          0.2187    4.7200    1.6906 H         1 <0>         0.0000
     17 H5         -0.3388   -1.1591    0.8328 H         1 <0>         0.0000
     18 H6          0.1536    0.3345   -0.0348 H         1 <0>         0.0000
     19 H7          1.1180   -1.1698   -0.2180 H         1 <0>         0.0000
     20 H8          3.1258    0.9064    2.1091 H         1 <0>         0.0000
     21 H9          3.1564    0.0454    0.5330 H         1 <0>         0.0000
     22 H10         2.1921    1.5498    0.7161 H         1 <0>         0.0000
@<TRIPOS>BOND
     1    1    2 ar
     2    1    3 ar
     3    1   13 1
     4    2    4 ar
     5    2   14 1
     6    3    5 ar
     7    3   15 1
     8    4    8 ar
     9    4   16 1
    10    5    8 ar
    11    5   12 1
    12    6    9 1
    13    6   17 1
    14    6   18 1
    15    6   19 1
    16    7    9 1
    17    7   20 1
    18    7   21 1
    19    7   22 1
    20    9   12 1
    21   10   12 2
    22   11   12 2
