@<TRIPOS>MOLECULE
*****
   48    51     0     0     0
SMALL
NO_CHARGES

@<TRIPOS>ATOM
      1 C1          4.0207   -2.7844   -1.1256 C.ar      1 <0>         0.0000
      2 C2          5.4091   -1.6711    0.5027 C.ar      1 <0>         0.0000
      3 C3          2.8065   -1.1531    1.9756 C.ar      1 <0>         0.0000
      4 C4          1.8671   -0.8431   -0.2238 C.ar      1 <0>         0.0000
      5 C5          5.1525   -3.3659   -1.6991 C.ar      1 <0>         0.0000
      6 C6          6.5474   -2.2523   -0.0554 C.ar      1 <0>         0.0000
      7 C7          1.6726   -0.5734    2.5460 C.ar      1 <0>         0.0000
      8 C8          0.7315   -0.2548    0.3322 C.ar      1 <0>         0.0000
      9 C9          6.5809   -2.9321   -5.2842 C.ar      1 <0>         0.0000
     10 C10         8.9048   -3.6319   -5.3937 C.ar      1 <0>         0.0000
     11 C11        -0.9943   -2.2348    4.7986 C.ar      1 <0>         0.0000
     12 C12        -3.0642   -0.9654    4.8845 C.ar      1 <0>         0.0000
     13 C13         6.2982   -3.6774   -6.4318 C.ar      1 <0>         0.0000
     14 C14         8.6234   -4.3845   -6.5355 C.ar      1 <0>         0.0000
     15 C15        -0.9906   -2.3301    6.1926 C.ar      1 <0>         0.0000
     16 C16        -3.0587   -1.0517    6.2780 C.ar      1 <0>         0.0000
     17 C17         4.1274   -1.9245   -0.0191 C.ar      1 <0>         0.0000
     18 C18         2.9240   -1.3026    0.5831 C.ar      1 <0>         0.0000
     19 C19         6.4084   -3.0981   -1.1560 C.ar      1 <0>         0.0000
     20 C20         0.6442   -0.1244    1.7184 C.ar      1 <0>         0.0000
     21 C21         7.8802   -2.9116   -4.7779 C.ar      1 <0>         0.0000
     22 C22        -2.0314   -1.5584    4.1570 C.ar      1 <0>         0.0000
     23 C23         7.3224   -4.4008   -7.0457 C.ar      1 <0>         0.0000
     24 C24        -2.0218   -1.7337    6.9206 C.ar      1 <0>         0.0000
     25 O1          7.5021   -3.7589   -1.7331 O.3       1 <0>         0.0000
     26 O2         -0.4391    0.5039    2.3488 O.3       1 <0>         0.0000
     27 O3          8.1097   -2.0960   -3.6636 O.3       1 <0>         0.0000
     28 O4         -2.0114   -1.5497    2.7572 O.3       1 <0>         0.0000
     29 S1          8.7745   -2.8168   -2.2950 S.3       1 <0>         0.0000
     30 S2         -1.9845   -0.0494    1.9928 S.3       1 <0>         0.0000
     31 Cl1         6.9710   -5.3473   -8.4829 Cl        1 <0>         0.0000
     32 Cl2        -2.0166   -1.8411    8.6736 Cl        1 <0>         0.0000
     33 H1          3.0407   -3.0208   -1.5305 H         1 <0>         0.0000
     34 H2          5.5214   -0.9907    1.3421 H         1 <0>         0.0000
     35 H3          3.5943   -1.5250    2.6248 H         1 <0>         0.0000
     36 H4          1.9478   -0.9158   -1.3048 H         1 <0>         0.0000
     37 H5          5.0765   -4.0382   -2.5485 H         1 <0>         0.0000
     38 H6          7.5338   -2.0397    0.3460 H         1 <0>         0.0000
     39 H7          1.5702   -0.4660    3.6218 H         1 <0>         0.0000
     40 H8         -0.0753    0.1026   -0.3004 H         1 <0>         0.0000
     41 H9          5.8071   -2.3613   -4.7803 H         1 <0>         0.0000
     42 H10         9.9093   -3.6111   -4.9825 H         1 <0>         0.0000
     43 H11        -0.2054   -2.6835    4.2028 H         1 <0>         0.0000
     44 H12        -3.8600   -0.4367    4.3688 H         1 <0>         0.0000
     45 H13         5.2929   -3.7011   -6.8401 H         1 <0>         0.0000
     46 H14         9.4082   -4.9491   -7.0286 H         1 <0>         0.0000
     47 H15        -0.1926   -2.8559    6.7071 H         1 <0>         0.0000
     48 H16        -3.8548   -0.5985    6.8600 H         1 <0>         0.0000
@<TRIPOS>BOND
     1    1    5 ar
     2    1   17 ar
     3    1   33 1
     4    2    6 ar
     5    2   17 ar
     6    2   34 1
     7    3    7 ar
     8    3   18 ar
     9    3   35 1
    10    4    8 ar
    11    4   18 ar
    12    4   36 1
    13    5   19 ar
    14    5   37 1
    15    6   19 ar
    16    6   38 1
    17    7   20 ar
    18    7   39 1
    19    8   20 ar
    20    8   40 1
    21    9   13 ar
    22    9   21 ar
    23    9   41 1
    24   10   14 ar
    25   10   21 ar
    26   10   42 1
    27   11   15 ar
    28   11   22 ar
    29   11   43 1
    30   12   16 ar
    31   12   22 ar
    32   12   44 1
    33   13   23 ar
    34   13   45 1
    35   14   23 ar
    36   14   46 1
    37   15   24 ar
    38   15   47 1
    39   16   24 ar
    40   16   48 1
    41   17   18 1
    42   19   25 1
    43   20   26 1
    44   21   27 1
    45   22   28 1
    46   23   31 1
    47   24   32 1
    48   25   29 1
    49   26   30 1
    50   27   29 1
    51   28   30 1
