@<TRIPOS>MOLECULE
*****
   14    14     0     0     0
SMALL
NO_CHARGES

@<TRIPOS>ATOM
      1 C1         -1.4621    0.4365   -0.7283 C.2       1 <0>         0.0000
      2 C2          0.1085   -0.7988    0.1082 C.2       1 <0>         0.0000
      3 C3          1.0311   -1.7901    0.7538 C.2       1 <0>         0.0000
      4 C4          0.5700    0.6644   -0.0554 C.3       1 <0>         0.0000
      5 N1          1.3405    1.7220    2.1633 N.1       1 <0>         0.0000
      6 N2         -0.5998    1.3750   -0.5231 N.2       1 <0>         0.0000
      7 N3         -1.0740   -0.9055   -0.3619 N.2       1 <0>         0.0000
      8 N4          1.0362    1.2422    1.2115 N.1       1 <0>         0.0000
      9 N5          0.6782   -3.0815    0.6917 N.am      1 <0>         0.0000
     10 O1          2.0240   -1.3036    1.3018 O.2       1 <0>         0.0000
     11 H1         -2.4463    0.6160   -1.1518 H         1 <0>         0.0000
     12 H2          1.4255    0.7576   -0.7380 H         1 <0>         0.0000
     13 H3          1.2670   -3.7779    1.1394 H         1 <0>         0.0000
     14 H4         -0.1756   -3.3789    0.2313 H         1 <0>         0.0000
@<TRIPOS>BOND
     1    1    6 2
     2    1    7 1
     3    1   11 1
     4    2    3 1
     5    2    4 1
     6    2    7 2
     7    3    9 am
     8    3   10 2
     9    4    6 1
    10    4    8 1
    11    4   12 1
    12    5    8 3
    13    9   13 1
    14    9   14 1
