@<TRIPOS>MOLECULE
*****
   15    14     0     0     0
SMALL
NO_CHARGES

@<TRIPOS>ATOM
      1 C1          4.6034   -4.4157    3.9920 C.1       1 <0>         0.0000
      2 C2          4.1786   -4.2878    0.4845 C.3       1 <0>         0.0000
      3 C3          4.3803   -1.9986    3.3478 C.3       1 <0>         0.0000
      4 C4          2.8595   -1.8484    3.2695 C.3       1 <0>         0.0000
      5 N1          4.8075   -3.2327    3.9454 N.2       1 <0>         0.0000
      6 S1          4.4683   -5.9911    4.1474 S.2       1 <0>         0.0000
      7 S2          2.8620   -3.0096    0.4224 S.3       1 <0>         0.0000
      8 S3          1.9916   -3.1555    2.3176 S.3       1 <0>         0.0000
      9 H1          4.5417   -4.3945   -0.5422 H         1 <0>         0.0000
     10 H2          3.7697   -5.2396    0.8253 H         1 <0>         0.0000
     11 H3          5.0058   -3.9904    1.1307 H         1 <0>         0.0000
     12 H4          4.7882   -1.1695    3.9348 H         1 <0>         0.0000
     13 H5          4.8095   -1.9214    2.3422 H         1 <0>         0.0000
     14 H6          2.4150   -1.9016    4.2690 H         1 <0>         0.0000
     15 H7          2.6275   -0.8706    2.8383 H         1 <0>         0.0000
@<TRIPOS>BOND
     1    1    5 2
     2    1    6 2
     3    2    7 1
     4    2    9 1
     5    2   10 1
     6    2   11 1
     7    3    4 1
     8    3    5 1
     9    3   12 1
    10    3   13 1
    11    4    8 1
    12    4   14 1
    13    4   15 1
    14    7    8 1
