@<TRIPOS>MOLECULE
*****
   13    12     0     0     0
SMALL
NO_CHARGES

@<TRIPOS>ATOM
      1 C1          2.2483   -0.4238   -2.3503 C.1       1 <0>         0.0000
      2 C2         -0.2341    0.1703    0.0083 C.2       1 <0>         0.0000
      3 C3          0.4150   -1.2009    1.8256 C.3       1 <0>         0.0000
      4 C4          0.0940    0.6534   -1.4263 C.3       1 <0>         0.0000
      5 N1          1.2890    0.0710   -1.9689 N.1       1 <0>         0.0000
      6 O1         -1.2170    0.5998    0.5516 O.2       1 <0>         0.0000
      7 O2          0.6608   -0.6973    0.4668 O.3       1 <0>         0.0000
      8 H1          3.1539   -0.8908   -2.7104 H         1 <0>         0.0000
      9 H2          1.2389   -1.8826    2.0234 H         1 <0>         0.0000
     10 H3         -0.5442   -1.7181    1.8482 H         1 <0>         0.0000
     11 H4          0.4141   -0.3638    2.5237 H         1 <0>         0.0000
     12 H5          0.2245    1.7389   -1.4217 H         1 <0>         0.0000
     13 H6         -0.7340    0.3972   -2.0927 H         1 <0>         0.0000
@<TRIPOS>BOND
     1    1    5 3
     2    1    8 1
     3    2    4 1
     4    2    6 2
     5    2    7 1
     6    3    7 1
     7    3    9 1
     8    3   10 1
     9    3   11 1
    10    4    5 1
    11    4   12 1
    12    4   13 1
