@<TRIPOS>MOLECULE
*****
   25    25     0     0     0
SMALL
NO_CHARGES

@<TRIPOS>ATOM
      1 C1          5.1119    1.4919   -4.9900 C.2       1 <0>         0.0000
      2 C2          4.1676    0.8310   -4.2551 C.2       1 <0>         0.0000
      3 C3          5.7020   -0.7628   -4.3019 C.2       1 <0>         0.0000
      4 C4          2.7865    1.7169   -2.3539 C.2       1 <0>         0.0000
      5 C5          1.3364    2.0951   -0.5266 C.3       1 <0>         0.0000
      6 C6          8.4715   -2.7477   -5.5137 C.3       1 <0>         0.0000
      7 C7          2.8344    1.3726   -3.8378 C.3       1 <0>         0.0000
      8 N1          4.5097   -0.4558   -3.8798 N.2       1 <0>         0.0000
      9 N2          6.3387   -1.9767   -3.9969 N.pl3     1 <0>         0.0000
     10 O1          3.7456    1.9745   -1.6568 O.2       1 <0>         0.0000
     11 O2          6.5790   -4.4084   -4.6497 O.2       1 <0>         0.0000
     12 O3          6.0106   -2.7242   -6.4932 O.2       1 <0>         0.0000
     13 O4          1.5064    1.7349   -1.9148 O.3       1 <0>         0.0000
     14 S1          6.5246    0.5010   -5.1922 S.3       1 <0>         0.0000
     15 S2          6.7222   -3.0913   -5.2710 S.o2      1 <0>         0.0000
     16 H1          5.0632    2.4852   -5.4163 H         1 <0>         0.0000
     17 H2          0.2621    2.0600   -0.3475 H         1 <0>         0.0000
     18 H3          1.7267    3.0989   -0.3431 H         1 <0>         0.0000
     19 H4          1.8589    1.3827    0.1157 H         1 <0>         0.0000
     20 H5          8.8177   -3.4379   -6.2852 H         1 <0>         0.0000
     21 H6          8.5823   -1.7161   -5.8490 H         1 <0>         0.0000
     22 H7          8.9885   -2.9200   -4.5702 H         1 <0>         0.0000
     23 H8          2.6033    2.2895   -4.3900 H         1 <0>         0.0000
     24 H9          2.0401    0.6550   -4.0590 H         1 <0>         0.0000
     25 H10         5.8195   -2.4912   -3.2832 H         1 <0>         0.0000
@<TRIPOS>BOND
     1    1    2 2
     2    1   14 1
     3    1   16 1
     4    2    7 1
     5    2    8 1
     6    3    8 2
     7    3    9 1
     8    3   14 1
     9    4    7 1
    10    4   10 2
    11    4   13 1
    12    5   13 1
    13    5   17 1
    14    5   18 1
    15    5   19 1
    16    6   15 1
    17    6   20 1
    18    6   21 1
    19    6   22 1
    20    7   23 1
    21    7   24 1
    22    9   15 1
    23    9   25 1
    24   11   15 2
    25   12   15 2
