@<TRIPOS>MOLECULE
*****
   43    43     0     0     0
SMALL
NO_CHARGES

@<TRIPOS>ATOM
      1 C1         -1.0879   -6.3118   -0.4486 C.2       1 <0>         0.0000
      2 C2         -0.8910   -4.9167   -0.4951 C.2       1 <0>         0.0000
      3 C3         -0.1736   -6.8106    0.4731 C.2       1 <0>         0.0000
      4 C4          0.1442   -4.5860    0.3912 C.2       1 <0>         0.0000
      5 C5          0.6750   -3.2379    0.6079 C.2       1 <0>         0.0000
      6 C6          1.5912   -5.9941    2.0020 C.3       1 <0>         0.0000
      7 C7         -2.1366   -0.7075   -1.3512 C.3       1 <0>         0.0000
      8 C8         -0.6306    1.1318   -1.9017 C.3       1 <0>         0.0000
      9 C9         -0.3683   -0.5909    2.5851 C.3       1 <0>         0.0000
     10 C10         0.0262    1.5420    1.4173 C.3       1 <0>         0.0000
     11 C11         2.2221   -0.7872   -1.9102 C.3       1 <0>         0.0000
     12 C12         2.8324    0.1816    0.2555 C.3       1 <0>         0.0000
     13 N1         -0.0999   -2.2901    0.0370 N.2       1 <0>         0.0000
     14 N2          0.5722   -5.7803    0.9776 N.pl3     1 <0>         0.0000
     15 N3         -0.7593   -0.2055   -1.3250 N.pl3     1 <0>         0.0000
     16 N4         -0.0157    0.0849    1.3371 N.pl3     1 <0>         0.0000
     17 N5          1.7457   -0.2088   -0.6468 N.pl3     1 <0>         0.0000
     18 P1          0.2581   -0.7324   -0.0897 P.3       1 <0>         0.0000
     19 S1          2.1142   -2.9308    1.4697 S.2       1 <0>         0.0000
     20 H1         -1.8017   -6.8978   -1.0133 H         1 <0>         0.0000
     21 H2         -1.4099   -4.1937   -1.1073 H         1 <0>         0.0000
     22 H3         -0.0037   -7.8245    0.8110 H         1 <0>         0.0000
     23 H4          2.5857   -5.7618    1.6199 H         1 <0>         0.0000
     24 H5          1.4081   -5.3579    2.8686 H         1 <0>         0.0000
     25 H6          1.5423   -7.0438    2.3021 H         1 <0>         0.0000
     26 H7         -2.1608   -1.7285   -0.9744 H         1 <0>         0.0000
     27 H8         -2.4992   -0.7011   -2.3855 H         1 <0>         0.0000
     28 H9         -2.8096   -0.0811   -0.7456 H         1 <0>         0.0000
     29 H10         0.4093    1.4584   -1.8763 H         1 <0>         0.0000
     30 H11        -1.2517    1.8741   -1.3772 H         1 <0>         0.0000
     31 H12        -0.9557    1.1016   -2.9483 H         1 <0>         0.0000
     32 H13        -0.5275   -1.6523    2.4078 H         1 <0>         0.0000
     33 H14        -1.2934   -0.1592    2.9891 H         1 <0>         0.0000
     34 H15         0.4333   -0.4820    3.3258 H         1 <0>         0.0000
     35 H16         0.4318    1.9723    0.5012 H         1 <0>         0.0000
     36 H17         0.6725    1.8583    2.2465 H         1 <0>         0.0000
     37 H18        -0.9766    1.9587    1.5848 H         1 <0>         0.0000
     38 H19         1.3780   -1.0251   -2.5589 H         1 <0>         0.0000
     39 H20         2.7988   -1.7030   -1.7274 H         1 <0>         0.0000
     40 H21         2.8621   -0.0599   -2.4232 H         1 <0>         0.0000
     41 H22         2.4462    0.3898    1.2514 H         1 <0>         0.0000
     42 H23         3.3198    1.0828   -0.1394 H         1 <0>         0.0000
     43 H24         3.5668   -0.6241    0.3516 H         1 <0>         0.0000
@<TRIPOS>BOND
     1    1    2 1
     2    1    3 2
     3    1   20 1
     4    2    4 2
     5    2   21 1
     6    3   14 1
     7    3   22 1
     8    4    5 1
     9    4   14 1
    10    5   13 1
    11    5   19 2
    12    6   14 1
    13    6   23 1
    14    6   24 1
    15    6   25 1
    16    7   15 1
    17    7   26 1
    18    7   27 1
    19    7   28 1
    20    8   15 1
    21    8   29 1
    22    8   30 1
    23    8   31 1
    24    9   16 1
    25    9   32 1
    26    9   33 1
    27    9   34 1
    28   10   16 1
    29   10   35 1
    30   10   36 1
    31   10   37 1
    32   11   17 1
    33   11   38 1
    34   11   39 1
    35   11   40 1
    36   12   17 1
    37   12   41 1
    38   12   42 1
    39   12   43 1
    40   13   18 2
    41   15   18 1
    42   16   18 1
    43   17   18 1
