@<TRIPOS>MOLECULE
*****
   30    31     0     0     0
SMALL
NO_CHARGES

@<TRIPOS>ATOM
      1 C1          2.8874    0.1002    0.2979 C.ar      1 <0>         0.0000
      2 C2          6.9448   -3.3601    8.0233 C.ar      1 <0>         0.0000
      3 C3          2.4540   -1.2218    0.4518 C.ar      1 <0>         0.0000
      4 C4          2.8561    0.9912    1.3762 C.ar      1 <0>         0.0000
      5 C5          6.0939   -2.3081    8.3849 C.ar      1 <0>         0.0000
      6 C6          7.0527   -3.7620    6.6876 C.ar      1 <0>         0.0000
      7 C7          1.9879   -1.6652    1.6896 C.ar      1 <0>         0.0000
      8 C8          2.3973    0.5662    2.6235 C.ar      1 <0>         0.0000
      9 C9          5.3412   -1.6506    7.4113 C.ar      1 <0>         0.0000
     10 C10         6.3067   -3.1156    5.6993 C.ar      1 <0>         0.0000
     11 C11         1.9719   -0.7586    2.7533 C.ar      1 <0>         0.0000
     12 C12         5.4663   -2.0689    6.0836 C.ar      1 <0>         0.0000
     13 N1          2.9371   -2.1019    5.0926 N.pl3     1 <0>         0.0000
     14 O1          1.1863   -0.2149    5.2400 O.2       1 <0>         0.0000
     15 O2          0.5400   -2.4634    4.2000 O.2       1 <0>         0.0000
     16 O3          4.2083    0.1316    5.2529 O.2       1 <0>         0.0000
     17 O4          5.0348   -1.5529    3.5153 O.2       1 <0>         0.0000
     18 F1          3.1151   -3.3461    4.4312 F         1 <0>         0.0000
     19 S1          1.4458   -1.3348    4.3500 S.o2      1 <0>         0.0000
     20 S2          4.5078   -1.2349    4.8381 S.o2      1 <0>         0.0000
     21 H1          3.2516    0.4377   -0.6688 H         1 <0>         0.0000
     22 H2          7.5271   -3.8681    8.7873 H         1 <0>         0.0000
     23 H3          2.4789   -1.9069   -0.3906 H         1 <0>         0.0000
     24 H4          3.1941    2.0155    1.2496 H         1 <0>         0.0000
     25 H5          6.0165   -2.0003    9.4236 H         1 <0>         0.0000
     26 H6          7.7161   -4.5774    6.4141 H         1 <0>         0.0000
     27 H7          1.6432   -2.6837    1.8335 H         1 <0>         0.0000
     28 H8          2.3811    1.2311    3.4800 H         1 <0>         0.0000
     29 H9          4.6776   -0.8304    7.6663 H         1 <0>         0.0000
     30 H10         6.3746   -3.4040    4.6556 H         1 <0>         0.0000
@<TRIPOS>BOND
     1    1    4 ar
     2    1    3 ar
     3    1   21 1
     4    2    6 ar
     5    2    5 ar
     6    2   22 1
     7    3    7 ar
     8    3   23 1
     9    4    8 ar
    10    4   24 1
    11    5    9 ar
    12    5   25 1
    13    6   10 ar
    14    6   26 1
    15    7   11 ar
    16    7   27 1
    17    8   11 ar
    18    8   28 1
    19    9   12 ar
    20    9   29 1
    21   10   12 ar
    22   10   30 1
    23   11   19 1
    24   12   20 1
    25   13   18 1
    26   13   19 1
    27   13   20 1
    28   14   19 2
    29   15   19 2
    30   16   20 2
    31   17   20 2
