@<TRIPOS>MOLECULE
*****
   35    37     0     0     0
SMALL
NO_CHARGES

@<TRIPOS>ATOM
      1 C1          2.9758   -0.5076    3.5967 C.ar      1 <0>         0.0000
      2 C2          3.1730   -1.3666    4.6989 C.ar      1 <0>         0.0000
      3 C3          1.7081   -0.3294    3.0680 C.ar      1 <0>         0.0000
      4 C4         -0.7369   -0.8987    3.1688 C.2       1 <0>         0.0000
      5 C5         -3.7904   -3.2145    5.2620 C.ar      1 <0>         0.0000
      6 C6          2.1075   -2.0503    5.2771 C.ar      1 <0>         0.0000
      7 C7         -4.7066   -3.9757    5.9719 C.ar      1 <0>         0.0000
      8 C8         -1.7492   -1.5975    3.7785 C.2       1 <0>         0.0000
      9 C9         -1.9949   -4.0319    6.7050 C.ar      1 <0>         0.0000
     10 C10         0.6054   -1.0104    3.6338 C.ar      1 <0>         0.0000
     11 C11        -2.4222   -3.2264    5.6118 C.ar      1 <0>         0.0000
     12 C12         0.8370   -1.8623    4.7356 C.ar      1 <0>         0.0000
     13 C13        -4.2883   -4.7718    7.0515 C.ar      1 <0>         0.0000
     14 C14        -2.8991   -4.7950    7.4199 C.ar      1 <0>         0.0000
     15 C15        -1.4726   -2.4416    4.8814 C.2       1 <0>         0.0000
     16 C16        -6.4964   -5.5781    7.5042 C.3       1 <0>         0.0000
     17 C17        -1.2412   -5.6710    8.8952 C.3       1 <0>         0.0000
     18 O1         -0.2043   -2.5417    5.3145 O.3       1 <0>         0.0000
     19 O2         -5.0868   -5.5356    7.7936 O.3       1 <0>         0.0000
     20 O3         -2.6050   -5.5896    8.4671 O.3       1 <0>         0.0000
     21 H1          3.8241    0.0137    3.1647 H         1 <0>         0.0000
     22 H2          4.1716   -1.4981    5.1045 H         1 <0>         0.0000
     23 H3          1.5464    0.3298    2.2197 H         1 <0>         0.0000
     24 H4         -0.9561   -0.2526    2.3228 H         1 <0>         0.0000
     25 H5         -4.1549   -2.6150    4.4364 H         1 <0>         0.0000
     26 H6          2.2450   -2.7138    6.1249 H         1 <0>         0.0000
     27 H7         -5.7512   -3.9520    5.6865 H         1 <0>         0.0000
     28 H8         -2.7663   -1.5095    3.4223 H         1 <0>         0.0000
     29 H9         -0.9475   -4.0410    6.9732 H         1 <0>         0.0000
     30 H10        -6.9189   -6.2591    8.2407 H         1 <0>         0.0000
     31 H11        -6.6703   -5.9658    6.4960 H         1 <0>         0.0000
     32 H12        -6.9422   -4.5852    7.6168 H         1 <0>         0.0000
     33 H13        -1.2406   -6.3611    9.7376 H         1 <0>         0.0000
     34 H14        -0.8754   -4.6910    9.2221 H         1 <0>         0.0000
     35 H15        -0.6038   -6.0655    8.0957 H         1 <0>         0.0000
@<TRIPOS>BOND
     1    1    2 ar
     2    1    3 ar
     3    1   21 1
     4    2    6 ar
     5    2   22 1
     6    3   10 ar
     7    3   23 1
     8    4    8 1
     9    4   10 2
    10    4   24 1
    11    5    7 ar
    12    5   11 ar
    13    5   25 1
    14    6   12 ar
    15    6   26 1
    16    7   13 ar
    17    7   27 1
    18    8   15 2
    19    8   28 1
    20    9   11 ar
    21    9   14 ar
    22    9   29 1
    23   10   12 ar
    24   11   15 1
    25   12   18 2
    26   13   14 ar
    27   13   19 1
    28   14   20 1
    29   15   18 1
    30   16   19 1
    31   16   30 1
    32   16   31 1
    33   16   32 1
    34   17   20 1
    35   17   33 1
    36   17   34 1
    37   17   35 1
