@<TRIPOS>MOLECULE
*****
   36    38     0     0     0
SMALL
NO_CHARGES

@<TRIPOS>ATOM
      1 C1          0.0360   -2.6101    0.1644 C.ar      1 <0>         0.0000
      2 C2         -0.5841   -4.6922    7.2130 C.ar      1 <0>         0.0000
      3 C3          5.2519   -0.5305    5.0624 C.ar      1 <0>         0.0000
      4 C4         -0.4325   -1.3577    0.5747 C.ar      1 <0>         0.0000
      5 C5          0.6973   -3.4417    1.0760 C.ar      1 <0>         0.0000
      6 C6          0.7133   -4.6830    6.6883 C.ar      1 <0>         0.0000
      7 C7         -1.4588   -3.6377    6.9293 C.ar      1 <0>         0.0000
      8 C8          4.4170   -0.7013    6.1729 C.ar      1 <0>         0.0000
      9 C9          4.7139   -0.5899    3.7729 C.ar      1 <0>         0.0000
     10 C10        -0.2373   -0.9301    1.8916 C.ar      1 <0>         0.0000
     11 C11         0.8906   -3.0193    2.3931 C.ar      1 <0>         0.0000
     12 C12         1.1340   -3.6236    5.8798 C.ar      1 <0>         0.0000
     13 C13        -1.0391   -2.5782    6.1204 C.ar      1 <0>         0.0000
     14 C14         3.0521   -0.9344    5.9923 C.ar      1 <0>         0.0000
     15 C15         3.3469   -0.8201    3.5915 C.ar      1 <0>         0.0000
     16 C16         0.4291   -1.7600    2.8030 C.ar      1 <0>         0.0000
     17 C17         0.2587   -2.5653    5.5887 C.ar      1 <0>         0.0000
     18 C18         2.5060   -1.0014    4.6995 C.ar      1 <0>         0.0000
     19 N1         -0.1903    0.1546    4.6475 N.2       1 <0>         0.0000
     20 P1          0.6889   -1.1504    4.4959 P.3       1 <0>         0.0000
     21 H1         -0.1163   -2.9403   -0.8602 H         1 <0>         0.0000
     22 H2         -0.9095   -5.5154    7.8440 H         1 <0>         0.0000
     23 H3          6.3151   -0.3524    5.2022 H         1 <0>         0.0000
     24 H4         -0.9511   -0.7129   -0.1303 H         1 <0>         0.0000
     25 H5          1.0571   -4.4184    0.7628 H         1 <0>         0.0000
     26 H6          1.3981   -5.4970    6.9127 H         1 <0>         0.0000
     27 H7         -2.4658   -3.6404    7.3388 H         1 <0>         0.0000
     28 H8          4.8292   -0.6551    7.1778 H         1 <0>         0.0000
     29 H9          5.3577   -0.4568    2.9071 H         1 <0>         0.0000
     30 H10        -0.5950    0.0351    2.2372 H         1 <0>         0.0000
     31 H11         1.3972   -3.6740    3.0965 H         1 <0>         0.0000
     32 H12         2.1488   -3.6166    5.4911 H         1 <0>         0.0000
     33 H13        -1.7058   -1.7496    5.8943 H         1 <0>         0.0000
     34 H14         2.4124   -1.0729    6.8608 H         1 <0>         0.0000
     35 H15         2.9365   -0.8624    2.5866 H         1 <0>         0.0000
     36 H16        -0.0355    0.6812    5.5053 H         1 <0>         0.0000
@<TRIPOS>BOND
     1    1    5 ar
     2    1    4 ar
     3    1   21 1
     4    2    7 ar
     5    2    6 ar
     6    2   22 1
     7    3    9 ar
     8    3    8 ar
     9    3   23 1
    10    4   10 ar
    11    4   24 1
    12    5   11 ar
    13    5   25 1
    14    6   12 ar
    15    6   26 1
    16    7   13 ar
    17    7   27 1
    18    8   14 ar
    19    8   28 1
    20    9   15 ar
    21    9   29 1
    22   10   16 ar
    23   10   30 1
    24   11   16 ar
    25   11   31 1
    26   12   17 ar
    27   12   32 1
    28   13   17 ar
    29   13   33 1
    30   14   18 ar
    31   14   34 1
    32   15   18 ar
    33   15   35 1
    34   16   20 1
    35   17   20 1
    36   18   20 1
    37   19   20 2
    38   19   36 1
