@<TRIPOS>MOLECULE
*****
   25    26     0     0     0
SMALL
NO_CHARGES

@<TRIPOS>ATOM
      1 C1          1.0000    0.3592    2.8027 C.2       1 <0>         0.0000
      2 C2         -0.8931   -0.9143    0.4037 C.3       1 <0>         0.0000
      3 C3          1.3892   -0.1641   -0.4740 C.3       1 <0>         0.0000
      4 C4          1.2368   -1.5267    1.6990 C.3       1 <0>         0.0000
      5 C5         -1.6694    0.1510   -0.3733 C.3       1 <0>         0.0000
      6 C6          0.8145    0.9652   -1.3322 C.3       1 <0>         0.0000
      7 C7          0.5397   -0.4997    0.7559 C.3       1 <0>         0.0000
      8 N1          1.4276   -0.8339    2.9735 N.2       1 <0>         0.0000
      9 N2          1.0642    1.3991    3.7006 N.pl3     1 <0>         0.0000
     10 O1         -0.7194   -0.7297   -2.7004 O.2       1 <0>         0.0000
     11 O2         -1.4622    1.7159   -2.5473 O.2       1 <0>         0.0000
     12 O3          0.4643    0.7082    1.5880 O.3       1 <0>         0.0000
     13 S1         -0.8375    0.5302   -1.9394 S.o2      1 <0>         0.0000
     14 H1         -1.4308   -1.1331    1.3326 H         1 <0>         0.0000
     15 H2         -0.8577   -1.8388   -0.1814 H         1 <0>         0.0000
     16 H3          1.4977   -1.0673   -1.0829 H         1 <0>         0.0000
     17 H4          2.3889    0.1289   -0.1364 H         1 <0>         0.0000
     18 H5          0.6226   -2.4239    1.8381 H         1 <0>         0.0000
     19 H6          2.2010   -1.8532    1.2910 H         1 <0>         0.0000
     20 H7         -2.6687   -0.1913   -0.6555 H         1 <0>         0.0000
     21 H8         -1.7524    1.0915    0.1757 H         1 <0>         0.0000
     22 H9          0.7118    1.8997   -0.7762 H         1 <0>         0.0000
     23 H10         1.4119    1.1440   -2.2302 H         1 <0>         0.0000
     24 H11         0.3345    2.0945    3.6015 H         1 <0>         0.0000
     25 H12         1.2213    1.0923    4.6529 H         1 <0>         0.0000
@<TRIPOS>BOND
     1    1    8 2
     2    1    9 1
     3    1   12 1
     4    2    5 1
     5    2    7 1
     6    2   14 1
     7    2   15 1
     8    3    6 1
     9    3    7 1
    10    3   16 1
    11    3   17 1
    12    4    7 1
    13    4    8 1
    14    4   18 1
    15    4   19 1
    16    5   13 1
    17    5   20 1
    18    5   21 1
    19    6   13 1
    20    6   22 1
    21    6   23 1
    22    7   12 1
    23    9   24 1
    24    9   25 1
    25   10   13 2
    26   11   13 2
