@<TRIPOS>MOLECULE
*****
   48    51     0     0     0
SMALL
NO_CHARGES

@<TRIPOS>ATOM
      1 C1          4.4010   -2.2102   -1.4984 C.ar      1 <0>         0.0000
      2 C2          4.6718   -3.5418    0.4939 C.ar      1 <0>         0.0000
      3 C3          2.7940   -1.5276    1.7734 C.ar      1 <0>         0.0000
      4 C4          1.6687   -1.5389   -0.3602 C.ar      1 <0>         0.0000
      5 C5          5.5024   -2.8430   -2.0760 C.ar      1 <0>         0.0000
      6 C6          5.7695   -4.1880   -0.0739 C.ar      1 <0>         0.0000
      7 C7          1.6941   -0.8949    2.3547 C.ar      1 <0>         0.0000
      8 C8          0.5666   -0.8991    0.2061 C.ar      1 <0>         0.0000
      9 C9          8.9299   -1.3153   -3.0061 C.ar      1 <0>         0.0000
     10 C10        10.6572   -3.0004   -3.2887 C.ar      1 <0>         0.0000
     11 C11        -0.6543   -2.1627    5.1756 C.ar      1 <0>         0.0000
     12 C12        -2.7425   -0.9214    5.2070 C.ar      1 <0>         0.0000
     13 C13         9.2985   -0.7287   -4.2195 C.ar      1 <0>         0.0000
     14 C14        11.0223   -2.4215   -4.5056 C.ar      1 <0>         0.0000
     15 C15        -0.5283   -1.9936    6.5568 C.ar      1 <0>         0.0000
     16 C16        -2.6148   -0.7434    6.5859 C.ar      1 <0>         0.0000
     17 C17         3.9675   -2.5436   -0.2038 C.ar      1 <0>         0.0000
     18 C18         2.8007   -1.8649    0.4090 C.ar      1 <0>         0.0000
     19 C19         6.1766   -3.8313   -1.3597 C.ar      1 <0>         0.0000
     20 C20         0.5892   -0.5815    1.5643 C.ar      1 <0>         0.0000
     21 C21         9.6139   -2.4416   -2.5494 C.ar      1 <0>         0.0000
     22 C22        -1.7604   -1.6304    4.5136 C.ar      1 <0>         0.0000
     23 C23        10.3398   -1.2900   -4.9609 C.ar      1 <0>         0.0000
     24 C24        -1.5089   -1.2815    7.2498 C.ar      1 <0>         0.0000
     25 O1          7.2356   -4.4713   -2.0189 O.3       1 <0>         0.0000
     26 O2         -0.4596    0.1097    2.1875 O.3       1 <0>         0.0000
     27 O3          9.2386   -2.9466   -1.2987 O.3       1 <0>         0.0000
     28 O4         -1.8586   -1.8889    3.1414 O.3       1 <0>         0.0000
     29 S1          8.7188   -4.5471   -1.2346 S.3       1 <0>         0.0000
     30 S2         -1.9954   -0.5667    2.1081 S.3       1 <0>         0.0000
     31 Cl1        10.8004   -0.5632   -6.4920 Cl        1 <0>         0.0000
     32 Cl2        -1.3511   -1.0572    8.9846 Cl        1 <0>         0.0000
     33 H1          3.8940   -1.4229   -2.0493 H         1 <0>         0.0000
     34 H2          4.3366   -3.8421    1.4827 H         1 <0>         0.0000
     35 H3          3.6666   -1.7411    2.3845 H         1 <0>         0.0000
     36 H4          1.6385   -1.8108   -1.4116 H         1 <0>         0.0000
     37 H5          5.8499   -2.5817   -3.0711 H         1 <0>         0.0000
     38 H6          6.3016   -4.9619    0.4709 H         1 <0>         0.0000
     39 H7          1.6859   -0.6235    3.4061 H         1 <0>         0.0000
     40 H8         -0.3081   -0.6639   -0.3929 H         1 <0>         0.0000
     41 H9          8.1219   -0.9066   -2.4071 H         1 <0>         0.0000
     42 H10        11.1742   -3.8816   -2.9212 H         1 <0>         0.0000
     43 H11         0.0919   -2.7080    4.6059 H         1 <0>         0.0000
     44 H12        -3.5936   -0.5072    4.6754 H         1 <0>         0.0000
     45 H13         8.7786    0.1500   -4.5874 H         1 <0>         0.0000
     46 H14        11.8326   -2.8413   -5.0930 H         1 <0>         0.0000
     47 H15         0.3248   -2.4046    7.0870 H         1 <0>         0.0000
     48 H16        -3.3700   -0.1967    7.1415 H         1 <0>         0.0000
@<TRIPOS>BOND
     1    1    5 ar
     2    1   17 ar
     3    1   33 1
     4    2    6 ar
     5    2   17 ar
     6    2   34 1
     7    3    7 ar
     8    3   18 ar
     9    3   35 1
    10    4    8 ar
    11    4   18 ar
    12    4   36 1
    13    5   19 ar
    14    5   37 1
    15    6   19 ar
    16    6   38 1
    17    7   20 ar
    18    7   39 1
    19    8   20 ar
    20    8   40 1
    21    9   13 ar
    22    9   21 ar
    23    9   41 1
    24   10   14 ar
    25   10   21 ar
    26   10   42 1
    27   11   15 ar
    28   11   22 ar
    29   11   43 1
    30   12   16 ar
    31   12   22 ar
    32   12   44 1
    33   13   23 ar
    34   13   45 1
    35   14   23 ar
    36   14   46 1
    37   15   24 ar
    38   15   47 1
    39   16   24 ar
    40   16   48 1
    41   17   18 1
    42   19   25 1
    43   20   26 1
    44   21   27 1
    45   22   28 1
    46   23   31 1
    47   24   32 1
    48   25   29 1
    49   26   30 1
    50   27   29 1
    51   28   30 1
