@<TRIPOS>MOLECULE
*****
   48    51     0     0     0
SMALL
NO_CHARGES

@<TRIPOS>ATOM
      1 C1          4.8889   -1.9765   -1.7842 C.ar      1 <0>         0.0000
      2 C2          4.9895   -3.3757    0.1727 C.ar      1 <0>         0.0000
      3 C3          3.0386   -1.4905    1.4514 C.ar      1 <0>         0.0000
      4 C4          2.1420   -1.2350   -0.7711 C.ar      1 <0>         0.0000
      5 C5          5.8578   -2.7673   -2.4036 C.ar      1 <0>         0.0000
      6 C6          5.9739   -4.1583   -0.4229 C.ar      1 <0>         0.0000
      7 C7          1.8426   -1.0203    1.9917 C.ar      1 <0>         0.0000
      8 C8          0.9446   -0.7528   -0.2456 C.ar      1 <0>         0.0000
      9 C9          3.9555   -6.8611   -1.0658 C.ar      1 <0>         0.0000
     10 C10         3.4493   -5.1535   -2.7137 C.ar      1 <0>         0.0000
     11 C11        -0.3017   -3.4040    3.7902 C.ar      1 <0>         0.0000
     12 C12        -2.4785   -2.3849    4.1521 C.ar      1 <0>         0.0000
     13 C13         2.8841   -6.4220   -0.2831 C.ar      1 <0>         0.0000
     14 C14         2.3769   -4.7156   -1.9359 C.ar      1 <0>         0.0000
     15 C15        -0.1966   -3.6721    5.1570 C.ar      1 <0>         0.0000
     16 C16        -2.3711   -2.6440    5.5200 C.ar      1 <0>         0.0000
     17 C17         4.3943   -2.2997   -0.5093 C.ar      1 <0>         0.0000
     18 C18         3.2020   -1.6345    0.0631 C.ar      1 <0>         0.0000
     19 C19         6.3547   -3.8868   -1.7369 C.ar      1 <0>         0.0000
     20 C20         0.7972   -0.6705    1.1382 C.ar      1 <0>         0.0000
     21 C21         4.2469   -6.2034   -2.2612 C.ar      1 <0>         0.0000
     22 C22        -1.4423   -2.7681    3.2999 C.ar      1 <0>         0.0000
     23 C23         2.1151   -5.3378   -0.7141 C.ar      1 <0>         0.0000
     24 C24        -1.2315   -3.2863    6.0112 C.ar      1 <0>         0.0000
     25 O1          7.1843   -4.7440   -2.4802 O.3       1 <0>         0.0000
     26 O2         -0.3862   -0.2265    1.7454 O.3       1 <0>         0.0000
     27 O3          5.3510   -6.5610   -3.0551 O.3       1 <0>         0.0000
     28 O4         -1.5069   -2.5876    1.9127 O.3       1 <0>         0.0000
     29 S1          6.8688   -6.3956   -2.3356 S.3       1 <0>         0.0000
     30 S2         -1.8020   -1.0373    1.3299 S.3       1 <0>         0.0000
     31 Cl1         0.8185   -4.7211    0.2962 Cl        1 <0>         0.0000
     32 Cl2        -1.0987   -3.6120    7.7325 Cl        1 <0>         0.0000
     33 H1          4.4888   -1.1190   -2.3179 H         1 <0>         0.0000
     34 H2          4.6243   -3.6582    1.1550 H         1 <0>         0.0000
     35 H3          3.8511   -1.7563    2.1214 H         1 <0>         0.0000
     36 H4          2.2357   -1.3451   -1.8475 H         1 <0>         0.0000
     37 H5          6.1939   -2.5600   -3.4151 H         1 <0>         0.0000
     38 H6          6.3692   -5.0271    0.0919 H         1 <0>         0.0000
     39 H7          1.7016   -0.9298    3.0644 H         1 <0>         0.0000
     40 H8          0.1186   -0.4864   -0.8978 H         1 <0>         0.0000
     41 H9          4.5774   -7.6864   -0.7328 H         1 <0>         0.0000
     42 H10         3.6989   -4.6602   -3.6470 H         1 <0>         0.0000
     43 H11         0.4872   -3.6843    3.0994 H         1 <0>         0.0000
     44 H12        -3.3548   -1.8825    3.7543 H         1 <0>         0.0000
     45 H13         2.6562   -6.9109    0.6589 H         1 <0>         0.0000
     46 H14         1.7679   -3.8785   -2.2587 H         1 <0>         0.0000
     47 H15         0.6825   -4.1691    5.5548 H         1 <0>         0.0000
     48 H16        -3.1677   -2.3549    6.1980 H         1 <0>         0.0000
@<TRIPOS>BOND
     1    1    5 ar
     2    1   17 ar
     3    1   33 1
     4    2    6 ar
     5    2   17 ar
     6    2   34 1
     7    3    7 ar
     8    3   18 ar
     9    3   35 1
    10    4    8 ar
    11    4   18 ar
    12    4   36 1
    13    5   19 ar
    14    5   37 1
    15    6   19 ar
    16    6   38 1
    17    7   20 ar
    18    7   39 1
    19    8   20 ar
    20    8   40 1
    21    9   13 ar
    22    9   21 ar
    23    9   41 1
    24   10   14 ar
    25   10   21 ar
    26   10   42 1
    27   11   15 ar
    28   11   22 ar
    29   11   43 1
    30   12   16 ar
    31   12   22 ar
    32   12   44 1
    33   13   23 ar
    34   13   45 1
    35   14   23 ar
    36   14   46 1
    37   15   24 ar
    38   15   47 1
    39   16   24 ar
    40   16   48 1
    41   17   18 1
    42   19   25 1
    43   20   26 1
    44   21   27 1
    45   22   28 1
    46   23   31 1
    47   24   32 1
    48   25   29 1
    49   26   30 1
    50   27   29 1
    51   28   30 1
