@<TRIPOS>MOLECULE
*****
   48    51     0     0     0
SMALL
NO_CHARGES

@<TRIPOS>ATOM
      1 C1          4.6153   -1.7769   -1.0672 C.ar      1 <0>         0.0000
      2 C2          4.7855   -3.4856    0.6266 C.ar      1 <0>         0.0000
      3 C3          2.9363   -1.6935    2.2373 C.ar      1 <0>         0.0000
      4 C4          1.8696   -1.2526    0.1194 C.ar      1 <0>         0.0000
      5 C5          5.7050   -2.3303   -1.7410 C.ar      1 <0>         0.0000
      6 C6          5.8805   -4.0442   -0.0323 C.ar      1 <0>         0.0000
      7 C7          1.8465   -1.1440    2.9123 C.ar      1 <0>         0.0000
      8 C8          0.7762   -0.6928    0.7818 C.ar      1 <0>         0.0000
      9 C9          5.8235   -3.8942   -5.2763 C.ar      1 <0>         0.0000
     10 C10         7.7913   -5.2882   -5.5711 C.ar      1 <0>         0.0000
     11 C11        -0.5344    2.9432    0.6429 C.ar      1 <0>         0.0000
     12 C12        -1.9871    3.4419    2.5253 C.ar      1 <0>         0.0000
     13 C13         6.0838   -3.2624   -6.4950 C.ar      1 <0>         0.0000
     14 C14         8.0586   -4.6527   -6.7851 C.ar      1 <0>         0.0000
     15 C15        -1.4743    3.4927   -0.2330 C.ar      1 <0>         0.0000
     16 C16        -2.9317    3.9837    1.6516 C.ar      1 <0>         0.0000
     17 C17         4.1330   -2.3450    0.1243 C.ar      1 <0>         0.0000
     18 C18         2.9700   -1.7586    0.8324 C.ar      1 <0>         0.0000
     19 C19         6.3324   -3.4588   -1.2151 C.ar      1 <0>         0.0000
     20 C20         0.7716   -0.6466    2.1752 C.ar      1 <0>         0.0000
     21 C21         6.6751   -4.9031   -4.8271 C.ar      1 <0>         0.0000
     22 C22        -0.7958    2.9263    2.0127 C.ar      1 <0>         0.0000
     23 C23         7.2023   -3.6450   -7.2376 C.ar      1 <0>         0.0000
     24 C24        -2.6675    4.0052    0.2793 C.ar      1 <0>         0.0000
     25 O1          7.4595   -3.9325   -1.9015 O.3       1 <0>         0.0000
     26 O2         -0.3799   -0.1305    2.7864 O.3       1 <0>         0.0000
     27 O3          6.3238   -5.5388   -3.6305 O.3       1 <0>         0.0000
     28 O4          0.2125    2.4200    2.8411 O.3       1 <0>         0.0000
     29 S1          7.4593   -5.5407   -2.3872 S.3       1 <0>         0.0000
     30 S2         -0.1877    1.1439    3.8639 S.3       1 <0>         0.0000
     31 Cl1         7.5399   -2.8474   -8.7655 Cl        1 <0>         0.0000
     32 Cl2        -3.8568    4.6880   -0.8179 Cl        1 <0>         0.0000
     33 H1          4.1488   -0.8787   -1.4620 H         1 <0>         0.0000
     34 H2          4.4178   -3.9581    1.5331 H         1 <0>         0.0000
     35 H3          3.7844   -2.0559    2.8114 H         1 <0>         0.0000
     36 H4          1.8562   -1.3166   -0.9650 H         1 <0>         0.0000
     37 H5          6.0884   -1.8911   -2.6572 H         1 <0>         0.0000
     38 H6          6.3687   -4.9330    0.3560 H         1 <0>         0.0000
     39 H7          1.8361   -1.0856    3.9965 H         1 <0>         0.0000
     40 H8         -0.0811   -0.3083    0.2374 H         1 <0>         0.0000
     41 H9          4.9645   -3.6183   -4.6725 H         1 <0>         0.0000
     42 H10         8.4479   -6.0708   -5.2035 H         1 <0>         0.0000
     43 H11         0.4019    2.5331    0.2773 H         1 <0>         0.0000
     44 H12        -2.1777    3.4146    3.5937 H         1 <0>         0.0000
     45 H13         5.4289   -2.4777   -6.8602 H         1 <0>         0.0000
     46 H14         8.9208   -4.9408   -7.3780 H         1 <0>         0.0000
     47 H15        -1.2845    3.5164   -1.3013 H         1 <0>         0.0000
     48 H16        -3.8626    4.3912    2.0328 H         1 <0>         0.0000
@<TRIPOS>BOND
     1    1    5 ar
     2    1   17 ar
     3    1   33 1
     4    2    6 ar
     5    2   17 ar
     6    2   34 1
     7    3    7 ar
     8    3   18 ar
     9    3   35 1
    10    4    8 ar
    11    4   18 ar
    12    4   36 1
    13    5   19 ar
    14    5   37 1
    15    6   19 ar
    16    6   38 1
    17    7   20 ar
    18    7   39 1
    19    8   20 ar
    20    8   40 1
    21    9   13 ar
    22    9   21 ar
    23    9   41 1
    24   10   14 ar
    25   10   21 ar
    26   10   42 1
    27   11   15 ar
    28   11   22 ar
    29   11   43 1
    30   12   16 ar
    31   12   22 ar
    32   12   44 1
    33   13   23 ar
    34   13   45 1
    35   14   23 ar
    36   14   46 1
    37   15   24 ar
    38   15   47 1
    39   16   24 ar
    40   16   48 1
    41   17   18 1
    42   19   25 1
    43   20   26 1
    44   21   27 1
    45   22   28 1
    46   23   31 1
    47   24   32 1
    48   25   29 1
    49   26   30 1
    50   27   29 1
    51   28   30 1
