@<TRIPOS>MOLECULE
*****
   30    31     0     0     0
SMALL
NO_CHARGES

@<TRIPOS>ATOM
      1 C1         -1.5242   -3.2989    6.2986 C.ar      1 <0>         0.0000
      2 C2          4.9386   -0.3059    0.1855 C.ar      1 <0>         0.0000
      3 C3         -0.7645   -2.2858    6.8969 C.ar      1 <0>         0.0000
      4 C4         -1.2370   -3.7317    4.9995 C.ar      1 <0>         0.0000
      5 C5          5.2252   -1.6415    0.4912 C.ar      1 <0>         0.0000
      6 C6          4.6824    0.6192    1.2035 C.ar      1 <0>         0.0000
      7 C7          0.2916   -1.6984    6.1995 C.ar      1 <0>         0.0000
      8 C8         -0.1832   -3.1557    4.2861 C.ar      1 <0>         0.0000
      9 C9          5.2544   -2.0649    1.8200 C.ar      1 <0>         0.0000
     10 C10         4.7028    0.2149    2.5388 C.ar      1 <0>         0.0000
     11 C11         0.5588   -2.1465    4.9028 C.ar      1 <0>         0.0000
     12 C12         4.9892   -1.1239    2.8189 C.ar      1 <0>         0.0000
     13 N1          3.2647   -2.3355    4.7597 N.pl3     1 <0>         0.0000
     14 O1          1.8019   -1.7370    2.5931 O.2       1 <0>         0.0000
     15 O2          2.1363   -0.0383    4.4750 O.2       1 <0>         0.0000
     16 O3          5.7952   -2.8461    4.6722 O.2       1 <0>         0.0000
     17 O4          4.9869   -0.5336    5.4166 O.2       1 <0>         0.0000
     18 F1          3.2303   -3.5916    4.0975 F         1 <0>         0.0000
     19 S1          1.9049   -1.4016    4.0092 S.o2      1 <0>         0.0000
     20 S2          4.9548   -1.6697    4.5099 S.o2      1 <0>         0.0000
     21 H1         -2.3445   -3.7524    6.8483 H         1 <0>         0.0000
     22 H2          4.9152    0.0154   -0.8523 H         1 <0>         0.0000
     23 H3         -0.9941   -1.9537    7.9052 H         1 <0>         0.0000
     24 H4         -1.8315   -4.5166    4.5411 H         1 <0>         0.0000
     25 H5          5.4255   -2.3531   -0.3044 H         1 <0>         0.0000
     26 H6          4.4605    1.6540    0.9595 H         1 <0>         0.0000
     27 H7          0.8922   -0.9092    6.6404 H         1 <0>         0.0000
     28 H8          0.0586   -3.4694    3.2760 H         1 <0>         0.0000
     29 H9          5.4775   -3.0936    2.0823 H         1 <0>         0.0000
     30 H10         4.4886    0.9073    3.3453 H         1 <0>         0.0000
@<TRIPOS>BOND
     1    1    4 ar
     2    1    3 ar
     3    1   21 1
     4    2    6 ar
     5    2    5 ar
     6    2   22 1
     7    3    7 ar
     8    3   23 1
     9    4    8 ar
    10    4   24 1
    11    5    9 ar
    12    5   25 1
    13    6   10 ar
    14    6   26 1
    15    7   11 ar
    16    7   27 1
    17    8   11 ar
    18    8   28 1
    19    9   12 ar
    20    9   29 1
    21   10   12 ar
    22   10   30 1
    23   11   19 1
    24   12   20 1
    25   13   18 1
    26   13   19 1
    27   13   20 1
    28   14   19 2
    29   15   19 2
    30   16   20 2
    31   17   20 2
