@<TRIPOS>MOLECULE
*****
    8     7     0     0     0
SMALL
NO_CHARGES

@<TRIPOS>ATOM
      1 C1          0.5161    0.0952   -2.0608 C.1       1 <0>         0.0000
      2 C2          0.7644   -0.3984   -0.6992 C.3       1 <0>         0.0000
      3 N1          1.1023   -2.9734    1.3788 N.1       1 <0>         0.0000
      4 N2          0.3237    0.5300   -3.1203 N.1       1 <0>         0.0000
      5 N3          0.7390   -1.8767   -0.7076 N.2       1 <0>         0.0000
      6 N4          0.9353   -2.3842    0.4124 N.1       1 <0>         0.0000
      7 H1          1.7374   -0.0148   -0.3670 H         1 <0>         0.0000
      8 H2         -0.0086    0.0137   -0.0382 H         1 <0>         0.0000
@<TRIPOS>BOND
     1    1    2 1
     2    1    4 3
     3    2    5 1
     4    2    7 1
     5    2    8 1
     6    3    6 2
     7    5    6 2
