@<TRIPOS>MOLECULE
*****
   48    51     0     0     0
SMALL
NO_CHARGES

@<TRIPOS>ATOM
      1 C1          4.7782   -1.7050   -1.9896 C.ar      1 <0>         0.0000
      2 C2          5.3046   -2.9449    0.0135 C.ar      1 <0>         0.0000
      3 C3          3.1547   -1.2074    1.3024 C.ar      1 <0>         0.0000
      4 C4          1.9985   -1.5225   -0.7954 C.ar      1 <0>         0.0000
      5 C5          5.9194   -2.2113   -2.6093 C.ar      1 <0>         0.0000
      6 C6          6.4467   -3.4623   -0.5979 C.ar      1 <0>         0.0000
      7 C7          1.9701   -0.7671    1.8950 C.ar      1 <0>         0.0000
      8 C8          0.8093   -1.0835   -0.2145 C.ar      1 <0>         0.0000
      9 C9          4.6497   -4.3123   -5.1848 C.ar      1 <0>         0.0000
     10 C10         4.5325   -5.3200   -2.9794 C.ar      1 <0>         0.0000
     11 C11         0.4274   -1.8359    5.3556 C.ar      1 <0>         0.0000
     12 C12        -1.6816   -0.6477    5.1616 C.ar      1 <0>         0.0000
     13 C13         3.3097   -3.9328   -5.0885 C.ar      1 <0>         0.0000
     14 C14         3.1973   -4.9268   -2.8743 C.ar      1 <0>         0.0000
     15 C15         0.6287   -1.2837    6.6224 C.ar      1 <0>         0.0000
     16 C16        -1.4776   -0.0886    6.4253 C.ar      1 <0>         0.0000
     17 C17         4.4398   -2.0776   -0.6774 C.ar      1 <0>         0.0000
     18 C18         3.1888   -1.5922   -0.0486 C.ar      1 <0>         0.0000
     19 C19         6.7297   -3.1090   -1.9166 C.ar      1 <0>         0.0000
     20 C20         0.8072   -0.7059    1.1281 C.ar      1 <0>         0.0000
     21 C21         5.2568   -4.9891   -4.1256 C.ar      1 <0>         0.0000
     22 C22        -0.7262   -1.5187    4.6362 C.ar      1 <0>         0.0000
     23 C23         2.5975   -4.2316   -3.9258 C.ar      1 <0>         0.0000
     24 C24        -0.3258   -0.4100    7.1469 C.ar      1 <0>         0.0000
     25 O1          7.8178   -3.6787   -2.6012 O.3       1 <0>         0.0000
     26 O2         -0.3543   -0.2070    1.7348 O.3       1 <0>         0.0000
     27 O3          6.6168   -5.2818   -4.3089 O.3       1 <0>         0.0000
     28 O4         -0.8602   -2.1635    3.4006 O.3       1 <0>         0.0000
     29 S1          7.6348   -5.3134   -2.9691 S.3       1 <0>         0.0000
     30 S2         -1.5481   -1.3310    2.1121 S.3       1 <0>         0.0000
     31 Cl1         0.9211   -3.7184   -3.7820 Cl        1 <0>         0.0000
     32 Cl2        -0.0728    0.2977    8.7346 Cl        1 <0>         0.0000
     33 H1          4.1399   -1.0153   -2.5339 H         1 <0>         0.0000
     34 H2          5.0588   -3.2529    1.0260 H         1 <0>         0.0000
     35 H3          4.0679   -1.2287    1.8908 H         1 <0>         0.0000
     36 H4          1.9928   -1.8427   -1.8325 H         1 <0>         0.0000
     37 H5          6.1687   -1.9497   -3.6326 H         1 <0>         0.0000
     38 H6          7.0917   -4.1627   -0.0752 H         1 <0>         0.0000
     39 H7          1.9368   -0.4576    2.9354 H         1 <0>         0.0000
     40 H8         -0.1111   -1.0443   -0.7901 H         1 <0>         0.0000
     41 H9          5.2375   -4.0700   -6.0647 H         1 <0>         0.0000
     42 H10         5.0113   -5.8365   -2.1553 H         1 <0>         0.0000
     43 H11         1.1526   -2.5156    4.9187 H         1 <0>         0.0000
     44 H12        -2.5692   -0.3974    4.5901 H         1 <0>         0.0000
     45 H13         2.8306   -3.3973   -5.9018 H         1 <0>         0.0000
     46 H14         2.6320   -5.1517   -1.9758 H         1 <0>         0.0000
     47 H15         1.5206   -1.5246    7.1920 H         1 <0>         0.0000
     48 H16        -2.2117    0.5905    6.8470 H         1 <0>         0.0000
@<TRIPOS>BOND
     1    1    5 ar
     2    1   17 ar
     3    1   33 1
     4    2    6 ar
     5    2   17 ar
     6    2   34 1
     7    3    7 ar
     8    3   18 ar
     9    3   35 1
    10    4    8 ar
    11    4   18 ar
    12    4   36 1
    13    5   19 ar
    14    5   37 1
    15    6   19 ar
    16    6   38 1
    17    7   20 ar
    18    7   39 1
    19    8   20 ar
    20    8   40 1
    21    9   13 ar
    22    9   21 ar
    23    9   41 1
    24   10   14 ar
    25   10   21 ar
    26   10   42 1
    27   11   15 ar
    28   11   22 ar
    29   11   43 1
    30   12   16 ar
    31   12   22 ar
    32   12   44 1
    33   13   23 ar
    34   13   45 1
    35   14   23 ar
    36   14   46 1
    37   15   24 ar
    38   15   47 1
    39   16   24 ar
    40   16   48 1
    41   17   18 1
    42   19   25 1
    43   20   26 1
    44   21   27 1
    45   22   28 1
    46   23   31 1
    47   24   32 1
    48   25   29 1
    49   26   30 1
    50   27   29 1
    51   28   30 1
