@<TRIPOS>MOLECULE
*****
   14    14     0     0     0
SMALL
NO_CHARGES

@<TRIPOS>ATOM
      1 C1          0.3401   -3.2542    0.8002 C.2       1 <0>         0.0000
      2 C2          0.3819   -2.0129    0.2040 C.2       1 <0>         0.0000
      3 C3          0.8025   -0.7065    0.8335 C.3       1 <0>         0.0000
      4 N1         -0.0393   -4.2825   -0.0251 N.2       1 <0>         0.0000
      5 N2         -0.3032   -3.9330   -1.2295 N.2       1 <0>         0.0000
      6 N3          2.0338    0.1429   -1.0272 N.3       1 <0>         0.0000
      7 N4          2.0897   -0.1808    0.3679 N.3       1 <0>         0.0000
      8 S1         -0.0876   -2.2173   -1.4343 S.3       1 <0>         0.0000
      9 H1          0.5703   -3.4684    1.8382 H         1 <0>         0.0000
     10 H2          0.0508    0.0647    0.6501 H         1 <0>         0.0000
     11 H3          0.8788   -0.8499    1.9164 H         1 <0>         0.0000
     12 H4          2.6078    0.9702   -1.1743 H         1 <0>         0.0000
     13 H5          2.4037   -0.6087   -1.6109 H         1 <0>         0.0000
     14 H6          2.8250   -0.8615    0.5624 H         1 <0>         0.0000
@<TRIPOS>BOND
     1    1    2 2
     2    1    4 1
     3    1    9 1
     4    2    3 1
     5    2    8 1
     6    3    7 1
     7    3   10 1
     8    3   11 1
     9    4    5 2
    10    5    8 1
    11    6    7 1
    12    6   12 1
    13    6   13 1
    14    7   14 1
