@<TRIPOS>MOLECULE
*****
   24    24     0     0     0
SMALL
NO_CHARGES

@<TRIPOS>ATOM
      1 C1          4.0629    0.9257   -5.7283 C.2       1 <0>         0.0000
      2 C2          3.6780    0.3107   -4.5720 C.2       1 <0>         0.0000
      3 C3          5.4752   -0.9818   -4.9421 C.2       1 <0>         0.0000
      4 C4          2.8261    1.0197   -2.2954 C.2       1 <0>         0.0000
      5 C5          4.3550    2.0940   -0.8588 C.3       1 <0>         0.0000
      6 C6          6.3413   -2.2364   -2.1319 C.3       1 <0>         0.0000
      7 C7          2.4856    0.6971   -3.7402 C.3       1 <0>         0.0000
      8 N1          4.4475   -0.7425   -4.1335 N.2       1 <0>         0.0000
      9 N2          6.4797   -1.8617   -4.8743 N.2       1 <0>         0.0000
     10 O1          2.1851    0.6536   -1.3254 O.2       1 <0>         0.0000
     11 O2          7.7338   -3.7383   -3.7980 O.2       1 <0>         0.0000
     12 O3          5.2163   -3.9068   -3.8512 O.2       1 <0>         0.0000
     13 O4          3.9214    1.8101   -2.1969 O.3       1 <0>         0.0000
     14 S1          5.5040    0.1489   -6.3560 S.3       1 <0>         0.0000
     15 S2          6.4234   -3.0539   -3.7560 S.o2      1 <0>         0.0000
     16 H1          3.6088    1.7790   -6.2159 H         1 <0>         0.0000
     17 H2          5.2563    2.6989   -0.9665 H         1 <0>         0.0000
     18 H3          4.5805    1.1657   -0.3276 H         1 <0>         0.0000
     19 H4          3.5858    2.6429   -0.3072 H         1 <0>         0.0000
     20 H5          6.3443   -3.0292   -1.3803 H         1 <0>         0.0000
     21 H6          7.2254   -1.6039   -2.0290 H         1 <0>         0.0000
     22 H7          5.4234   -1.6502   -2.0923 H         1 <0>         0.0000
     23 H8          1.9975    1.5786   -4.1724 H         1 <0>         0.0000
     24 H9          1.7524   -0.1132   -3.7037 H         1 <0>         0.0000
@<TRIPOS>BOND
     1    1    2 2
     2    1   14 1
     3    1   16 1
     4    2    7 1
     5    2    8 1
     6    3    8 2
     7    3    9 1
     8    3   14 1
     9    4    7 1
    10    4   10 2
    11    4   13 1
    12    5   13 1
    13    5   17 1
    14    5   18 1
    15    5   19 1
    16    6   15 1
    17    6   20 1
    18    6   21 1
    19    6   22 1
    20    7   23 1
    21    7   24 1
    22    9   15 1
    23   11   15 2
    24   12   15 2
