@<TRIPOS>MOLECULE
*****
   48    51     0     0     0
SMALL
NO_CHARGES

@<TRIPOS>ATOM
      1 C1          4.2617   -1.3440   -1.6592 C.ar      1 <0>         0.0000
      2 C2          3.9173   -3.6022   -0.8788 C.ar      1 <0>         0.0000
      3 C3          2.6283   -2.2878    1.5343 C.ar      1 <0>         0.0000
      4 C4          1.7693   -0.6927   -0.0572 C.ar      1 <0>         0.0000
      5 C5          5.1605   -1.8066   -2.6206 C.ar      1 <0>         0.0000
      6 C6          4.8176   -4.0781   -1.8326 C.ar      1 <0>         0.0000
      7 C7          1.7322   -1.8258    2.4981 C.ar      1 <0>         0.0000
      8 C8          0.8618   -0.2264    0.8945 C.ar      1 <0>         0.0000
      9 C9          5.5429   -8.0501   -4.8999 C.ar      1 <0>         0.0000
     10 C10         7.3631   -6.6672   -4.0713 C.ar      1 <0>         0.0000
     11 C11        -2.9794   -0.6467    0.9272 C.ar      1 <0>         0.0000
     12 C12        -4.0058   -0.3489    3.1094 C.ar      1 <0>         0.0000
     13 C13         6.3344   -9.1901   -4.7519 C.ar      1 <0>         0.0000
     14 C14         8.1572   -7.8092   -3.9313 C.ar      1 <0>         0.0000
     15 C15        -3.9265    0.2105    0.3609 C.ar      1 <0>         0.0000
     16 C16        -4.9487    0.5143    2.5481 C.ar      1 <0>         0.0000
     17 C17         3.6227   -2.2312   -0.7743 C.ar      1 <0>         0.0000
     18 C18         2.6656   -1.7331    0.2422 C.ar      1 <0>         0.0000
     19 C19         5.4323   -3.1722   -2.6981 C.ar      1 <0>         0.0000
     20 C20         0.8527   -0.7945    2.1681 C.ar      1 <0>         0.0000
     21 C21         6.0624   -6.7979   -4.5633 C.ar      1 <0>         0.0000
     22 C22        -3.0301   -0.9226    2.2931 C.ar      1 <0>         0.0000
     23 C23         7.6395   -9.0599   -4.2708 C.ar      1 <0>         0.0000
     24 C24        -4.9013    0.7862    1.1779 C.ar      1 <0>         0.0000
     25 O1          6.3791   -3.6330   -3.6233 O.3       1 <0>         0.0000
     26 O2         -0.0436   -0.2368    3.0907 O.3       1 <0>         0.0000
     27 O3          5.1792   -5.7213   -4.6948 O.3       1 <0>         0.0000
     28 O4         -2.0949   -1.8362    2.7936 O.3       1 <0>         0.0000
     29 S1          5.7802   -4.2070   -5.0948 S.3       1 <0>         0.0000
     30 S2         -1.0263   -1.2769    3.9695 S.3       1 <0>         0.0000
     31 Cl1         8.6410  -10.4914   -4.0863 Cl        1 <0>         0.0000
     32 Cl2        -6.0890    1.8709    0.4724 Cl        1 <0>         0.0000
     33 H1          4.0758   -0.2769   -1.5769 H         1 <0>         0.0000
     34 H2          3.4158   -4.3103   -0.2251 H         1 <0>         0.0000
     35 H3          3.3327   -3.0703    1.8020 H         1 <0>         0.0000
     36 H4          1.7554   -0.2651   -1.0559 H         1 <0>         0.0000
     37 H5          5.6629   -1.1213   -3.2972 H         1 <0>         0.0000
     38 H6          5.0378   -5.1374   -1.9180 H         1 <0>         0.0000
     39 H7          1.7170   -2.2581    3.4938 H         1 <0>         0.0000
     40 H8          0.1577    0.5681    0.6658 H         1 <0>         0.0000
     41 H9          4.5272   -8.1202   -5.2770 H         1 <0>         0.0000
     42 H10         7.7536   -5.6953   -3.7915 H         1 <0>         0.0000
     43 H11        -2.2056   -1.1078    0.3212 H         1 <0>         0.0000
     44 H12        -4.0251   -0.5702    4.1722 H         1 <0>         0.0000
     45 H13         5.9437  -10.1679   -5.0146 H         1 <0>         0.0000
     46 H14         9.1700   -7.7246   -3.5503 H         1 <0>         0.0000
     47 H15        -3.9038    0.4330   -0.7011 H         1 <0>         0.0000
     48 H16        -5.7166    0.9677    3.1667 H         1 <0>         0.0000
@<TRIPOS>BOND
     1    1    5 ar
     2    1   17 ar
     3    1   33 1
     4    2    6 ar
     5    2   17 ar
     6    2   34 1
     7    3    7 ar
     8    3   18 ar
     9    3   35 1
    10    4    8 ar
    11    4   18 ar
    12    4   36 1
    13    5   19 ar
    14    5   37 1
    15    6   19 ar
    16    6   38 1
    17    7   20 ar
    18    7   39 1
    19    8   20 ar
    20    8   40 1
    21    9   13 ar
    22    9   21 ar
    23    9   41 1
    24   10   14 ar
    25   10   21 ar
    26   10   42 1
    27   11   15 ar
    28   11   22 ar
    29   11   43 1
    30   12   16 ar
    31   12   22 ar
    32   12   44 1
    33   13   23 ar
    34   13   45 1
    35   14   23 ar
    36   14   46 1
    37   15   24 ar
    38   15   47 1
    39   16   24 ar
    40   16   48 1
    41   17   18 1
    42   19   25 1
    43   20   26 1
    44   21   27 1
    45   22   28 1
    46   23   31 1
    47   24   32 1
    48   25   29 1
    49   26   30 1
    50   27   29 1
    51   28   30 1
