@<TRIPOS>MOLECULE
*****
   48    51     0     0     0
SMALL
NO_CHARGES

@<TRIPOS>ATOM
      1 C1          4.5810   -2.9673   -1.4199 C.ar      1 <0>         0.0000
      2 C2          5.9872   -1.9957    0.2845 C.ar      1 <0>         0.0000
      3 C3          3.3540   -1.3221    1.6679 C.ar      1 <0>         0.0000
      4 C4          2.5812   -0.8575   -0.5703 C.ar      1 <0>         0.0000
      5 C5          5.6931   -3.5787   -1.9964 C.ar      1 <0>         0.0000
      6 C6          7.1082   -2.5992   -0.2857 C.ar      1 <0>         0.0000
      7 C7          2.2494   -0.6493    2.1922 C.ar      1 <0>         0.0000
      8 C8          1.4787   -0.1734   -0.0595 C.ar      1 <0>         0.0000
      9 C9          6.8712   -0.6059   -3.2396 C.ar      1 <0>         0.0000
     10 C10         6.0489   -1.9072   -5.1167 C.ar      1 <0>         0.0000
     11 C11        -0.8470   -2.0279    4.1295 C.ar      1 <0>         0.0000
     12 C12        -2.8802   -0.7005    4.0359 C.ar      1 <0>         0.0000
     13 C13         5.6664    0.0980   -3.2042 C.ar      1 <0>         0.0000
     14 C14         4.8496   -1.1931   -5.0932 C.ar      1 <0>         0.0000
     15 C15        -1.0179   -2.1981    5.5059 C.ar      1 <0>         0.0000
     16 C16        -3.0502   -0.8629    5.4120 C.ar      1 <0>         0.0000
     17 C17         4.7102   -2.1493   -0.2842 C.ar      1 <0>         0.0000
     18 C18         3.5362   -1.4434    0.2801 C.ar      1 <0>         0.0000
     19 C19         6.9529   -3.3660   -1.4397 C.ar      1 <0>         0.0000
     20 C20         1.3208   -0.0762    1.3233 C.ar      1 <0>         0.0000
     21 C21         7.0455   -1.6200   -4.1825 C.ar      1 <0>         0.0000
     22 C22        -1.7804   -1.2855    3.4068 C.ar      1 <0>         0.0000
     23 C23         4.6631   -0.2035   -4.1266 C.ar      1 <0>         0.0000
     24 C24        -2.1171   -1.6109    6.1354 C.ar      1 <0>         0.0000
     25 O1          8.0667   -3.9134   -2.1011 O.3       1 <0>         0.0000
     26 O2          0.2703    0.6367    1.9190 O.3       1 <0>         0.0000
     27 O3          8.1910   -2.4257   -4.2691 O.3       1 <0>         0.0000
     28 O4         -1.5980   -1.1960    2.0221 O.3       1 <0>         0.0000
     29 S1          9.0516   -2.7799   -2.8667 S.3       1 <0>         0.0000
     30 S2         -1.2936    0.3355    1.3883 S.3       1 <0>         0.0000
     31 Cl1         3.1389    0.6728   -4.0673 Cl        1 <0>         0.0000
     32 Cl2        -2.3328   -1.8155    7.8664 Cl        1 <0>         0.0000
     33 H1          3.6010   -3.1237   -1.8609 H         1 <0>         0.0000
     34 H2          6.1128   -1.3611    1.1575 H         1 <0>         0.0000
     35 H3          4.0636   -1.7868    2.3471 H         1 <0>         0.0000
     36 H4          2.7188   -0.9017   -1.6461 H         1 <0>         0.0000
     37 H5          5.6024   -4.1861   -2.8911 H         1 <0>         0.0000
     38 H6          8.0987   -2.4464    0.1330 H         1 <0>         0.0000
     39 H7          2.0946   -0.5612    3.2635 H         1 <0>         0.0000
     40 H8          0.7542    0.2826   -0.7269 H         1 <0>         0.0000
     41 H9          7.6438   -0.3940   -2.5094 H         1 <0>         0.0000
     42 H10         6.2131   -2.7007   -5.8391 H         1 <0>         0.0000
     43 H11        -0.0023   -2.4689    3.6093 H         1 <0>         0.0000
     44 H12        -3.5932   -0.1219    3.4563 H         1 <0>         0.0000
     45 H13         5.5074    0.8687   -2.4571 H         1 <0>         0.0000
     46 H14         4.0642   -1.4147   -5.8088 H         1 <0>         0.0000
     47 H15        -0.3030   -2.7756    6.0833 H         1 <0>         0.0000
     48 H16        -3.9011   -0.4180    5.9179 H         1 <0>         0.0000
@<TRIPOS>BOND
     1    1    5 ar
     2    1   17 ar
     3    1   33 1
     4    2    6 ar
     5    2   17 ar
     6    2   34 1
     7    3    7 ar
     8    3   18 ar
     9    3   35 1
    10    4    8 ar
    11    4   18 ar
    12    4   36 1
    13    5   19 ar
    14    5   37 1
    15    6   19 ar
    16    6   38 1
    17    7   20 ar
    18    7   39 1
    19    8   20 ar
    20    8   40 1
    21    9   13 ar
    22    9   21 ar
    23    9   41 1
    24   10   14 ar
    25   10   21 ar
    26   10   42 1
    27   11   15 ar
    28   11   22 ar
    29   11   43 1
    30   12   16 ar
    31   12   22 ar
    32   12   44 1
    33   13   23 ar
    34   13   45 1
    35   14   23 ar
    36   14   46 1
    37   15   24 ar
    38   15   47 1
    39   16   24 ar
    40   16   48 1
    41   17   18 1
    42   19   25 1
    43   20   26 1
    44   21   27 1
    45   22   28 1
    46   23   31 1
    47   24   32 1
    48   25   29 1
    49   26   30 1
    50   27   29 1
    51   28   30 1
