@<TRIPOS>MOLECULE
*****
   48    51     0     0     0
SMALL
NO_CHARGES

@<TRIPOS>ATOM
      1 C1          4.6720   -3.0603   -1.3561 C.ar      1 <0>         0.0000
      2 C2          6.1476   -1.7188    0.0045 C.ar      1 <0>         0.0000
      3 C3          3.5980   -1.0332    1.5280 C.ar      1 <0>         0.0000
      4 C4          2.5222   -1.0994   -0.6317 C.ar      1 <0>         0.0000
      5 C5          5.7646   -3.7692   -1.8522 C.ar      1 <0>         0.0000
      6 C6          7.2503   -2.4157   -0.4902 C.ar      1 <0>         0.0000
      7 C7          2.4295   -0.5340    2.1031 C.ar      1 <0>         0.0000
      8 C8          1.3481   -0.6038   -0.0683 C.ar      1 <0>         0.0000
      9 C9          5.9440   -7.3069   -1.1438 C.ar      1 <0>         0.0000
     10 C10         8.1228   -7.9274   -2.0223 C.ar      1 <0>         0.0000
     11 C11        -0.6830   -3.6165   -0.2992 C.ar      1 <0>         0.0000
     12 C12         0.8893   -3.6298    1.5493 C.ar      1 <0>         0.0000
     13 C13         5.3380   -8.2728   -1.9495 C.ar      1 <0>         0.0000
     14 C14         7.5173   -8.8877   -2.8362 C.ar      1 <0>         0.0000
     15 C15         0.1428   -4.4844   -1.0156 C.ar      1 <0>         0.0000
     16 C16         1.7247   -4.4848    0.8273 C.ar      1 <0>         0.0000
     17 C17         4.8413   -2.0333   -0.4119 C.ar      1 <0>         0.0000
     18 C18         3.6539   -1.3584    0.1605 C.ar      1 <0>         0.0000
     19 C19         7.0459   -3.4435   -1.4117 C.ar      1 <0>         0.0000
     20 C20         1.3006   -0.3615    1.3031 C.ar      1 <0>         0.0000
     21 C21         7.3295   -7.1460   -1.1820 C.ar      1 <0>         0.0000
     22 C22        -0.3018   -3.1859    0.9736 C.ar      1 <0>         0.0000
     23 C23         6.1308   -9.0541   -2.7926 C.ar      1 <0>         0.0000
     24 C24         1.3469   -4.9053   -0.4482 C.ar      1 <0>         0.0000
     25 O1          8.1073   -4.1817   -1.9536 O.3       1 <0>         0.0000
     26 O2          0.0620   -0.0042    1.8629 O.3       1 <0>         0.0000
     27 O3          7.8579   -6.1946   -0.2995 O.3       1 <0>         0.0000
     28 O4         -1.2000   -2.2982    1.5866 O.3       1 <0>         0.0000
     29 S1          9.0072   -5.1093   -0.8722 S.3       1 <0>         0.0000
     30 S2         -0.6563   -1.2331    2.7693 S.3       1 <0>         0.0000
     31 Cl1         5.3730  -10.2620   -3.8187 Cl        1 <0>         0.0000
     32 Cl2         2.4045   -5.9784   -1.3605 Cl        1 <0>         0.0000
     33 H1          3.6736   -3.3462   -1.6689 H         1 <0>         0.0000
     34 H2          6.3071   -0.9066    0.7086 H         1 <0>         0.0000
     35 H3          4.4586   -1.2275    2.1618 H         1 <0>         0.0000
     36 H4          2.5522   -1.3069   -1.6971 H         1 <0>         0.0000
     37 H5          5.6349   -4.5853   -2.5559 H         1 <0>         0.0000
     38 H6          8.2568   -2.1739   -0.1618 H         1 <0>         0.0000
     39 H7          2.3725   -0.3334    3.1691 H         1 <0>         0.0000
     40 H8          0.4562   -0.4479   -0.6669 H         1 <0>         0.0000
     41 H9          5.3514   -6.6747   -0.4906 H         1 <0>         0.0000
     42 H10         9.1980   -7.7820   -2.0516 H         1 <0>         0.0000
     43 H11        -1.6155   -3.2566   -0.7229 H         1 <0>         0.0000
     44 H12         1.1883   -3.2866    2.5326 H         1 <0>         0.0000
     45 H13         4.2618   -8.4110   -1.9252 H         1 <0>         0.0000
     46 H14         8.1188   -9.5048   -3.4959 H         1 <0>         0.0000
     47 H15        -0.1428   -4.8202   -2.0073 H         1 <0>         0.0000
     48 H16         2.6664   -4.8132    1.2549 H         1 <0>         0.0000
@<TRIPOS>BOND
     1    1    5 ar
     2    1   17 ar
     3    1   33 1
     4    2    6 ar
     5    2   17 ar
     6    2   34 1
     7    3    7 ar
     8    3   18 ar
     9    3   35 1
    10    4    8 ar
    11    4   18 ar
    12    4   36 1
    13    5   19 ar
    14    5   37 1
    15    6   19 ar
    16    6   38 1
    17    7   20 ar
    18    7   39 1
    19    8   20 ar
    20    8   40 1
    21    9   13 ar
    22    9   21 ar
    23    9   41 1
    24   10   14 ar
    25   10   21 ar
    26   10   42 1
    27   11   15 ar
    28   11   22 ar
    29   11   43 1
    30   12   16 ar
    31   12   22 ar
    32   12   44 1
    33   13   23 ar
    34   13   45 1
    35   14   23 ar
    36   14   46 1
    37   15   24 ar
    38   15   47 1
    39   16   24 ar
    40   16   48 1
    41   17   18 1
    42   19   25 1
    43   20   26 1
    44   21   27 1
    45   22   28 1
    46   23   31 1
    47   24   32 1
    48   25   29 1
    49   26   30 1
    50   27   29 1
    51   28   30 1
