@<TRIPOS>MOLECULE
*****
   48    51     0     0     0
SMALL
NO_CHARGES

@<TRIPOS>ATOM
      1 C1          4.1663   -1.4212   -1.5413 C.ar      1 <0>         0.0000
      2 C2          5.2419    0.0168    0.0659 C.ar      1 <0>         0.0000
      3 C3          2.7856   -0.4954    1.7746 C.ar      1 <0>         0.0000
      4 C4          1.5773   -0.4233   -0.3113 C.ar      1 <0>         0.0000
      5 C5          5.3621   -1.5471   -2.2503 C.ar      1 <0>         0.0000
      6 C6          6.4427   -0.0907   -0.6348 C.ar      1 <0>         0.0000
      7 C7          1.5853   -0.3861    2.4782 C.ar      1 <0>         0.0000
      8 C8          0.3712   -0.3063    0.3789 C.ar      1 <0>         0.0000
      9 C9          8.5482   -4.5797   -5.3103 C.ar      1 <0>         0.0000
     10 C10         9.4745   -3.5588   -3.3074 C.ar      1 <0>         0.0000
     11 C11        -0.1507   -2.9757    4.8327 C.ar      1 <0>         0.0000
     12 C12        -2.5244   -2.5477    5.1244 C.ar      1 <0>         0.0000
     13 C13         9.5118   -5.5881   -5.2480 C.ar      1 <0>         0.0000
     14 C14        10.4444   -4.5633   -3.2516 C.ar      1 <0>         0.0000
     15 C15        -0.0055   -3.1315    6.2137 C.ar      1 <0>         0.0000
     16 C16        -2.3809   -2.6945    6.5053 C.ar      1 <0>         0.0000
     17 C17         4.0804   -0.6419   -0.3749 C.ar      1 <0>         0.0000
     18 C18         2.8047   -0.5199    0.3695 C.ar      1 <0>         0.0000
     19 C19         6.4936   -0.8709   -1.7909 C.ar      1 <0>         0.0000
     20 C20         0.3860   -0.2885    1.7738 C.ar      1 <0>         0.0000
     21 C21         8.5376   -3.5731   -4.3430 C.ar      1 <0>         0.0000
     22 C22        -1.4075   -2.6903    4.3000 C.ar      1 <0>         0.0000
     23 C23        10.4563   -5.5695   -4.2192 C.ar      1 <0>         0.0000
     24 C24        -1.1223   -2.9858    7.0386 C.ar      1 <0>         0.0000
     25 O1          7.7474   -0.9724   -2.4093 O.3       1 <0>         0.0000
     26 O2         -0.7784   -0.1183    2.5364 O.3       1 <0>         0.0000
     27 O3          7.5060   -2.6328   -4.4472 O.3       1 <0>         0.0000
     28 O4         -1.5025   -2.6082    2.9059 O.3       1 <0>         0.0000
     29 S1          7.8308   -1.0229   -4.0851 S.3       1 <0>         0.0000
     30 S2         -2.0638   -1.1609    2.2527 S.3       1 <0>         0.0000
     31 Cl1        11.6741   -6.8328   -4.1398 Cl        1 <0>         0.0000
     32 Cl2        -0.9440   -3.1716    8.7760 Cl        1 <0>         0.0000
     33 H1          3.2942   -1.9713   -1.8835 H         1 <0>         0.0000
     34 H2          5.1994    0.6517    0.9464 H         1 <0>         0.0000
     35 H3          3.7155   -0.5977    2.3269 H         1 <0>         0.0000
     36 H4          1.5674   -0.4054   -1.3975 H         1 <0>         0.0000
     37 H5          5.4171   -2.1758   -3.1324 H         1 <0>         0.0000
     38 H6          7.3364    0.4318   -0.3066 H         1 <0>         0.0000
     39 H7          1.5627   -0.3783    3.5639 H         1 <0>         0.0000
     40 H8         -0.5697   -0.2252   -0.1569 H         1 <0>         0.0000
     41 H9          7.8063   -4.5648   -6.1028 H         1 <0>         0.0000
     42 H10         9.4464   -2.7842   -2.5491 H         1 <0>         0.0000
     43 H11         0.6979   -3.0791    4.1633 H         1 <0>         0.0000
     44 H12        -3.4941   -2.3189    4.6929 H         1 <0>         0.0000
     45 H13         9.5332   -6.3747   -5.9954 H         1 <0>         0.0000
     46 H14        11.1795   -4.5677   -2.4532 H         1 <0>         0.0000
     47 H15         0.9650   -3.3574    6.6439 H         1 <0>         0.0000
     48 H16        -3.2390   -2.5895    7.1616 H         1 <0>         0.0000
@<TRIPOS>BOND
     1    1    5 ar
     2    1   17 ar
     3    1   33 1
     4    2    6 ar
     5    2   17 ar
     6    2   34 1
     7    3    7 ar
     8    3   18 ar
     9    3   35 1
    10    4    8 ar
    11    4   18 ar
    12    4   36 1
    13    5   19 ar
    14    5   37 1
    15    6   19 ar
    16    6   38 1
    17    7   20 ar
    18    7   39 1
    19    8   20 ar
    20    8   40 1
    21    9   13 ar
    22    9   21 ar
    23    9   41 1
    24   10   14 ar
    25   10   21 ar
    26   10   42 1
    27   11   15 ar
    28   11   22 ar
    29   11   43 1
    30   12   16 ar
    31   12   22 ar
    32   12   44 1
    33   13   23 ar
    34   13   45 1
    35   14   23 ar
    36   14   46 1
    37   15   24 ar
    38   15   47 1
    39   16   24 ar
    40   16   48 1
    41   17   18 1
    42   19   25 1
    43   20   26 1
    44   21   27 1
    45   22   28 1
    46   23   31 1
    47   24   32 1
    48   25   29 1
    49   26   30 1
    50   27   29 1
    51   28   30 1
