@<TRIPOS>MOLECULE
*****
   48    51     0     0     0
SMALL
NO_CHARGES

@<TRIPOS>ATOM
      1 C1          3.4100   -1.9385   -1.5743 C.ar      1 <0>         0.0000
      2 C2          4.8715   -1.8896    0.3413 C.ar      1 <0>         0.0000
      3 C3          2.3232   -2.1414    1.9684 C.ar      1 <0>         0.0000
      4 C4          1.3571   -0.7027    0.2905 C.ar      1 <0>         0.0000
      5 C5          4.4983   -2.1732   -2.4163 C.ar      1 <0>         0.0000
      6 C6          5.9711   -2.1153   -0.4860 C.ar      1 <0>         0.0000
      7 C7          1.2348   -1.9090    2.8087 C.ar      1 <0>         0.0000
      8 C8          0.2578   -0.4686    1.1180 C.ar      1 <0>         0.0000
      9 C9          6.4261   -4.2960   -6.9547 C.ar      1 <0>         0.0000
     10 C10         7.5270   -4.8154   -4.8499 C.ar      1 <0>         0.0000
     11 C11        -3.5446   -1.2235    0.5353 C.ar      1 <0>         0.0000
     12 C12        -4.7408   -1.2195    2.6497 C.ar      1 <0>         0.0000
     13 C13         6.9094   -5.4841   -7.5064 C.ar      1 <0>         0.0000
     14 C14         8.0180   -5.9997   -5.4060 C.ar      1 <0>         0.0000
     15 C15        -4.5359   -0.4182   -0.0315 C.ar      1 <0>         0.0000
     16 C16        -5.7282   -0.4075    2.0885 C.ar      1 <0>         0.0000
     17 C17         3.5715   -1.7926   -0.1857 C.ar      1 <0>         0.0000
     18 C18         2.4068   -1.5443    0.6971 C.ar      1 <0>         0.0000
     19 C19         5.7766   -2.2532   -1.8610 C.ar      1 <0>         0.0000
     20 C20         0.2079   -1.0706    2.3745 C.ar      1 <0>         0.0000
     21 C21         6.7398   -3.9696   -5.6342 C.ar      1 <0>         0.0000
     22 C22        -3.6569   -1.6210    1.8674 C.ar      1 <0>         0.0000
     23 C23         7.7065   -6.3257   -6.7273 C.ar      1 <0>         0.0000
     24 C24        -5.6183   -0.0140    0.7521 C.ar      1 <0>         0.0000
     25 O1          6.9206   -2.5305   -2.6221 O.3       1 <0>         0.0000
     26 O2         -0.8852   -0.7488    3.1917 O.3       1 <0>         0.0000
     27 O3          6.1731   -2.7881   -5.1418 O.3       1 <0>         0.0000
     28 O4         -2.6643   -2.4798    2.3536 O.3       1 <0>         0.0000
     29 S1          7.0897   -1.8074   -4.1282 S.3       1 <0>         0.0000
     30 S2         -1.8412   -2.0141    3.7462 S.3       1 <0>         0.0000
     31 Cl1         8.3236   -7.8173   -7.4199 Cl        1 <0>         0.0000
     32 Cl2        -6.8631    1.0055    0.0479 Cl        1 <0>         0.0000
     33 H1          2.4128   -1.9054   -2.0041 H         1 <0>         0.0000
     34 H2          5.0323   -1.7502    1.4066 H         1 <0>         0.0000
     35 H3          3.1091   -2.8157    2.2968 H         1 <0>         0.0000
     36 H4          1.4095   -0.2057   -0.6741 H         1 <0>         0.0000
     37 H5          4.3528   -2.3103   -3.4823 H         1 <0>         0.0000
     38 H6          6.9781   -2.1721   -0.0834 H         1 <0>         0.0000
     39 H7          1.1734   -2.3838    3.7834 H         1 <0>         0.0000
     40 H8         -0.5515    0.1884    0.8139 H         1 <0>         0.0000
     41 H9          5.8110   -3.6188   -7.5394 H         1 <0>         0.0000
     42 H10         7.7492   -4.5624   -3.8190 H         1 <0>         0.0000
     43 H11        -2.6886   -1.5531   -0.0454 H         1 <0>         0.0000
     44 H12        -4.8099   -1.5315    3.6872 H         1 <0>         0.0000
     45 H13         6.6762   -5.7483   -8.5328 H         1 <0>         0.0000
     46 H14         8.6311   -6.6687   -4.8106 H         1 <0>         0.0000
     47 H15        -4.4646   -0.1034   -1.0677 H         1 <0>         0.0000
     48 H16        -6.5790   -0.0878    2.6817 H         1 <0>         0.0000
@<TRIPOS>BOND
     1    1    5 ar
     2    1   17 ar
     3    1   33 1
     4    2    6 ar
     5    2   17 ar
     6    2   34 1
     7    3    7 ar
     8    3   18 ar
     9    3   35 1
    10    4    8 ar
    11    4   18 ar
    12    4   36 1
    13    5   19 ar
    14    5   37 1
    15    6   19 ar
    16    6   38 1
    17    7   20 ar
    18    7   39 1
    19    8   20 ar
    20    8   40 1
    21    9   13 ar
    22    9   21 ar
    23    9   41 1
    24   10   14 ar
    25   10   21 ar
    26   10   42 1
    27   11   15 ar
    28   11   22 ar
    29   11   43 1
    30   12   16 ar
    31   12   22 ar
    32   12   44 1
    33   13   23 ar
    34   13   45 1
    35   14   23 ar
    36   14   46 1
    37   15   24 ar
    38   15   47 1
    39   16   24 ar
    40   16   48 1
    41   17   18 1
    42   19   25 1
    43   20   26 1
    44   21   27 1
    45   22   28 1
    46   23   31 1
    47   24   32 1
    48   25   29 1
    49   26   30 1
    50   27   29 1
    51   28   30 1
