@<TRIPOS>MOLECULE
*****
   48    51     0     0     0
SMALL
NO_CHARGES

@<TRIPOS>ATOM
      1 C1          4.1614   -3.5801   -0.7412 C.ar      1 <0>         0.0000
      2 C2          5.6979   -2.7954    0.9457 C.ar      1 <0>         0.0000
      3 C3          3.1616   -2.1492    2.5114 C.ar      1 <0>         0.0000
      4 C4          2.2801   -1.4807    0.3661 C.ar      1 <0>         0.0000
      5 C5          5.1964   -4.2573   -1.3849 C.ar      1 <0>         0.0000
      6 C6          6.7449   -3.4598    0.3054 C.ar      1 <0>         0.0000
      7 C7          2.0723   -1.5578    3.1517 C.ar      1 <0>         0.0000
      8 C8          1.1891   -0.8827    0.9947 C.ar      1 <0>         0.0000
      9 C9          9.7901   -2.0240   -1.6627 C.ar      1 <0>         0.0000
     10 C10        10.8108   -3.4563   -3.3394 C.ar      1 <0>         0.0000
     11 C11        -1.5640   -2.9069    0.0054 C.ar      1 <0>         0.0000
     12 C12        -0.2234   -3.9149    1.7603 C.ar      1 <0>         0.0000
     13 C13        11.0563   -1.6767   -1.1842 C.ar      1 <0>         0.0000
     14 C14        12.0771   -3.1166   -2.8596 C.ar      1 <0>         0.0000
     15 C15        -0.9041   -3.6810   -0.9507 C.ar      1 <0>         0.0000
     16 C16         0.4488   -4.6777    0.8039 C.ar      1 <0>         0.0000
     17 C17         4.3911   -2.8383    0.4316 C.ar      1 <0>         0.0000
     18 C18         3.2730   -2.1418    1.1096 C.ar      1 <0>         0.0000
     19 C19         6.4850   -4.1896   -0.8547 C.ar      1 <0>         0.0000
     20 C20         1.0804   -0.9512    2.3824 C.ar      1 <0>         0.0000
     21 C21         9.6787   -2.9059   -2.7371 C.ar      1 <0>         0.0000
     22 C22        -1.2108   -3.0174    1.3513 C.ar      1 <0>         0.0000
     23 C23        12.1888   -2.2290   -1.7857 C.ar      1 <0>         0.0000
     24 C24         0.1080   -4.5519   -0.5439 C.ar      1 <0>         0.0000
     25 O1          7.5726   -4.8805   -1.4086 O.3       1 <0>         0.0000
     26 O2         -0.0802   -0.4272    2.9792 O.3       1 <0>         0.0000
     27 O3          8.3926   -3.1747   -3.2190 O.3       1 <0>         0.0000
     28 O4         -1.9071   -2.1637    2.2203 O.3       1 <0>         0.0000
     29 S1          7.8336   -4.7569   -3.0622 S.3       1 <0>         0.0000
     30 S2         -1.1324   -1.5888    3.5994 S.3       1 <0>         0.0000
     31 Cl1        13.7824   -1.8013   -1.1838 Cl        1 <0>         0.0000
     32 Cl2         0.9698   -5.5011   -1.7484 Cl        1 <0>         0.0000
     33 H1          3.1542   -3.6628   -1.1374 H         1 <0>         0.0000
     34 H2          5.9075   -2.2093    1.8365 H         1 <0>         0.0000
     35 H3          3.9126   -2.6615    3.1065 H         1 <0>         0.0000
     36 H4          2.3586   -1.4373   -0.7162 H         1 <0>         0.0000
     37 H5          5.0034   -4.8339   -2.2841 H         1 <0>         0.0000
     38 H6          7.7600   -3.4219    0.6892 H         1 <0>         0.0000
     39 H7          1.9691   -1.5997    4.2322 H         1 <0>         0.0000
     40 H8          0.4046   -0.3979    0.4227 H         1 <0>         0.0000
     41 H9          8.8891   -1.6147   -1.2163 H         1 <0>         0.0000
     42 H10        10.7025   -4.1451   -4.1718 H         1 <0>         0.0000
     43 H11        -2.3368   -2.2011   -0.2831 H         1 <0>         0.0000
     44 H12         0.0548   -3.9892    2.8053 H         1 <0>         0.0000
     45 H13        11.1617   -0.9892   -0.3511 H         1 <0>         0.0000
     46 H14        12.9691   -3.5321   -3.3174 H         1 <0>         0.0000
     47 H15        -1.1641   -3.5959   -2.0010 H         1 <0>         0.0000
     48 H16         1.2387   -5.3575    1.1061 H         1 <0>         0.0000
@<TRIPOS>BOND
     1    1    5 ar
     2    1   17 ar
     3    1   33 1
     4    2    6 ar
     5    2   17 ar
     6    2   34 1
     7    3    7 ar
     8    3   18 ar
     9    3   35 1
    10    4    8 ar
    11    4   18 ar
    12    4   36 1
    13    5   19 ar
    14    5   37 1
    15    6   19 ar
    16    6   38 1
    17    7   20 ar
    18    7   39 1
    19    8   20 ar
    20    8   40 1
    21    9   13 ar
    22    9   21 ar
    23    9   41 1
    24   10   14 ar
    25   10   21 ar
    26   10   42 1
    27   11   15 ar
    28   11   22 ar
    29   11   43 1
    30   12   16 ar
    31   12   22 ar
    32   12   44 1
    33   13   23 ar
    34   13   45 1
    35   14   23 ar
    36   14   46 1
    37   15   24 ar
    38   15   47 1
    39   16   24 ar
    40   16   48 1
    41   17   18 1
    42   19   25 1
    43   20   26 1
    44   21   27 1
    45   22   28 1
    46   23   31 1
    47   24   32 1
    48   25   29 1
    49   26   30 1
    50   27   29 1
    51   28   30 1
