@<TRIPOS>MOLECULE
*****
   48    51     0     0     0
SMALL
NO_CHARGES

@<TRIPOS>ATOM
      1 C1          4.8959   -2.8416   -1.5329 C.ar      1 <0>         0.0000
      2 C2          4.9680   -3.6784    0.7248 C.ar      1 <0>         0.0000
      3 C3          2.7084   -1.7558    1.2754 C.ar      1 <0>         0.0000
      4 C4          1.9881   -2.2418   -0.9751 C.ar      1 <0>         0.0000
      5 C5          6.1084   -3.4671   -1.8164 C.ar      1 <0>         0.0000
      6 C6          6.1787   -4.3146    0.4538 C.ar      1 <0>         0.0000
      7 C7          1.4636   -1.1961    1.5581 C.ar      1 <0>         0.0000
      8 C8          0.7419   -1.6770   -0.7070 C.ar      1 <0>         0.0000
      9 C9          4.9464   -6.8922   -1.3111 C.ar      1 <0>         0.0000
     10 C10         5.1676   -6.3954   -3.6775 C.ar      1 <0>         0.0000
     11 C11         0.0711   -3.7538    3.5297 C.ar      1 <0>         0.0000
     12 C12        -0.2817   -4.3509    1.2047 C.ar      1 <0>         0.0000
     13 C13         3.5934   -6.5578   -1.3612 C.ar      1 <0>         0.0000
     14 C14         3.8123   -6.0621   -3.7338 C.ar      1 <0>         0.0000
     15 C15         1.1627   -4.6227    3.5918 C.ar      1 <0>         0.0000
     16 C16         0.8157   -5.2094    1.2607 C.ar      1 <0>         0.0000
     17 C17         4.2954   -2.9424   -0.2660 C.ar      1 <0>         0.0000
     18 C18         2.9888   -2.3037    0.0122 C.ar      1 <0>         0.0000
     19 C19         6.7319   -4.2218   -0.8229 C.ar      1 <0>         0.0000
     20 C20         0.4832   -1.1768    0.5686 C.ar      1 <0>         0.0000
     21 C21         5.7265   -6.7881   -2.4610 C.ar      1 <0>         0.0000
     22 C22        -0.6325   -3.6094    2.3329 C.ar      1 <0>         0.0000
     23 C23         3.0431   -6.1317   -2.5698 C.ar      1 <0>         0.0000
     24 C24         1.5357   -5.3319    2.4490 C.ar      1 <0>         0.0000
     25 O1          7.9229   -4.9412   -1.0329 O.3       1 <0>         0.0000
     26 O2         -0.7812   -0.6703    0.9200 O.3       1 <0>         0.0000
     27 O3          7.0958   -7.0699   -2.3428 O.3       1 <0>         0.0000
     28 O4         -1.6834   -2.6792    2.3566 O.3       1 <0>         0.0000
     29 S1          8.1142   -5.7311   -2.5033 S.3       1 <0>         0.0000
     30 S2         -2.0187   -1.8124    0.9517 S.3       1 <0>         0.0000
     31 Cl1         1.3475   -5.6601   -2.6265 Cl        1 <0>         0.0000
     32 Cl2         2.9410   -6.3925    2.5042 Cl        1 <0>         0.0000
     33 H1          4.4189   -2.2491   -2.3081 H         1 <0>         0.0000
     34 H2          4.5162   -3.8060    1.7035 H         1 <0>         0.0000
     35 H3          3.4714   -1.7644    2.0480 H         1 <0>         0.0000
     36 H4          2.1669   -2.6825   -1.9510 H         1 <0>         0.0000
     37 H5          6.5474   -3.3934   -2.8055 H         1 <0>         0.0000
     38 H6          6.6772   -4.9197    1.2050 H         1 <0>         0.0000
     39 H7          1.2332   -0.7981    2.5412 H         1 <0>         0.0000
     40 H8         -0.0378   -1.6649   -1.4631 H         1 <0>         0.0000
     41 H9          5.4078   -7.1939   -0.3770 H         1 <0>         0.0000
     42 H10         5.7903   -6.3260   -4.5642 H         1 <0>         0.0000
     43 H11        -0.2252   -3.1670    4.3936 H         1 <0>         0.0000
     44 H12        -0.8259   -4.2335    0.2747 H         1 <0>         0.0000
     45 H13         2.9944   -6.6080   -0.4600 H         1 <0>         0.0000
     46 H14         3.3617   -5.7435   -4.6683 H         1 <0>         0.0000
     47 H15         1.7255   -4.7323    4.5133 H         1 <0>         0.0000
     48 H16         1.1008   -5.7661    0.3759 H         1 <0>         0.0000
@<TRIPOS>BOND
     1    1    5 ar
     2    1   17 ar
     3    1   33 1
     4    2    6 ar
     5    2   17 ar
     6    2   34 1
     7    3    7 ar
     8    3   18 ar
     9    3   35 1
    10    4    8 ar
    11    4   18 ar
    12    4   36 1
    13    5   19 ar
    14    5   37 1
    15    6   19 ar
    16    6   38 1
    17    7   20 ar
    18    7   39 1
    19    8   20 ar
    20    8   40 1
    21    9   13 ar
    22    9   21 ar
    23    9   41 1
    24   10   14 ar
    25   10   21 ar
    26   10   42 1
    27   11   15 ar
    28   11   22 ar
    29   11   43 1
    30   12   16 ar
    31   12   22 ar
    32   12   44 1
    33   13   23 ar
    34   13   45 1
    35   14   23 ar
    36   14   46 1
    37   15   24 ar
    38   15   47 1
    39   16   24 ar
    40   16   48 1
    41   17   18 1
    42   19   25 1
    43   20   26 1
    44   21   27 1
    45   22   28 1
    46   23   31 1
    47   24   32 1
    48   25   29 1
    49   26   30 1
    50   27   29 1
    51   28   30 1
