@<TRIPOS>MOLECULE
*****
   48    51     0     0     0
SMALL
NO_CHARGES

@<TRIPOS>ATOM
      1 C1          4.4556   -1.7096   -2.5136 C.ar      1 <0>         0.0000
      2 C2          5.2063   -2.8736   -0.5412 C.ar      1 <0>         0.0000
      3 C3          3.2184   -1.1015    0.9054 C.ar      1 <0>         0.0000
      4 C4          1.8047   -1.4757   -1.0165 C.ar      1 <0>         0.0000
      5 C5          5.6052   -2.1135   -3.1933 C.ar      1 <0>         0.0000
      6 C6          6.3497   -3.3002   -1.2131 C.ar      1 <0>         0.0000
      7 C7          2.1265   -0.6039    1.6175 C.ar      1 <0>         0.0000
      8 C8          0.7062   -0.9779   -0.3156 C.ar      1 <0>         0.0000
      9 C9          7.6028   -0.0851   -1.1556 C.ar      1 <0>         0.0000
     10 C10         9.0236   -1.4085    0.3032 C.ar      1 <0>         0.0000
     11 C11         0.8160   -1.6983    5.0513 C.ar      1 <0>         0.0000
     12 C12        -1.3942   -0.7211    5.2955 C.ar      1 <0>         0.0000
     13 C13         6.8749    0.3597   -0.0505 C.ar      1 <0>         0.0000
     14 C14         8.3007   -0.9637    1.4121 C.ar      1 <0>         0.0000
     15 C15         1.1684   -1.2301    6.3194 C.ar      1 <0>         0.0000
     16 C16        -1.0415   -0.2448    6.5598 C.ar      1 <0>         0.0000
     17 C17         4.2488   -2.0569   -1.1684 C.ar      1 <0>         0.0000
     18 C18         3.0764   -1.5479   -0.4197 C.ar      1 <0>         0.0000
     19 C19         6.5577   -2.8856   -2.5292 C.ar      1 <0>         0.0000
     20 C20         0.8788   -0.5436    0.9989 C.ar      1 <0>         0.0000
     21 C21         8.6579   -0.9779   -0.9724 C.ar      1 <0>         0.0000
     22 C22        -0.4613   -1.4443    4.5510 C.ar      1 <0>         0.0000
     23 C23         7.2265   -0.0914    1.2231 C.ar      1 <0>         0.0000
     24 C24         0.2365   -0.5030    7.0623 C.ar      1 <0>         0.0000
     25 O1          7.7253   -3.1719   -3.2559 O.3       1 <0>         0.0000
     26 O2         -0.1783    0.0181    1.7293 O.3       1 <0>         0.0000
     27 O3          9.3385   -1.4338   -2.1125 O.3       1 <0>         0.0000
     28 O4         -0.7577   -1.9977    3.2997 O.3       1 <0>         0.0000
     29 S1          9.1914   -3.0845   -2.4357 S.3       1 <0>         0.0000
     30 S2         -1.4523   -1.0013    2.1351 S.3       1 <0>         0.0000
     31 Cl1         6.2986    0.4442    2.6179 Cl        1 <0>         0.0000
     32 Cl2         0.6769    0.0983    8.6528 Cl        1 <0>         0.0000
     33 H1          3.7394   -1.0683   -3.0200 H         1 <0>         0.0000
     34 H2          5.0521   -3.1859    0.4876 H         1 <0>         0.0000
     35 H3          4.1954   -1.1153    1.3780 H         1 <0>         0.0000
     36 H4          1.6677   -1.8345   -2.0329 H         1 <0>         0.0000
     37 H5          5.7965   -1.8030   -4.2161 H         1 <0>         0.0000
     38 H6          7.0914   -3.9082   -0.7064 H         1 <0>         0.0000
     39 H7          2.2324   -0.2437    2.6363 H         1 <0>         0.0000
     40 H8         -0.2771   -0.9362   -0.7751 H         1 <0>         0.0000
     41 H9          7.3335    0.2244   -2.1597 H         1 <0>         0.0000
     42 H10         9.8535   -2.0976    0.4272 H         1 <0>         0.0000
     43 H11         1.5184   -2.2637    4.4467 H         1 <0>         0.0000
     44 H12        -2.3816   -0.5231    4.8905 H         1 <0>         0.0000
     45 H13         6.0325    1.0309   -0.1809 H         1 <0>         0.0000
     46 H14         8.5678   -1.2920    2.4115 H         1 <0>         0.0000
     47 H15         2.1580   -1.4216    6.7218 H         1 <0>         0.0000
     48 H16        -1.7554    0.3183    7.1524 H         1 <0>         0.0000
@<TRIPOS>BOND
     1    1    5 ar
     2    1   17 ar
     3    1   33 1
     4    2    6 ar
     5    2   17 ar
     6    2   34 1
     7    3    7 ar
     8    3   18 ar
     9    3   35 1
    10    4    8 ar
    11    4   18 ar
    12    4   36 1
    13    5   19 ar
    14    5   37 1
    15    6   19 ar
    16    6   38 1
    17    7   20 ar
    18    7   39 1
    19    8   20 ar
    20    8   40 1
    21    9   13 ar
    22    9   21 ar
    23    9   41 1
    24   10   14 ar
    25   10   21 ar
    26   10   42 1
    27   11   15 ar
    28   11   22 ar
    29   11   43 1
    30   12   16 ar
    31   12   22 ar
    32   12   44 1
    33   13   23 ar
    34   13   45 1
    35   14   23 ar
    36   14   46 1
    37   15   24 ar
    38   15   47 1
    39   16   24 ar
    40   16   48 1
    41   17   18 1
    42   19   25 1
    43   20   26 1
    44   21   27 1
    45   22   28 1
    46   23   31 1
    47   24   32 1
    48   25   29 1
    49   26   30 1
    50   27   29 1
    51   28   30 1
