@<TRIPOS>MOLECULE
*****
   24    24     0     0     0
SMALL
NO_CHARGES

@<TRIPOS>ATOM
      1 C1          1.8851   -1.0356   -0.1124 C.ar      1 <0>         0.0000
      2 C2          3.0709   -1.0742    0.6212 C.ar      1 <0>         0.0000
      3 C3          0.6566   -1.0187    0.5480 C.ar      1 <0>         0.0000
      4 C4          3.0282   -1.0957    2.0152 C.ar      1 <0>         0.0000
      5 C5          0.6139   -1.0401    1.9421 C.ar      1 <0>         0.0000
      6 C6          1.7997   -1.0786    2.6757 C.ar      1 <0>         0.0000
      7 C7          2.9159   -1.8298    4.8481 C.3       1 <0>         0.0000
      8 C8          1.0323    0.4314    6.3701 C.3       1 <0>         0.0000
      9 C9          1.7548   -1.1014    4.1663 C.3       1 <0>         0.0000
     10 O1          3.0248    1.0902    4.8118 O.2       1 <0>         0.0000
     11 O2          0.6701    1.2640    3.9190 O.2       1 <0>         0.0000
     12 S1          1.6694    0.5841    4.7196 S.o2      1 <0>         0.0000
     13 H1          1.9181   -1.0203   -1.1979 H         1 <0>         0.0000
     14 H2          4.0274   -1.0886    0.1073 H         1 <0>         0.0000
     15 H3         -0.2668   -0.9897   -0.0230 H         1 <0>         0.0000
     16 H4          3.9571   -1.1256    2.5785 H         1 <0>         0.0000
     17 H5         -0.3478   -1.0264    2.4482 H         1 <0>         0.0000
     18 H6          3.8759   -1.4095    4.5299 H         1 <0>         0.0000
     19 H7          2.8600   -1.7614    5.9395 H         1 <0>         0.0000
     20 H8          2.9127   -2.8960    4.5955 H         1 <0>         0.0000
     21 H9          0.9435    1.4309    6.7988 H         1 <0>         0.0000
     22 H10         0.0550   -0.0508    6.3187 H         1 <0>         0.0000
     23 H11         1.7278   -0.1744    6.9529 H         1 <0>         0.0000
     24 H12         0.8207   -1.5661    4.5239 H         1 <0>         0.0000
@<TRIPOS>BOND
     1    1    3 ar
     2    1    2 ar
     3    1   13 1
     4    2    4 ar
     5    2   14 1
     6    3    5 ar
     7    3   15 1
     8    4    6 ar
     9    4   16 1
    10    5    6 ar
    11    5   17 1
    12    6    9 1
    13    7    9 1
    14    7   18 1
    15    7   19 1
    16    7   20 1
    17    8   12 1
    18    8   21 1
    19    8   22 1
    20    8   23 1
    21    9   12 1
    22    9   24 1
    23   10   12 2
    24   11   12 2
