@<TRIPOS>MOLECULE
*****
   44    46     0     0     0
SMALL
NO_CHARGES

@<TRIPOS>ATOM
      1 C1          0.7503    0.8418    1.7151 C.ar      1 <0>         0.0000
      2 C2          1.3919   -3.2614   -1.0615 C.ar      1 <0>         0.0000
      3 C3          1.5426   -2.5359   -3.3576 C.ar      1 <0>         0.0000
      4 C4         -0.2418    1.6207    2.3034 C.ar      1 <0>         0.0000
      5 C5          1.1066   -4.5605   -1.4863 C.ar      1 <0>         0.0000
      6 C6          1.2611   -3.8284   -3.7981 C.ar      1 <0>         0.0000
      7 C7         -1.6852    1.0924    0.4236 C.ar      1 <0>         0.0000
      8 C8          0.5640    0.2004    0.4798 C.ar      1 <0>         0.0000
      9 C9          1.5983   -2.2270   -1.9881 C.ar      1 <0>         0.0000
     10 C10        -0.6899    0.3228   -0.1731 C.ar      1 <0>         0.0000
     11 C11        -1.4749    1.7509    1.6462 C.ar      1 <0>         0.0000
     12 C12         1.0300   -4.8295   -2.8531 C.ar      1 <0>         0.0000
     13 C13         1.7307   -0.5665   -0.0445 C.2       1 <0>         0.0000
     14 C14        -0.9938   -0.3907   -1.4690 C.3       1 <0>         0.0000
     15 C15        -0.2135    0.1562   -2.6774 C.3       1 <0>         0.0000
     16 C16         1.2941    0.3044   -2.4228 C.3       1 <0>         0.0000
     17 C17         1.9332   -0.8008   -1.5530 C.3       1 <0>         0.0000
     18 C18        -2.3763    3.1562    3.3607 C.3       1 <0>         0.0000
     19 C19        -1.1702   -6.4879   -3.4692 C.3       1 <0>         0.0000
     20 O1          2.6107   -0.9562    0.7206 O.2       1 <0>         0.0000
     21 O2          1.1231   -6.6346   -4.7940 O.2       1 <0>         0.0000
     22 O3          1.0397   -7.4392   -2.3585 O.2       1 <0>         0.0000
     23 O4         -2.5258    2.4815    2.1116 O.3       1 <0>         0.0000
     24 S1          0.6390   -6.4923   -3.4111 S.o2      1 <0>         0.0000
     25 H1          1.7096    0.7234    2.2090 H         1 <0>         0.0000
     26 H2          1.4723   -3.0626    0.0015 H         1 <0>         0.0000
     27 H3          1.7326   -1.7629   -4.0959 H         1 <0>         0.0000
     28 H4         -0.0489    2.1114    3.2504 H         1 <0>         0.0000
     29 H5          0.9696   -5.3631   -0.7675 H         1 <0>         0.0000
     30 H6          1.2408   -4.0690   -4.8568 H         1 <0>         0.0000
     31 H7         -2.6602    1.1912   -0.0457 H         1 <0>         0.0000
     32 H8         -0.7736   -1.4566   -1.3552 H         1 <0>         0.0000
     33 H9         -2.0655   -0.3208   -1.6774 H         1 <0>         0.0000
     34 H10        -0.3910   -0.5181   -3.5216 H         1 <0>         0.0000
     35 H11        -0.6192    1.1326   -2.9647 H         1 <0>         0.0000
     36 H12         1.8191    0.3614   -3.3821 H         1 <0>         0.0000
     37 H13         1.4907    1.2600   -1.9260 H         1 <0>         0.0000
     38 H14         3.0212   -0.7082   -1.6567 H         1 <0>         0.0000
     39 H15        -3.3247    3.6642    3.5381 H         1 <0>         0.0000
     40 H16        -1.5686    3.8963    3.3180 H         1 <0>         0.0000
     41 H17        -2.1841    2.4472    4.1744 H         1 <0>         0.0000
     42 H18        -1.4660   -7.4843   -3.8045 H         1 <0>         0.0000
     43 H19        -1.5554   -6.2898   -2.4681 H         1 <0>         0.0000
     44 H20        -1.5001   -5.7292   -4.1802 H         1 <0>         0.0000
@<TRIPOS>BOND
     1    1    4 ar
     2    1    8 ar
     3    1   25 1
     4    2    5 ar
     5    2    9 ar
     6    2   26 1
     7    3    6 ar
     8    3    9 ar
     9    3   27 1
    10    4   11 ar
    11    4   28 1
    12    5   12 ar
    13    5   29 1
    14    6   12 ar
    15    6   30 1
    16    7   10 ar
    17    7   11 ar
    18    7   31 1
    19    8   10 ar
    20    8   13 1
    21    9   17 1
    22   10   14 1
    23   11   23 1
    24   12   24 1
    25   13   17 1
    26   13   20 2
    27   14   15 1
    28   14   32 1
    29   14   33 1
    30   15   16 1
    31   15   34 1
    32   15   35 1
    33   16   17 1
    34   16   36 1
    35   16   37 1
    36   17   38 1
    37   18   23 1
    38   18   39 1
    39   18   40 1
    40   18   41 1
    41   19   24 1
    42   19   42 1
    43   19   43 1
    44   19   44 1
    45   21   24 2
    46   22   24 2
