@<TRIPOS>MOLECULE
*****
   36    38     0     0     0
SMALL
NO_CHARGES

@<TRIPOS>ATOM
      1 C1         -3.0929   -1.9382   -1.2163 C.ar      1 <0>         0.0000
      2 C2         -2.5272   -2.6114    0.9936 C.ar      1 <0>         0.0000
      3 C3         -3.3786   -2.7094   -0.0951 C.ar      1 <0>         0.0000
      4 C4         -1.9802   -1.1044   -1.2144 C.ar      1 <0>         0.0000
      5 C5         -1.1915   -1.0781   -0.0755 C.ar      1 <0>         0.0000
      6 C6          0.3432   -0.5784   -5.5624 C.3       1 <0>         0.0000
      7 C7          0.4397    0.6258   -4.6740 C.3       1 <0>         0.0000
      8 C8          1.3351   -0.8274    0.3658 C.3       1 <0>         0.0000
      9 C9          1.1016   -0.4320   -1.0587 C.3       1 <0>         0.0000
     10 C10        -0.8001   -0.2257   -4.6509 C.3       1 <0>         0.0000
     11 C11         0.0107   -0.1991   -0.0290 C.3       1 <0>         0.0000
     12 C12        -4.5611   -3.6113   -0.0650 C.3       1 <0>         0.0000
     13 C13        -0.2522    1.2158    0.4065 C.3       1 <0>         0.0000
     14 C14        -1.6705   -0.2776   -2.4148 C.3       1 <0>         0.0000
     15 N1         -1.4371   -1.8128    1.0324 N.ar      1 <0>         0.0000
     16 N2         -1.1057   -1.0571   -3.4876 N.3       1 <0>         0.0000
     17 H1         -3.7368   -1.9889   -2.0908 H         1 <0>         0.0000
     18 H2         -2.6990   -3.1900    1.8963 H         1 <0>         0.0000
     19 H3          0.2104   -0.4125   -6.6248 H         1 <0>         0.0000
     20 H4          0.9598   -1.4345   -5.3172 H         1 <0>         0.0000
     21 H5          1.1206    0.5775   -3.8329 H         1 <0>         0.0000
     22 H6          0.3714    1.6020   -5.1384 H         1 <0>         0.0000
     23 H7          1.3629   -1.8867    0.5946 H         1 <0>         0.0000
     24 H8          2.0359   -0.2369    0.9446 H         1 <0>         0.0000
     25 H9          1.6461    0.4244   -1.4393 H         1 <0>         0.0000
     26 H10         0.9715   -1.2253   -1.7859 H         1 <0>         0.0000
     27 H11        -1.6819    0.1951   -5.1237 H         1 <0>         0.0000
     28 H12        -4.2944   -4.6097   -0.4369 H         1 <0>         0.0000
     29 H13        -4.9599   -3.7181    0.9537 H         1 <0>         0.0000
     30 H14        -5.3811   -3.2205   -0.6841 H         1 <0>         0.0000
     31 H15         0.6748    1.8023    0.4171 H         1 <0>         0.0000
     32 H16        -0.6802    1.2429    1.4162 H         1 <0>         0.0000
     33 H17        -0.9573    1.7112   -0.2725 H         1 <0>         0.0000
     34 H18        -2.5747    0.2117   -2.8044 H         1 <0>         0.0000
     35 H19        -0.9542    0.5226   -2.1806 H         1 <0>         0.0000
     36 H20        -1.7642   -1.7881   -3.7743 H         1 <0>         0.0000
@<TRIPOS>BOND
     1    1    3 ar
     2    1    4 ar
     3    1   17 1
     4    2    3 ar
     5    2   15 ar
     6    2   18 1
     7    3   12 1
     8    4    5 ar
     9    4   14 1
    10    5   11 1
    11    5   15 ar
    12    6    7 1
    13    6   10 1
    14    6   19 1
    15    6   20 1
    16    7   10 1
    17    7   21 1
    18    7   22 1
    19    8    9 1
    20    8   11 1
    21    8   23 1
    22    8   24 1
    23    9   11 1
    24    9   25 1
    25    9   26 1
    26   10   16 1
    27   10   27 1
    28   11   13 1
    29   12   28 1
    30   12   29 1
    31   12   30 1
    32   13   31 1
    33   13   32 1
    34   13   33 1
    35   14   16 1
    36   14   34 1
    37   14   35 1
    38   16   36 1
