@<TRIPOS>MOLECULE
*****
   72    76     0     0     0
SMALL
NO_CHARGES

@<TRIPOS>ATOM
      1 C1          3.1548   -0.3892   -4.7328 C.ar      1 <0>         0.0000
      2 C2          7.1280  -15.9379    1.4937 C.ar      1 <0>         0.0000
      3 C3          3.7100   -0.9543   -3.5788 C.ar      1 <0>         0.0000
      4 C4          1.9285    0.2783   -4.6477 C.ar      1 <0>         0.0000
      5 C5          7.7304  -15.3322    0.3856 C.ar      1 <0>         0.0000
      6 C6          5.7384  -15.8808    1.6580 C.ar      1 <0>         0.0000
      7 C7          3.0419   -0.8610   -2.3578 C.ar      1 <0>         0.0000
      8 C8          1.2663    0.3786   -3.4215 C.ar      1 <0>         0.0000
      9 C9          1.8172   -3.4378    0.3571 C.ar      1 <0>         0.0000
     10 C10         0.7458   -3.0737   -1.7629 C.ar      1 <0>         0.0000
     11 C11        -0.6347   -1.7582    1.7642 C.ar      1 <0>         0.0000
     12 C12         2.0898   -4.7645    0.0069 C.ar      1 <0>         0.0000
     13 C13         0.9993   -4.3905   -2.1238 C.ar      1 <0>         0.0000
     14 C14        -1.1556   -1.5720    3.0442 C.ar      1 <0>         0.0000
     15 C15         6.9498  -14.6585   -0.5598 C.ar      1 <0>         0.0000
     16 C16         4.9495  -15.2146    0.7156 C.ar      1 <0>         0.0000
     17 C17         0.3894    0.2652    3.3720 C.ar      1 <0>         0.0000
     18 C18         1.1607   -2.5618   -0.5179 C.ar      1 <0>         0.0000
     19 C19         1.8034   -0.2003   -2.2578 C.ar      1 <0>         0.0000
     20 C20         0.3821   -0.9358    1.2551 C.ar      1 <0>         0.0000
     21 C21         0.9082    0.0838    2.0878 C.ar      1 <0>         0.0000
     22 C22         1.6822   -5.2466   -1.2443 C.ar      1 <0>         0.0000
     23 C23        -0.6413   -0.5500    3.8507 C.ar      1 <0>         0.0000
     24 C24         5.5694  -14.5982   -0.3745 C.ar      1 <0>         0.0000
     25 C25         0.9013   -1.1522   -0.1225 C.2       1 <0>         0.0000
     26 C26         1.1026   -0.0914   -0.9527 C.2       1 <0>         0.0000
     27 C27         2.0438    0.9518    1.5958 C.3       1 <0>         0.0000
     28 C28         0.6563    1.2937   -0.5197 C.3       1 <0>         0.0000
     29 C29         1.6220    1.9434    0.4919 C.3       1 <0>         0.0000
     30 C30         3.4508   -9.8121   -0.7421 C.3       1 <0>         0.0000
     31 C31         2.7128   -8.7588   -1.5758 C.3       1 <0>         0.0000
     32 C32         3.5922  -11.1493   -1.4812 C.3       1 <0>         0.0000
     33 C33         2.5949   -7.4307   -0.8429 C.3       1 <0>         0.0000
     34 C34         4.3282  -12.1897   -0.6419 C.3       1 <0>         0.0000
     35 O1          5.5249  -13.3457   -2.7567 O.2       1 <0>         0.0000
     36 O2         -1.1010   -0.3085    5.1245 O.3       1 <0>         0.0000
     37 O3          1.8905   -6.5236   -1.6926 O.3       1 <0>         0.0000
     38 S1          4.5764  -13.7331   -1.6332 S.o       1 <0>         0.0000
     39 H1          3.6729   -0.4653   -5.6853 H         1 <0>         0.0000
     40 H2          7.7380  -16.4630    2.2241 H         1 <0>         0.0000
     41 H3          4.6664   -1.4687   -3.6310 H         1 <0>         0.0000
     42 H4          1.4856    0.7195   -5.5373 H         1 <0>         0.0000
     43 H5          8.8080  -15.3878    0.2542 H         1 <0>         0.0000
     44 H6          5.2693  -16.3617    2.5123 H         1 <0>         0.0000
     45 H7          3.4758   -1.3071   -1.4681 H         1 <0>         0.0000
     46 H8          0.3074    0.8886   -3.3737 H         1 <0>         0.0000
     47 H9          2.1309   -3.0767    1.3329 H         1 <0>         0.0000
     48 H10         0.2182   -2.4256   -2.4554 H         1 <0>         0.0000
     49 H11        -1.0279   -2.5568    1.1415 H         1 <0>         0.0000
     50 H12         2.6114   -5.4016    0.7121 H         1 <0>         0.0000
     51 H13         0.6762   -4.7815   -3.0843 H         1 <0>         0.0000
     52 H14        -1.9528   -2.2167    3.4117 H         1 <0>         0.0000
     53 H15         7.3825  -14.1890   -1.4395 H         1 <0>         0.0000
     54 H16         3.8677  -15.1834    0.8299 H         1 <0>         0.0000
     55 H17         0.7863    1.0381    4.0249 H         1 <0>         0.0000
     56 H18         2.4894    1.4972    2.4335 H         1 <0>         0.0000
     57 H19         2.8239    0.2993    1.1877 H         1 <0>         0.0000
     58 H20         0.5593    1.9511   -1.3879 H         1 <0>         0.0000
     59 H21        -0.3327    1.2232   -0.0549 H         1 <0>         0.0000
     60 H22         1.1261    2.8157    0.9346 H         1 <0>         0.0000
     61 H23         2.5218    2.3072   -0.0178 H         1 <0>         0.0000
     62 H24         4.4498   -9.4398   -0.4793 H         1 <0>         0.0000
     63 H25         2.9200   -9.9699    0.2066 H         1 <0>         0.0000
     64 H26         3.2380   -8.5941   -2.5234 H         1 <0>         0.0000
     65 H27         1.7066   -9.1135   -1.8277 H         1 <0>         0.0000
     66 H28         2.5981  -11.5273   -1.7517 H         1 <0>         0.0000
     67 H29         4.1411  -10.9977   -2.4167 H         1 <0>         0.0000
     68 H30         3.5904   -7.0275   -0.6103 H         1 <0>         0.0000
     69 H31         2.0492   -7.5566    0.1029 H         1 <0>         0.0000
     70 H32         5.3291  -11.8501   -0.3571 H         1 <0>         0.0000
     71 H33         3.7724  -12.4674    0.2602 H         1 <0>         0.0000
     72 H34        -1.8115   -0.9377    5.3261 H         1 <0>         0.0000
@<TRIPOS>BOND
     1    1    4 ar
     2    1    3 ar
     3    1   39 1
     4    2    6 ar
     5    2    5 ar
     6    2   40 1
     7    3    7 ar
     8    3   41 1
     9    4    8 ar
    10    4   42 1
    11    5   15 ar
    12    5   43 1
    13    6   16 ar
    14    6   44 1
    15    7   19 ar
    16    7   45 1
    17    8   19 ar
    18    8   46 1
    19    9   12 ar
    20    9   18 ar
    21    9   47 1
    22   10   13 ar
    23   10   18 ar
    24   10   48 1
    25   11   14 ar
    26   11   20 ar
    27   11   49 1
    28   12   22 ar
    29   12   50 1
    30   13   22 ar
    31   13   51 1
    32   14   23 ar
    33   14   52 1
    34   15   24 ar
    35   15   53 1
    36   16   24 ar
    37   16   54 1
    38   17   21 ar
    39   17   23 ar
    40   17   55 1
    41   18   25 1
    42   19   26 1
    43   20   21 ar
    44   20   25 1
    45   21   27 1
    46   22   37 1
    47   23   36 1
    48   24   38 1
    49   25   26 2
    50   26   28 1
    51   27   29 1
    52   27   56 1
    53   27   57 1
    54   28   29 1
    55   28   58 1
    56   28   59 1
    57   29   60 1
    58   29   61 1
    59   30   31 1
    60   30   32 1
    61   30   62 1
    62   30   63 1
    63   31   33 1
    64   31   64 1
    65   31   65 1
    66   32   34 1
    67   32   66 1
    68   32   67 1
    69   33   37 1
    70   33   68 1
    71   33   69 1
    72   34   38 1
    73   34   70 1
    74   34   71 1
    75   35   38 2
    76   36   72 1
