@<TRIPOS>MOLECULE
*****
   55    56     0     0     0
SMALL
NO_CHARGES

@<TRIPOS>ATOM
      1 C1         -2.7151    0.0041    1.9021 C.ar      1 <0>         0.0000
      2 C2         -2.9104    1.0660    0.9991 C.ar      1 <0>         0.0000
      3 C3         -1.5458   -0.7397    1.8367 C.ar      1 <0>         0.0000
      4 C4         -1.9413    1.3892    0.0545 C.ar      1 <0>         0.0000
      5 C5         -0.5552   -0.4387    0.8810 C.ar      1 <0>         0.0000
      6 C6         -0.7570    0.6423    0.0001 C.ar      1 <0>         0.0000
      7 C7          0.6365   -1.2948    0.7431 C.2       1 <0>         0.0000
      8 C8          1.5117    0.5197   -0.7038 C.3       1 <0>         0.0000
      9 C9          1.5188   -1.0136   -0.4855 C.3       1 <0>         0.0000
     10 C10         3.3836    4.6177   -3.0952 C.3       1 <0>         0.0000
     11 C11        -0.2533   -5.6644   -2.6446 C.3       1 <0>         0.0000
     12 C12         6.1132   -0.8550    2.4017 C.3       1 <0>         0.0000
     13 C13         2.3612    1.0404   -1.8574 C.3       1 <0>         0.0000
     14 C14         0.8703   -1.7224   -1.7088 C.3       1 <0>         0.0000
     15 C15         2.9400   -1.5642   -0.2620 C.3       1 <0>         0.0000
     16 C16         3.2962    3.0883   -3.0566 C.3       1 <0>         0.0000
     17 C17         2.4368    2.5713   -1.8973 C.3       1 <0>         0.0000
     18 C18         0.6966   -3.2311   -1.5287 C.3       1 <0>         0.0000
     19 C19         3.7123   -0.8904    0.8733 C.3       1 <0>         0.0000
     20 O1          0.8852   -2.2176    1.5158 O.2       1 <0>         0.0000
     21 O2         -1.5385   -3.3574   -2.9888 O.2       1 <0>         0.0000
     22 O3          0.7069   -3.6955   -4.1601 O.2       1 <0>         0.0000
     23 O4          5.3202   -3.0259    1.0814 O.2       1 <0>         0.0000
     24 O5          6.1203   -1.0018   -0.2577 O.2       1 <0>         0.0000
     25 O6          0.1649    0.9953   -0.9349 O.3       1 <0>         0.0000
     26 S1         -0.1653   -3.8920   -2.9886 S.o2      1 <0>         0.0000
     27 S2          5.4024   -1.5671    0.8997 S.o2      1 <0>         0.0000
     28 H1         -3.4792   -0.2348    2.6359 H         1 <0>         0.0000
     29 H2         -3.8272    1.6485    1.0404 H         1 <0>         0.0000
     30 H3         -1.3697   -1.5792    2.5026 H         1 <0>         0.0000
     31 H4         -2.0750    2.2125   -0.6406 H         1 <0>         0.0000
     32 H5          1.8453    0.9967    0.2302 H         1 <0>         0.0000
     33 H6          2.3901    5.0676   -3.2050 H         1 <0>         0.0000
     34 H7          3.9997    4.9606   -3.9330 H         1 <0>         0.0000
     35 H8          3.8258    5.0122   -2.1729 H         1 <0>         0.0000
     36 H9         -0.7725   -6.1089   -3.4958 H         1 <0>         0.0000
     37 H10         0.7585   -6.0651   -2.5664 H         1 <0>         0.0000
     38 H11        -0.8229   -5.8235   -1.7278 H         1 <0>         0.0000
     39 H12         7.1469   -1.2040    2.4387 H         1 <0>         0.0000
     40 H13         6.0851    0.2336    2.3317 H         1 <0>         0.0000
     41 H14         5.5579   -1.2197    3.2671 H         1 <0>         0.0000
     42 H15         3.3729    0.6325   -1.7659 H         1 <0>         0.0000
     43 H16         1.9523    0.6664   -2.8018 H         1 <0>         0.0000
     44 H17         1.4965   -1.5459   -2.5870 H         1 <0>         0.0000
     45 H18        -0.1049   -1.2742   -1.9129 H         1 <0>         0.0000
     46 H19         3.5056   -1.4815   -1.1938 H         1 <0>         0.0000
     47 H20         2.8678   -2.6237   -0.0148 H         1 <0>         0.0000
     48 H21         4.3056    2.6638   -2.9792 H         1 <0>         0.0000
     49 H22         2.8816    2.7207   -4.0041 H         1 <0>         0.0000
     50 H23         2.8505    2.9385   -0.9472 H         1 <0>         0.0000
     51 H24         1.4252    2.9843   -1.9749 H         1 <0>         0.0000
     52 H25         1.6506   -3.7592   -1.4689 H         1 <0>         0.0000
     53 H26         0.0841   -3.4829   -0.6603 H         1 <0>         0.0000
     54 H27         3.8358    0.1863    0.7386 H         1 <0>         0.0000
     55 H28         3.2544   -1.1021    1.8423 H         1 <0>         0.0000
@<TRIPOS>BOND
     1    1    2 ar
     2    1    3 ar
     3    1   28 1
     4    2    4 ar
     5    2   29 1
     6    3    5 ar
     7    3   30 1
     8    4    6 ar
     9    4   31 1
    10    5    6 ar
    11    5    7 1
    12    6   25 1
    13    7    9 1
    14    7   20 2
    15    8    9 1
    16    8   13 1
    17    8   25 1
    18    8   32 1
    19    9   14 1
    20    9   15 1
    21   10   16 1
    22   10   33 1
    23   10   34 1
    24   10   35 1
    25   11   26 1
    26   11   36 1
    27   11   37 1
    28   11   38 1
    29   12   27 1
    30   12   39 1
    31   12   40 1
    32   12   41 1
    33   13   17 1
    34   13   42 1
    35   13   43 1
    36   14   18 1
    37   14   44 1
    38   14   45 1
    39   15   19 1
    40   15   46 1
    41   15   47 1
    42   16   17 1
    43   16   48 1
    44   16   49 1
    45   17   50 1
    46   17   51 1
    47   18   26 1
    48   18   52 1
    49   18   53 1
    50   19   27 1
    51   19   54 1
    52   19   55 1
    53   21   26 2
    54   22   26 2
    55   23   27 2
    56   24   27 2
