@<TRIPOS>MOLECULE
*****
   68    71     0     0     0
SMALL
NO_CHARGES

@<TRIPOS>ATOM
      1 C1         -0.4916    2.0342    5.4107 C.ar      1 <0>         0.0000
      2 C2         -3.6292    4.6245    8.4155 C.ar      1 <0>         0.0000
      3 C3         -1.4648    2.6712    4.6445 C.ar      1 <0>         0.0000
      4 C4         -4.3198    5.1978    7.3422 C.ar      1 <0>         0.0000
      5 C5         -2.2217    1.2545    6.9266 C.ar      1 <0>         0.0000
      6 C6         -2.2355    6.0226    6.4118 C.ar      1 <0>         0.0000
      7 C7         -0.8652    1.3190    6.5556 C.ar      1 <0>         0.0000
      8 C8         -2.2382    4.7452    8.4878 C.ar      1 <0>         0.0000
      9 C9         -1.5577    5.4699    7.5008 C.ar      1 <0>         0.0000
     10 C10        -3.2075    1.8825    6.1720 C.ar      1 <0>         0.0000
     11 C11        -3.6234    5.8720    6.3313 C.ar      1 <0>         0.0000
     12 C12        -2.8139    2.5991    5.0234 C.ar      1 <0>         0.0000
     13 C13         0.8179   -0.3825    9.1720 C.2       1 <0>         0.0000
     14 C14         1.8981    0.1846    8.5294 C.2       1 <0>         0.0000
     15 C15         0.1385    0.7208    7.4181 C.2       1 <0>         0.0000
     16 C16         0.6132   -1.0958   10.4347 C.2       1 <0>         0.0000
     17 C17        -2.8015    2.2647   10.4220 C.2       1 <0>         0.0000
     18 C18        -0.0897    5.6023    7.8427 C.3       1 <0>         0.0000
     19 C19         0.1111    4.5855    8.9942 C.3       1 <0>         0.0000
     20 C20        -1.2977    4.2697    9.5858 C.3       1 <0>         0.0000
     21 C21         3.3412    0.1483    8.9097 C.3       1 <0>         0.0000
     22 C22        -0.8227   -1.3597   10.8278 C.3       1 <0>         0.0000
     23 C23        -6.8774    0.5834    6.3052 C.3       1 <0>         0.0000
     24 C24        -4.6523    1.7912    6.5938 C.3       1 <0>         0.0000
     25 C25        -1.4052    2.7907    9.9885 C.3       1 <0>         0.0000
     26 C26        -5.4070    0.6559    5.8794 C.3       1 <0>         0.0000
     27 C27        -4.7052    5.1528    3.2389 C.3       1 <0>         0.0000
     28 C28        -5.2585    5.7011    4.5572 C.3       1 <0>         0.0000
     29 C29        -3.4674    4.2885    3.4405 C.3       1 <0>         0.0000
     30 N1          1.4490    0.8778    7.4188 N.2       1 <0>         0.0000
     31 O1         -3.5224    3.0474   11.0960 O.co2     1 <0>         0.0000
     32 O2          1.5784   -1.4392   11.1261 O.2       1 <0>         0.0000
     33 O3         -3.0672    1.0756   10.0542 O.co2     1 <0>         0.0000
     34 O4         -0.3042   -0.0513    8.4361 O.3       1 <0>         0.0000
     35 O5         -4.2694    6.4711    5.2498 O.3       1 <0>         0.0000
     36 O6         -3.8176    3.2159    4.3181 O.3       1 <0>         0.0000
     37 H1          0.5575    2.0995    5.1377 H         1 <0>         0.0000
     38 H2         -4.1601    4.1035    9.2065 H         1 <0>         0.0000
     39 H3         -1.1685    3.2250    3.7606 H         1 <0>         0.0000
     40 H4         -5.4034    5.1258    7.3031 H         1 <0>         0.0000
     41 H5         -2.5051    0.7831    7.8674 H         1 <0>         0.0000
     42 H6         -1.7148    6.5748    5.6321 H         1 <0>         0.0000
     43 H7          0.5657    5.4022    6.9868 H         1 <0>         0.0000
     44 H8          0.1200    6.6299    8.1719 H         1 <0>         0.0000
     45 H9          0.5350    3.6629    8.5842 H         1 <0>         0.0000
     46 H10         0.8087    4.9485    9.7563 H         1 <0>         0.0000
     47 H11        -1.4902    4.8779   10.4783 H         1 <0>         0.0000
     48 H12         3.9289   -0.3411    8.1243 H         1 <0>         0.0000
     49 H13         3.7256    1.1686    9.0167 H         1 <0>         0.0000
     50 H14         3.4724   -0.3925    9.8475 H         1 <0>         0.0000
     51 H15        -1.2504   -2.1098   10.1501 H         1 <0>         0.0000
     52 H16        -1.4573   -0.4683   10.7206 H         1 <0>         0.0000
     53 H17        -0.8462   -1.7432   11.8497 H         1 <0>         0.0000
     54 H18        -6.9631    0.4269    7.3863 H         1 <0>         0.0000
     55 H19        -7.4027    1.5159    6.0639 H         1 <0>         0.0000
     56 H20        -7.4032   -0.2369    5.8019 H         1 <0>         0.0000
     57 H21        -4.6866    1.6329    7.6767 H         1 <0>         0.0000
     58 H22        -5.1556    2.7388    6.3848 H         1 <0>         0.0000
     59 H23        -0.7147    2.6155   10.8265 H         1 <0>         0.0000
     60 H24        -1.0470    2.1772    9.1641 H         1 <0>         0.0000
     61 H25        -5.3384    0.8021    4.7941 H         1 <0>         0.0000
     62 H26        -4.9098   -0.2964    6.1008 H         1 <0>         0.0000
     63 H27        -5.4931    4.5722    2.7416 H         1 <0>         0.0000
     64 H28        -4.4362    5.9839    2.5759 H         1 <0>         0.0000
     65 H29        -6.1045    6.3687    4.3581 H         1 <0>         0.0000
     66 H30        -5.6122    4.8751    5.1769 H         1 <0>         0.0000
     67 H31        -2.6686    4.8867    3.8881 H         1 <0>         0.0000
     68 H32        -3.1101    3.8885    2.4811 H         1 <0>         0.0000
@<TRIPOS>BOND
     1    1    3 ar
     2    1    7 ar
     3    1   37 1
     4    2    4 ar
     5    2    8 ar
     6    2   38 1
     7    3   12 ar
     8    3   39 1
     9    4   11 ar
    10    4   40 1
    11    5    7 ar
    12    5   10 ar
    13    5   41 1
    14    6    9 ar
    15    6   11 ar
    16    6   42 1
    17    7   15 1
    18    8    9 ar
    19    8   20 1
    20    9   18 1
    21   10   12 ar
    22   10   24 1
    23   11   35 1
    24   12   36 1
    25   13   14 2
    26   13   16 1
    27   13   34 1
    28   14   21 1
    29   14   30 1
    30   15   30 2
    31   15   34 1
    32   16   22 1
    33   16   32 2
    34   17   25 1
    35   17   31 1
    36   17   33 2
    37   18   19 1
    38   18   43 1
    39   18   44 1
    40   19   20 1
    41   19   45 1
    42   19   46 1
    43   20   25 1
    44   20   47 1
    45   21   48 1
    46   21   49 1
    47   21   50 1
    48   22   51 1
    49   22   52 1
    50   22   53 1
    51   23   26 1
    52   23   54 1
    53   23   55 1
    54   23   56 1
    55   24   26 1
    56   24   57 1
    57   24   58 1
    58   25   59 1
    59   25   60 1
    60   26   61 1
    61   26   62 1
    62   27   28 1
    63   27   29 1
    64   27   63 1
    65   27   64 1
    66   28   35 1
    67   28   65 1
    68   28   66 1
    69   29   36 1
    70   29   67 1
    71   29   68 1
