@<TRIPOS>MOLECULE
*****
   73    77     0     0     0
SMALL
NO_CHARGES

@<TRIPOS>ATOM
      1 C1          3.5143    1.9196    1.3886 C.ar      1 <0>         0.0000
      2 C2          3.8923   -0.4599    1.2718 C.ar      1 <0>         0.0000
      3 C3          2.8514   -1.7531    4.0983 C.ar      1 <0>         0.0000
      4 C4          4.4257   -0.0048    4.5612 C.ar      1 <0>         0.0000
      5 C5          3.8841   -2.6940    4.1265 C.ar      1 <0>         0.0000
      6 C6          5.4560   -0.9450    4.5722 C.ar      1 <0>         0.0000
      7 C7          4.8790    2.1586    1.1798 C.ar      1 <0>         0.0000
      8 C8          5.2526   -0.2437    1.0612 C.ar      1 <0>         0.0000
      9 C9         -1.1736    0.0236    2.1169 C.ar      1 <0>         0.0000
     10 C10         3.0068    0.6117    1.4629 C.ar      1 <0>         0.0000
     11 C11         1.5478    0.3814    1.7182 C.ar      1 <0>         0.0000
     12 C12         0.7168    0.1778    0.5984 C.ar      1 <0>         0.0000
     13 C13         3.1095   -0.3921    4.2927 C.ar      1 <0>         0.0000
     14 C14         5.2159   -2.3105    4.3463 C.ar      1 <0>         0.0000
     15 C15        -0.3564    0.2166    3.2296 C.ar      1 <0>         0.0000
     16 C16         1.0363    0.4023    3.0319 C.ar      1 <0>         0.0000
     17 C17        -0.6568    0.0078    0.8193 C.ar      1 <0>         0.0000
     18 C18         5.7238    1.0656    1.0317 C.ar      1 <0>         0.0000
     19 C19        -2.7730    1.2918   -2.3809 C.3       1 <0>         0.0000
     20 C20        -2.3070   -0.1903   -2.4676 C.3       1 <0>         0.0000
     21 C21        -1.3838    1.6576   -1.7868 C.3       1 <0>         0.0000
     22 C22         0.2368   -0.4520   -1.7792 C.3       1 <0>         0.0000
     23 C23         1.2754    0.1141   -0.8142 C.3       1 <0>         0.0000
     24 C24        -1.1326    0.1450   -1.5216 C.3       1 <0>         0.0000
     25 C25        -2.3603   -0.4036    4.7215 C.3       1 <0>         0.0000
     26 C26        -1.0990    1.7554    5.0781 C.3       1 <0>         0.0000
     27 C27         7.1396   -3.2291    5.6856 C.3       1 <0>         0.0000
     28 C28         7.3517   -2.9423    3.1885 C.3       1 <0>         0.0000
     29 C29         5.9170   -4.7563    4.1336 C.3       1 <0>         0.0000
     30 C30         1.9684    0.6177    4.2293 C.3       1 <0>         0.0000
     31 C31        -0.9920    0.2862    4.6177 C.3       1 <0>         0.0000
     32 C32         6.3851   -3.3049    4.3390 C.3       1 <0>         0.0000
     33 O1         -1.5595   -0.2104   -0.1843 O.3       1 <0>         0.0000
     34 O2          1.6557    1.4085   -1.3215 O.3       1 <0>         0.0000
     35 O3          2.4180    1.9751    4.3450 O.3       1 <0>         0.0000
     36 F1          7.0514    1.2807    0.8460 F         1 <0>         0.0000
     37 H1          2.8339    2.7625    1.4907 H         1 <0>         0.0000
     38 H2          3.5162   -1.4756    1.3279 H         1 <0>         0.0000
     39 H3          1.8363   -2.0818    3.8872 H         1 <0>         0.0000
     40 H4          4.6501    1.0410    4.7457 H         1 <0>         0.0000
     41 H5          3.6344   -3.7364    3.9605 H         1 <0>         0.0000
     42 H6          6.4689   -0.5964    4.7550 H         1 <0>         0.0000
     43 H7          5.2795    3.1666    1.1312 H         1 <0>         0.0000
     44 H8          5.9463   -1.0695    0.9437 H         1 <0>         0.0000
     45 H9         -2.2431   -0.1172    2.2223 H         1 <0>         0.0000
     46 H10        -3.5836    1.4257   -1.6604 H         1 <0>         0.0000
     47 H11        -3.0509    1.7761   -3.3206 H         1 <0>         0.0000
     48 H12        -2.9883   -0.9641   -2.1049 H         1 <0>         0.0000
     49 H13        -1.9492   -0.4609   -3.4656 H         1 <0>         0.0000
     50 H14        -0.6890    2.0518   -2.5311 H         1 <0>         0.0000
     51 H15        -1.3536    2.3011   -0.9048 H         1 <0>         0.0000
     52 H16         0.5578   -0.2430   -2.8030 H         1 <0>         0.0000
     53 H17         0.1738   -1.5397   -1.6547 H         1 <0>         0.0000
     54 H18         2.1567   -0.5385   -0.8225 H         1 <0>         0.0000
     55 H19        -3.1352    0.1337    4.1649 H         1 <0>         0.0000
     56 H20        -2.6775   -0.4303    5.7691 H         1 <0>         0.0000
     57 H21        -2.3262   -1.4334    4.3514 H         1 <0>         0.0000
     58 H22        -1.7719    2.3071    4.4120 H         1 <0>         0.0000
     59 H23        -0.1296    2.2601    5.0634 H         1 <0>         0.0000
     60 H24        -1.5048    1.8116    6.0945 H         1 <0>         0.0000
     61 H25         7.9714   -3.9425    5.6974 H         1 <0>         0.0000
     62 H26         7.5535   -2.2329    5.8657 H         1 <0>         0.0000
     63 H27         6.4710   -3.4687    6.5189 H         1 <0>         0.0000
     64 H28         8.2111   -3.6225    3.1798 H         1 <0>         0.0000
     65 H29         6.8468   -3.0235    2.2196 H         1 <0>         0.0000
     66 H30         7.7318   -1.9209    3.2838 H         1 <0>         0.0000
     67 H31         6.7821   -5.4277    4.1406 H         1 <0>         0.0000
     68 H32         5.2399   -5.0815    4.9304 H         1 <0>         0.0000
     69 H33         5.4066   -4.8893    3.1738 H         1 <0>         0.0000
     70 H34         1.3896    0.4803    5.1403 H         1 <0>         0.0000
     71 H35        -0.3373   -0.2409    5.3202 H         1 <0>         0.0000
     72 H36         2.3862    1.7334   -0.7698 H         1 <0>         0.0000
     73 H37         2.9928    2.1594    3.5843 H         1 <0>         0.0000
@<TRIPOS>BOND
     1    1    7 ar
     2    1   10 ar
     3    1   37 1
     4    2    8 ar
     5    2   10 ar
     6    2   38 1
     7    3    5 ar
     8    3   13 ar
     9    3   39 1
    10    4    6 ar
    11    4   13 ar
    12    4   40 1
    13    5   14 ar
    14    5   41 1
    15    6   14 ar
    16    6   42 1
    17    7   18 ar
    18    7   43 1
    19    8   18 ar
    20    8   44 1
    21    9   15 ar
    22    9   17 ar
    23    9   45 1
    24   10   11 1
    25   11   12 ar
    26   11   16 ar
    27   12   17 ar
    28   12   23 1
    29   13   30 1
    30   14   32 1
    31   15   16 ar
    32   15   31 1
    33   16   30 1
    34   17   33 1
    35   18   36 1
    36   19   21 1
    37   19   20 1
    38   19   46 1
    39   19   47 1
    40   20   24 1
    41   20   48 1
    42   20   49 1
    43   21   24 1
    44   21   50 1
    45   21   51 1
    46   22   23 1
    47   22   24 1
    48   22   52 1
    49   22   53 1
    50   23   34 1
    51   23   54 1
    52   24   33 1
    53   25   31 1
    54   25   55 1
    55   25   56 1
    56   25   57 1
    57   26   31 1
    58   26   58 1
    59   26   59 1
    60   26   60 1
    61   27   32 1
    62   27   61 1
    63   27   62 1
    64   27   63 1
    65   28   32 1
    66   28   64 1
    67   28   65 1
    68   28   66 1
    69   29   32 1
    70   29   67 1
    71   29   68 1
    72   29   69 1
    73   30   35 1
    74   30   70 1
    75   31   71 1
    76   34   72 1
    77   35   73 1
