@<TRIPOS>MOLECULE
*****
   38    39     0     0     0
SMALL
NO_CHARGES

@<TRIPOS>ATOM
      1 C1         -7.0664    4.3487   -2.1588 C.ar      1 <0>         0.0000
      2 C2         -7.3894    5.6490   -2.5468 C.ar      1 <0>         0.0000
      3 C3         -5.8767    3.7658   -2.5953 C.ar      1 <0>         0.0000
      4 C4         -6.5227    6.3664   -3.3713 C.ar      1 <0>         0.0000
      5 C5         -5.0101    4.4831   -3.4199 C.ar      1 <0>         0.0000
      6 C6         -5.3330    5.7834   -3.8079 C.ar      1 <0>         0.0000
      7 C7         -2.4500    1.3418   -1.2884 C.2       1 <0>         0.0000
      8 C8         -2.0350    0.4387   -0.3876 C.2       1 <0>         0.0000
      9 C9         -1.6844    1.5579   -2.5381 C.2       1 <0>         0.0000
     10 C10        -3.7441    3.8583   -3.8824 C.2       1 <0>         0.0000
     11 C11        -0.8175   -0.4293   -0.5944 C.3       1 <0>         0.0000
     12 C12        -0.3779    0.8157   -2.7414 C.3       1 <0>         0.0000
     13 C13        -0.3851   -0.5686   -2.0720 C.3       1 <0>         0.0000
     14 C14        -2.7643    0.2429    0.9102 C.3       1 <0>         0.0000
     15 C15         1.0323   -1.1664   -2.1284 C.3       1 <0>         0.0000
     16 C16        -1.3357   -1.5218   -2.8272 C.3       1 <0>         0.0000
     17 N1         -2.1053    2.4028   -3.4250 N.2       1 <0>         0.0000
     18 O1         -3.2158    4.1346   -4.9489 O.2       1 <0>         0.0000
     19 O2         -3.2957    2.9700   -2.9569 O.3       1 <0>         0.0000
     20 F1         -4.5080    6.4827   -4.6005 F         1 <0>         0.0000
     21 H1         -7.7413    3.7902   -1.5169 H         1 <0>         0.0000
     22 H2         -8.3156    6.1030   -2.2068 H         1 <0>         0.0000
     23 H3         -5.6357    2.7519   -2.2863 H         1 <0>         0.0000
     24 H4         -6.7739    7.3788   -3.6735 H         1 <0>         0.0000
     25 H5         -3.3326    1.9512   -1.1277 H         1 <0>         0.0000
     26 H6          0.0000    0.0002   -0.0001 H         1 <0>         0.0000
     27 H7         -1.0083   -1.4296   -0.1839 H         1 <0>         0.0000
     28 H8         -0.1798    0.7177   -3.8157 H         1 <0>         0.0000
     29 H9          0.4163    1.4467   -2.3221 H         1 <0>         0.0000
     30 H10        -3.5324   -0.5157    0.7822 H         1 <0>         0.0000
     31 H11        -3.2234    1.1812    1.2124 H         1 <0>         0.0000
     32 H12        -2.0605   -0.0743    1.6761 H         1 <0>         0.0000
     33 H13         1.3373   -1.2648   -3.1648 H         1 <0>         0.0000
     34 H14         1.0275   -2.1419   -1.6541 H         1 <0>         0.0000
     35 H15         1.7184   -0.5085   -1.6058 H         1 <0>         0.0000
     36 H16        -1.0105   -1.6012   -3.8576 H         1 <0>         0.0000
     37 H17        -2.3416   -1.1216   -2.7873 H         1 <0>         0.0000
     38 H18        -1.3068   -2.4963   -2.3547 H         1 <0>         0.0000
@<TRIPOS>BOND
     1    1    2 ar
     2    1    3 ar
     3    1   21 1
     4    2    4 ar
     5    2   22 1
     6    3    5 ar
     7    3   23 1
     8    4    6 ar
     9    4   24 1
    10    5    6 ar
    11    5   10 1
    12    6   20 1
    13    7    8 2
    14    7    9 1
    15    7   25 1
    16    8   11 1
    17    8   14 1
    18    9   12 1
    19    9   17 2
    20   10   18 2
    21   10   19 1
    22   11   13 1
    23   11   26 1
    24   11   27 1
    25   12   13 1
    26   12   28 1
    27   12   29 1
    28   13   15 1
    29   13   16 1
    30   14   30 1
    31   14   31 1
    32   14   32 1
    33   15   33 1
    34   15   34 1
    35   15   35 1
    36   16   36 1
    37   16   37 1
    38   16   38 1
    39   17   19 1
