@<TRIPOS>MOLECULE
*****
   25    26     0     0     0
SMALL
NO_CHARGES

@<TRIPOS>ATOM
      1 C1         -0.5685   -2.0675   -6.2742 C.ar      1 <0>         0.0000
      2 C2         -1.1345   -0.7993   -6.4397 C.ar      1 <0>         0.0000
      3 C3         -0.4628   -1.6793   -3.8680 C.ar      1 <0>         0.0000
      4 C4         -1.0244   -0.4104   -4.0347 C.ar      1 <0>         0.0000
      5 C5         -0.2508   -2.4796   -4.9846 C.ar      1 <0>         0.0000
      6 C6         -1.3641    0.0030   -5.3305 C.ar      1 <0>         0.0000
      7 C7          2.8522    1.6489   -3.3810 C.3       1 <0>         0.0000
      8 C8          2.5151    3.0454   -2.8520 C.3       1 <0>         0.0000
      9 C9          0.7941    1.5416   -2.4549 C.3       1 <0>         0.0000
     10 C10        -0.6757    1.6424   -2.8357 C.3       1 <0>         0.0000
     11 O1          1.5578    1.0630   -3.5462 O.3       1 <0>         0.0000
     12 O2          1.2859    2.8449   -2.1341 O.3       1 <0>         0.0000
     13 O3         -1.2901    0.3453   -2.9203 O.3       1 <0>         0.0000
     14 F1          0.2988   -3.7097   -4.8050 F         1 <0>         0.0000
     15 F2         -1.9405    1.2224   -5.5074 F         1 <0>         0.0000
     16 H1         -0.3833   -2.7225   -7.1188 H         1 <0>         0.0000
     17 H2         -1.4142   -0.4314   -7.4220 H         1 <0>         0.0000
     18 H3         -0.1902   -2.0222   -2.8758 H         1 <0>         0.0000
     19 H4          3.3539    1.6462   -4.3500 H         1 <0>         0.0000
     20 H5          3.4447    1.0732   -2.6563 H         1 <0>         0.0000
     21 H6          3.2693    3.4414   -2.1660 H         1 <0>         0.0000
     22 H7          2.3485    3.7599   -3.6663 H         1 <0>         0.0000
     23 H8          0.9265    0.8825   -1.5818 H         1 <0>         0.0000
     24 H9         -0.7761    2.2026   -3.7675 H         1 <0>         0.0000
     25 H10        -1.2085    2.1654   -2.0398 H         1 <0>         0.0000
@<TRIPOS>BOND
     1    1    2 ar
     2    1    5 ar
     3    1   16 1
     4    2    6 ar
     5    2   17 1
     6    3    4 ar
     7    3    5 ar
     8    3   18 1
     9    4    6 ar
    10    4   13 1
    11    5   14 1
    12    6   15 1
    13    7    8 1
    14    7   11 1
    15    7   19 1
    16    7   20 1
    17    8   12 1
    18    8   21 1
    19    8   22 1
    20    9   10 1
    21    9   12 1
    22    9   11 1
    23    9   23 1
    24   10   13 1
    25   10   24 1
    26   10   25 1
