@<TRIPOS>MOLECULE
*****
   33    33     0     0     0
SMALL
NO_CHARGES

@<TRIPOS>ATOM
      1 C1         -1.8135    1.0286    5.5167 C.ar      1 <0>         0.0000
      2 C2         -0.8759    0.9371    6.5591 C.ar      1 <0>         0.0000
      3 C3         -0.6052   -0.6489    4.2866 C.ar      1 <0>         0.0000
      4 C4         -1.6924    0.2429    4.3741 C.ar      1 <0>         0.0000
      5 C5          0.1980    0.0533    6.4710 C.ar      1 <0>         0.0000
      6 C6          0.3341   -0.7529    5.3110 C.ar      1 <0>         0.0000
      7 C7         -5.8452   -1.9265    2.4366 C.3       1 <0>         0.0000
      8 C8          1.0666    0.6862    8.5986 C.3       1 <0>         0.0000
      9 C9          1.5977   -2.4091    4.1496 C.3       1 <0>         0.0000
     10 C10        -2.7193    0.2882    3.2656 C.3       1 <0>         0.0000
     11 C11        -3.7575   -0.8417    3.3854 C.3       1 <0>         0.0000
     12 C12        -4.7687   -0.8579    2.2423 C.3       1 <0>         0.0000
     13 O1         -4.0225   -1.0904    1.0328 O.3       1 <0>         0.0000
     14 O2          1.1650   -0.1098    7.4259 O.3       1 <0>         0.0000
     15 O3          1.4164   -1.5886    5.2964 O.3       1 <0>         0.0000
     16 H1         -2.6416    1.7276    5.6084 H         1 <0>         0.0000
     17 H2         -0.9950    1.5660    7.4342 H         1 <0>         0.0000
     18 H3         -0.5060   -1.2598    3.3952 H         1 <0>         0.0000
     19 H4         -5.3890   -2.9200    2.4986 H         1 <0>         0.0000
     20 H5         -6.4144   -1.7462    3.3551 H         1 <0>         0.0000
     21 H6         -6.5560   -1.9282    1.6010 H         1 <0>         0.0000
     22 H7          1.9194    0.4086    9.2200 H         1 <0>         0.0000
     23 H8          0.1372    0.4830    9.1465 H         1 <0>         0.0000
     24 H9          1.1220    1.7573    8.3642 H         1 <0>         0.0000
     25 H10         2.5040   -2.9870    4.3373 H         1 <0>         0.0000
     26 H11         1.7321   -1.8072    3.2418 H         1 <0>         0.0000
     27 H12         0.7526   -3.0949    4.0078 H         1 <0>         0.0000
     28 H13        -3.2382    1.2541    3.2847 H         1 <0>         0.0000
     29 H14        -2.2308    0.2100    2.2896 H         1 <0>         0.0000
     30 H15        -4.2954   -0.7432    4.3357 H         1 <0>         0.0000
     31 H16        -3.2453   -1.8112    3.4092 H         1 <0>         0.0000
     32 H17        -5.2516    0.1313    2.1832 H         1 <0>         0.0000
     33 H18        -4.6465   -1.0943    0.2903 H         1 <0>         0.0000
@<TRIPOS>BOND
     1    1    2 ar
     2    1    4 ar
     3    1   16 1
     4    2    5 ar
     5    2   17 1
     6    3    4 ar
     7    3    6 ar
     8    3   18 1
     9    4   10 1
    10    5    6 ar
    11    5   14 1
    12    6   15 1
    13    7   12 1
    14    7   19 1
    15    7   20 1
    16    7   21 1
    17    8   14 1
    18    8   22 1
    19    8   23 1
    20    8   24 1
    21    9   15 1
    22    9   25 1
    23    9   26 1
    24    9   27 1
    25   10   11 1
    26   10   28 1
    27   10   29 1
    28   11   12 1
    29   11   30 1
    30   11   31 1
    31   12   13 1
    32   12   32 1
    33   13   33 1
