@<TRIPOS>MOLECULE
*****
   19    19     0     0     0
SMALL
NO_CHARGES

@<TRIPOS>ATOM
      1 C1          0.1308   -0.8683   -1.9023 C.2       1 <0>         0.0000
      2 C2         -0.3474   -0.7954   -0.6533 C.2       1 <0>         0.0000
      3 C3         -0.5550   -4.0617   -0.7057 C.2       1 <0>         0.0000
      4 C4         -0.3002   -1.9125   -2.8857 C.3       1 <0>         0.0000
      5 C5         -1.3440   -1.7663   -0.0893 C.3       1 <0>         0.0000
      6 C6         -1.5697   -2.6589   -2.4612 C.3       1 <0>         0.0000
      7 C7         -1.6010   -2.9889   -0.9712 C.3       1 <0>         0.0000
      8 O1          0.6001   -3.8477   -0.3694 O.2       1 <0>         0.0000
      9 O2         -1.0780   -5.2977   -0.8959 O.3       1 <0>         0.0000
     10 H1          0.8677   -0.1414   -2.2311 H         1 <0>         0.0000
     11 H2         -0.0002    0.0002   -0.0003 H         1 <0>         0.0000
     12 H3         -0.4750   -1.4423   -3.8602 H         1 <0>         0.0000
     13 H4          0.5236   -2.6236   -3.0195 H         1 <0>         0.0000
     14 H5         -1.0119   -2.0716    0.9102 H         1 <0>         0.0000
     15 H6         -2.2872   -1.2223    0.0475 H         1 <0>         0.0000
     16 H7         -2.4389   -2.0290   -2.6944 H         1 <0>         0.0000
     17 H8         -1.6746   -3.5666   -3.0680 H         1 <0>         0.0000
     18 H9         -2.5493   -3.4413   -0.7134 H         1 <0>         0.0000
     19 H10        -2.0211   -5.2593   -1.1634 H         1 <0>         0.0000
@<TRIPOS>BOND
     1    1    2 2
     2    1    4 1
     3    1   10 1
     4    2    5 1
     5    2   11 1
     6    3    7 1
     7    3    8 2
     8    3    9 1
     9    4    6 1
    10    4   12 1
    11    4   13 1
    12    5    7 1
    13    5   14 1
    14    5   15 1
    15    6    7 1
    16    6   16 1
    17    6   17 1
    18    7   18 1
    19    9   19 1
