@<TRIPOS>MOLECULE
*****
   50    54     0     0     0
SMALL
NO_CHARGES

@<TRIPOS>ATOM
      1 C1         -5.9229   -2.4896    5.8502 C.ar      1 <0>         0.0000
      2 C2         -6.3272   -3.0929    7.0366 C.ar      1 <0>         0.0000
      3 C3         -4.1772   -2.7898    3.8948 C.2       1 <0>         0.0000
      4 C4         -4.6782   -4.8716    6.8109 C.ar      1 <0>         0.0000
      5 C5         -4.8757   -3.0814    5.1218 C.ar      1 <0>         0.0000
      6 C6         -5.7186   -4.2718    7.5266 C.ar      1 <0>         0.0000
      7 C7         -4.2870   -4.2581    5.6269 C.ar      1 <0>         0.0000
      8 C8         -3.2461   -3.7718    3.7376 C.2       1 <0>         0.0000
      9 C9         -2.2479   -3.9791    2.6635 C.2       1 <0>         0.0000
     10 C10        -7.4361   -5.8199    8.6103 C.2       1 <0>         0.0000
     11 C11        -8.5659   -7.8406    9.7497 C.3       1 <0>         0.0000
     12 C12        -9.4739   -6.6705    9.9445 C.3       1 <0>         0.0000
     13 C13         1.8778   -5.0158    0.9845 C.3       1 <0>         0.0000
     14 C14         1.4757   -4.9967    3.4575 C.3       1 <0>         0.0000
     15 C15         2.1551   -6.5471    1.0988 C.3       1 <0>         0.0000
     16 C16         1.7421   -6.5334    3.4669 C.3       1 <0>         0.0000
     17 C17        -0.0566   -6.9432    1.9338 C.3       1 <0>         0.0000
     18 C18        -7.9653   -6.4401    9.8596 C.3       1 <0>         0.0000
     19 C19         0.8811   -4.6228    2.0893 C.3       1 <0>         0.0000
     20 C20        -0.4165   -5.4274    1.8528 C.3       1 <0>         0.0000
     21 C21        -6.2241   -4.9007    8.7981 C.3       1 <0>         0.0000
     22 N1          1.3719   -7.1612    2.1859 N.3       1 <0>         0.0000
     23 N2         -1.4714   -5.0909    2.8030 N.am      1 <0>         0.0000
     24 O1         -2.1563   -3.1871    1.7214 O.2       1 <0>         0.0000
     25 O2         -7.9373   -6.0346    7.5166 O.2       1 <0>         0.0000
     26 O3         -3.2881   -4.6865    4.7854 O.3       1 <0>         0.0000
     27 H1         -6.4066   -1.5837    5.4958 H         1 <0>         0.0000
     28 H2         -7.1413   -2.6522    7.6069 H         1 <0>         0.0000
     29 H3         -4.3301   -1.9698    3.2067 H         1 <0>         0.0000
     30 H4         -4.1989   -5.7827    7.1583 H         1 <0>         0.0000
     31 H5         -8.3909   -8.5138   10.5832 H         1 <0>         0.0000
     32 H6         -8.5310   -8.2871    8.7612 H         1 <0>         0.0000
     33 H7        -10.0467   -6.3336    9.0866 H         1 <0>         0.0000
     34 H8         -9.9366   -6.5205   10.9151 H         1 <0>         0.0000
     35 H9          2.8017   -4.4388    1.1007 H         1 <0>         0.0000
     36 H10         1.4649   -4.7618    0.0017 H         1 <0>         0.0000
     37 H11         0.7892   -4.7063    4.2597 H         1 <0>         0.0000
     38 H12         2.4027   -4.4359    3.6186 H         1 <0>         0.0000
     39 H13         1.9016   -7.0654    0.1683 H         1 <0>         0.0000
     40 H14         3.2131   -6.7444    1.2981 H         1 <0>         0.0000
     41 H15         2.7985   -6.7516    3.6527 H         1 <0>         0.0000
     42 H16         1.1706   -7.0301    4.2589 H         1 <0>         0.0000
     43 H17        -0.6221   -7.4320    2.7362 H         1 <0>         0.0000
     44 H18        -0.3252   -7.4515    1.0030 H         1 <0>         0.0000
     45 H19        -7.4490   -6.1919   10.7825 H         1 <0>         0.0000
     46 H20         0.6509   -3.5558    2.0405 H         1 <0>         0.0000
     47 H21        -0.8005   -5.1720    0.8616 H         1 <0>         0.0000
     48 H22        -5.4408   -5.4954    9.2853 H         1 <0>         0.0000
     49 H23        -6.5091   -4.1345    9.5309 H         1 <0>         0.0000
     50 H24        -1.6067   -5.6658    3.6252 H         1 <0>         0.0000
@<TRIPOS>BOND
     1    1    2 ar
     2    1    5 ar
     3    1   27 1
     4    2    6 ar
     5    2   28 1
     6    3    5 1
     7    3    8 2
     8    3   29 1
     9    4    6 ar
    10    4    7 ar
    11    4   30 1
    12    5    7 ar
    13    6   21 1
    14    7   26 1
    15    8    9 1
    16    8   26 1
    17    9   23 am
    18    9   24 2
    19   10   18 1
    20   10   21 1
    21   10   25 2
    22   11   12 1
    23   11   18 1
    24   11   31 1
    25   11   32 1
    26   12   18 1
    27   12   33 1
    28   12   34 1
    29   13   15 1
    30   13   19 1
    31   13   35 1
    32   13   36 1
    33   14   16 1
    34   14   19 1
    35   14   37 1
    36   14   38 1
    37   15   22 1
    38   15   39 1
    39   15   40 1
    40   16   22 1
    41   16   41 1
    42   16   42 1
    43   17   20 1
    44   17   22 1
    45   17   43 1
    46   17   44 1
    47   18   45 1
    48   19   20 1
    49   19   46 1
    50   20   23 1
    51   20   47 1
    52   21   48 1
    53   21   49 1
    54   23   50 1
