@<TRIPOS>MOLECULE
*****
   49    52     0     0     0
SMALL
NO_CHARGES

@<TRIPOS>ATOM
      1 C1          5.4884   -4.5550    4.0283 C.ar      1 <0>         0.0000
      2 C2          4.1498   -4.6736    4.4058 C.ar      1 <0>         0.0000
      3 C3          5.8254   -4.1857    2.7239 C.ar      1 <0>         0.0000
      4 C4          6.9278    0.5035    0.8561 C.ar      1 <0>         0.0000
      5 C5          3.4821   -4.0656    2.1690 C.ar      1 <0>         0.0000
      6 C6          5.1358    2.5930    1.4611 C.ar      1 <0>         0.0000
      7 C7          0.5790   -3.9610    3.2017 C.2       1 <0>         0.0000
      8 C8          1.1512   -5.2221    4.9318 C.2       1 <0>         0.0000
      9 C9          5.5333    0.2452    0.8874 C.ar      1 <0>         0.0000
     10 C10         3.1227   -4.4324    3.4772 C.ar      1 <0>         0.0000
     11 C11         1.7070   -4.5389    3.8540 C.2       1 <0>         0.0000
     12 C12         4.8171   -3.9371    1.7819 C.ar      1 <0>         0.0000
     13 C13         4.6268    1.2963    1.1835 C.ar      1 <0>         0.0000
     14 C14         7.4060    1.7652    1.1280 C.ar      1 <0>         0.0000
     15 C15         6.4948    2.8207    1.4373 C.ar      1 <0>         0.0000
     16 C16         4.9279   -1.0371    0.6378 C.ar      1 <0>         0.0000
     17 C17         2.8401   -0.1096    0.9450 C.ar      1 <0>         0.0000
     18 C18         1.3563   -0.3642    0.9874 C.3       1 <0>         0.0000
     19 C19         6.1253   -4.4304   -0.3517 C.3       1 <0>         0.0000
     20 C20         6.2930    5.1420    1.9990 C.3       1 <0>         0.0000
     21 C21         5.1513   -3.4910    0.3636 C.3       1 <0>         0.0000
     22 N1         -0.5675   -4.2544    3.8170 N.2       1 <0>         0.0000
     23 N2          3.2694    1.1101    1.2115 N.ar      1 <0>         0.0000
     24 N3          3.6099   -1.1954    0.6599 N.ar      1 <0>         0.0000
     25 N4         -0.1935   -5.0239    4.8656 N.pl3     1 <0>         0.0000
     26 N5          5.7042   -2.1285    0.3388 N.pl3     1 <0>         0.0000
     27 O1          8.7499    2.0201    1.0999 O.3       1 <0>         0.0000
     28 O2          7.1175    4.0178    1.6854 O.3       1 <0>         0.0000
     29 H1          6.2721   -4.7409    4.7586 H         1 <0>         0.0000
     30 H2          3.9031   -4.9310    5.4327 H         1 <0>         0.0000
     31 H3          6.8736   -4.0896    2.4492 H         1 <0>         0.0000
     32 H4          7.6556   -0.2625    0.6053 H         1 <0>         0.0000
     33 H5          2.7080   -3.8606    1.4362 H         1 <0>         0.0000
     34 H6          4.4177    3.3727    1.6864 H         1 <0>         0.0000
     35 H7          0.5629   -3.3319    2.3208 H         1 <0>         0.0000
     36 H8          1.5991   -5.8319    5.7045 H         1 <0>         0.0000
     37 H9          1.0372   -0.9171    0.0987 H         1 <0>         0.0000
     38 H10         1.1119   -0.9798    1.8609 H         1 <0>         0.0000
     39 H11         0.8087    0.5765    1.0578 H         1 <0>         0.0000
     40 H12         7.1016   -4.4591    0.1458 H         1 <0>         0.0000
     41 H13         5.7295   -5.4495   -0.3572 H         1 <0>         0.0000
     42 H14         6.2782   -4.1033   -1.3845 H         1 <0>         0.0000
     43 H15         6.9738    5.9786    2.1584 H         1 <0>         0.0000
     44 H16         5.7140    4.9570    2.9104 H         1 <0>         0.0000
     45 H17         5.6144    5.3698    1.1697 H         1 <0>         0.0000
     46 H18         4.2201   -3.4495   -0.2031 H         1 <0>         0.0000
     47 H19        -0.9045   -5.3846    5.4870 H         1 <0>         0.0000
     48 H20         6.6796   -2.0589    0.5971 H         1 <0>         0.0000
     49 H21         8.8713    2.9628    1.3119 H         1 <0>         0.0000
@<TRIPOS>BOND
     1    1    2 ar
     2    1    3 ar
     3    1   29 1
     4    2   10 ar
     5    2   30 1
     6    3   12 ar
     7    3   31 1
     8    4    9 ar
     9    4   14 ar
    10    4   32 1
    11    5   10 ar
    12    5   12 ar
    13    5   33 1
    14    6   13 ar
    15    6   15 ar
    16    6   34 1
    17    7   11 1
    18    7   22 2
    19    7   35 1
    20    8   11 2
    21    8   25 1
    22    8   36 1
    23    9   13 ar
    24    9   16 ar
    25   10   11 1
    26   12   21 1
    27   13   23 ar
    28   14   15 ar
    29   14   27 1
    30   15   28 1
    31   16   24 ar
    32   16   26 1
    33   17   18 1
    34   17   23 ar
    35   17   24 ar
    36   18   37 1
    37   18   38 1
    38   18   39 1
    39   19   21 1
    40   19   40 1
    41   19   41 1
    42   19   42 1
    43   20   28 1
    44   20   43 1
    45   20   44 1
    46   20   45 1
    47   21   26 1
    48   21   46 1
    49   22   25 1
    50   25   47 1
    51   26   48 1
    52   27   49 1
