@<TRIPOS>MOLECULE
*****
   50    54     0     0     0
SMALL
NO_CHARGES

@<TRIPOS>ATOM
      1 C1         -5.7952   -2.5454    5.7029 C.ar      1 <0>         0.0000
      2 C2         -6.2352   -3.2151    6.8404 C.ar      1 <0>         0.0000
      3 C3         -4.1050   -2.8177    3.6959 C.2       1 <0>         0.0000
      4 C4         -4.7398   -5.0946    6.4345 C.ar      1 <0>         0.0000
      5 C5         -4.8082   -3.1547    4.9085 C.ar      1 <0>         0.0000
      6 C6         -5.7242   -4.4795    7.2142 C.ar      1 <0>         0.0000
      7 C7         -4.3097   -4.4129    5.3029 C.ar      1 <0>         0.0000
      8 C8         -3.2568   -3.8526    3.4407 C.2       1 <0>         0.0000
      9 C9         -2.2870   -4.0435    2.3377 C.2       1 <0>         0.0000
     10 C10        -5.4278   -4.7621    9.7361 C.2       1 <0>         0.0000
     11 C11        -5.8164   -4.5005   12.2725 C.3       1 <0>         0.0000
     12 C12        -4.9214   -5.6831   12.0938 C.3       1 <0>         0.0000
     13 C13         1.7512   -5.2002    0.5361 C.3       1 <0>         0.0000
     14 C14         1.3661   -5.3126    3.0091 C.3       1 <0>         0.0000
     15 C15         1.9486   -6.7479    0.5565 C.3       1 <0>         0.0000
     16 C16         1.5424   -6.8597    2.9233 C.3       1 <0>         0.0000
     17 C17        -0.2793   -7.0743    1.3778 C.3       1 <0>         0.0000
     18 C18        -5.9420   -5.3495   11.0074 C.3       1 <0>         0.0000
     19 C19         0.7844   -4.8227    1.6724 C.3       1 <0>         0.0000
     20 C20        -0.5569   -5.5392    1.3994 C.3       1 <0>         0.0000
     21 C21        -6.2139   -5.1402    8.4757 C.3       1 <0>         0.0000
     22 N1          1.1356   -7.3852    1.6079 N.3       1 <0>         0.0000
     23 N2         -1.5840   -5.2106    2.3826 N.am      1 <0>         0.0000
     24 O1         -2.1556   -3.1915    1.4543 O.2       1 <0>         0.0000
     25 O2         -4.4457   -4.0354    9.7077 O.2       1 <0>         0.0000
     26 O3         -3.3596   -4.8466    4.4092 O.3       1 <0>         0.0000
     27 H1         -6.2056   -1.5753    5.4367 H         1 <0>         0.0000
     28 H2         -6.9939   -2.7542    7.4684 H         1 <0>         0.0000
     29 H3         -4.1987   -1.9322    3.0822 H         1 <0>         0.0000
     30 H4         -4.3221   -6.0609    6.7031 H         1 <0>         0.0000
     31 H5         -6.6330   -4.5626   12.9851 H         1 <0>         0.0000
     32 H6         -5.3796   -3.5169   12.1334 H         1 <0>         0.0000
     33 H7         -3.8850   -5.4912   11.8354 H         1 <0>         0.0000
     34 H8         -5.1087   -6.5763   12.6817 H         1 <0>         0.0000
     35 H9          2.7049   -4.6801    0.6770 H         1 <0>         0.0000
     36 H10         1.3455   -4.8667   -0.4257 H         1 <0>         0.0000
     37 H11         0.7046   -5.0319    3.8353 H         1 <0>         0.0000
     38 H12         2.3255   -4.8171    3.1929 H         1 <0>         0.0000
     39 H13         1.6678   -7.1952   -0.4026 H         1 <0>         0.0000
     40 H14         2.9951   -7.0115    0.7393 H         1 <0>         0.0000
     41 H15         2.5843   -7.1500    3.0916 H         1 <0>         0.0000
     42 H16         0.9432   -7.3698    3.6857 H         1 <0>         0.0000
     43 H17        -0.8697   -7.5841    2.1486 H         1 <0>         0.0000
     44 H18        -0.5757   -7.5043    0.4164 H         1 <0>         0.0000
     45 H19        -6.8127   -5.9941   10.9281 H         1 <0>         0.0000
     46 H20         0.6130   -3.7438    1.6916 H         1 <0>         0.0000
     47 H21        -0.9352   -5.1992    0.4317 H         1 <0>         0.0000
     48 H22        -7.2680   -4.8991    8.6625 H         1 <0>         0.0000
     49 H23        -6.1737   -6.2342    8.3921 H         1 <0>         0.0000
     50 H24        -1.7363   -5.8270    3.1711 H         1 <0>         0.0000
@<TRIPOS>BOND
     1    1    2 ar
     2    1    5 ar
     3    1   27 1
     4    2    6 ar
     5    2   28 1
     6    3    5 1
     7    3    8 2
     8    3   29 1
     9    4    6 ar
    10    4    7 ar
    11    4   30 1
    12    5    7 ar
    13    6   21 1
    14    7   26 1
    15    8    9 1
    16    8   26 1
    17    9   23 am
    18    9   24 2
    19   10   18 1
    20   10   21 1
    21   10   25 2
    22   11   12 1
    23   11   18 1
    24   11   31 1
    25   11   32 1
    26   12   18 1
    27   12   33 1
    28   12   34 1
    29   13   15 1
    30   13   19 1
    31   13   35 1
    32   13   36 1
    33   14   16 1
    34   14   19 1
    35   14   37 1
    36   14   38 1
    37   15   22 1
    38   15   39 1
    39   15   40 1
    40   16   22 1
    41   16   41 1
    42   16   42 1
    43   17   20 1
    44   17   22 1
    45   17   43 1
    46   17   44 1
    47   18   45 1
    48   19   20 1
    49   19   46 1
    50   20   23 1
    51   20   47 1
    52   21   48 1
    53   21   49 1
    54   23   50 1
