@<TRIPOS>MOLECULE
*****
   41    43     0     0     0
SMALL
NO_CHARGES

@<TRIPOS>ATOM
      1 C1          8.1171    2.7457    2.2671 C.1       1 <0>         0.0000
      2 C2          4.5981    3.0212   -0.8782 C.ar      1 <0>         0.0000
      3 C3          4.4175    1.6322   -0.8002 C.ar      1 <0>         0.0000
      4 C4          4.0729    3.8671    0.1095 C.ar      1 <0>         0.0000
      5 C5          3.7149    1.0562    0.2690 C.ar      1 <0>         0.0000
      6 C6          5.6204    2.0734    4.7662 C.2       1 <0>         0.0000
      7 C7          7.0147    2.3434    3.0620 C.cat     1 <0>         0.0000
      8 C8          3.3871    3.3066    1.1862 C.ar      1 <0>         0.0000
      9 C9          3.2313    1.9166    1.2551 C.ar      1 <0>         0.0000
     10 C10         5.0605    1.4730    3.6629 C.2       1 <0>         0.0000
     11 C11         2.7693    3.9610    2.4037 C.3       1 <0>         0.0000
     12 C12         1.9767    2.8013    3.0493 C.3       1 <0>         0.0000
     13 C13         9.0459    5.4754    4.2412 C.3       1 <0>         0.0000
     14 C14         7.0528    5.8039    5.7680 C.3       1 <0>         0.0000
     15 N1          9.0023    3.1057    1.6026 N.1       1 <0>         0.0000
     16 N2          6.8261    2.6107    4.3733 N.pl3     1 <0>         0.0000
     17 N3          5.9456    1.6504    2.6193 N.pl3     1 <0>         0.0000
     18 N4          2.5703    1.5443    2.4817 N.pl3     1 <0>         0.0000
     19 N5          8.1613    4.9434    5.3038 N.pl3     1 <0>         0.0000
     20 O1          3.8298   -0.6316    2.7773 O.2       1 <0>         0.0000
     21 O2          2.9038    0.6080    4.8319 O.2       1 <0>         0.0000
     22 O3          7.3940    3.0964    6.8374 O.2       1 <0>         0.0000
     23 O4          9.3278    2.7126    5.1753 O.2       1 <0>         0.0000
     24 S1          3.4869    0.5782    3.5029 S.o2      1 <0>         0.0000
     25 S2          8.1262    3.3703    5.6241 S.o2      1 <0>         0.0000
     26 H1          5.1312    3.4459   -1.7237 H         1 <0>         0.0000
     27 H2          4.8043    0.9930   -1.5884 H         1 <0>         0.0000
     28 H3          4.1988    4.9440    0.0318 H         1 <0>         0.0000
     29 H4          3.5586   -0.0150    0.3355 H         1 <0>         0.0000
     30 H5          5.2696    2.1216    5.7876 H         1 <0>         0.0000
     31 H6          3.5454    4.3521    3.0742 H         1 <0>         0.0000
     32 H7          2.1132    4.7954    2.1447 H         1 <0>         0.0000
     33 H8          2.0023    2.7750    4.1379 H         1 <0>         0.0000
     34 H9          0.9321    2.8120    2.7328 H         1 <0>         0.0000
     35 H10         9.8488    4.7719    4.0324 H         1 <0>         0.0000
     36 H11         9.4779    6.4049    4.6171 H         1 <0>         0.0000
     37 H12         8.4739    5.6750    3.3310 H         1 <0>         0.0000
     38 H13         6.6050    5.3865    6.6680 H         1 <0>         0.0000
     39 H14         6.2995    5.9188    4.9816 H         1 <0>         0.0000
     40 H15         7.4784    6.7796    6.0089 H         1 <0>         0.0000
     41 H16         5.7930    1.3346    1.6573 H         1 <0>         0.0000
@<TRIPOS>BOND
     1    1    7 1
     2    1   15 3
     3    2    3 ar
     4    2    4 ar
     5    2   26 1
     6    3    5 ar
     7    3   27 1
     8    4    8 ar
     9    4   28 1
    10    5    9 ar
    11    5   29 1
    12    6   10 2
    13    6   16 1
    14    6   30 1
    15    7   16 1
    16    7   17 2
    17    8    9 ar
    18    8   11 1
    19    9   18 1
    20   10   17 1
    21   10   24 1
    22   11   12 1
    23   11   31 1
    24   11   32 1
    25   12   18 1
    26   12   33 1
    27   12   34 1
    28   13   19 1
    29   13   35 1
    30   13   36 1
    31   13   37 1
    32   14   19 1
    33   14   38 1
    34   14   39 1
    35   14   40 1
    36   16   25 1
    37   17   41 1
    38   18   24 1
    39   19   25 1
    40   20   24 2
    41   21   24 2
    42   22   25 2
    43   23   25 2
