@<TRIPOS>MOLECULE
*****
   51    54     0     0     0
SMALL
NO_CHARGES

@<TRIPOS>ATOM
      1 C1         -7.6740   -5.3017    8.6209 C.ar      1 <0>         0.0000
      2 C2         -1.1735   -8.5452    1.7783 C.ar      1 <0>         0.0000
      3 C3         -6.8751   -4.2143    8.2423 C.ar      1 <0>         0.0000
      4 C4         -7.8744   -6.3374    7.7075 C.ar      1 <0>         0.0000
      5 C5          0.1432   -8.4622    1.3096 C.ar      1 <0>         0.0000
      6 C6         -2.0194   -7.4398    1.6707 C.ar      1 <0>         0.0000
      7 C7         -6.2943   -4.1646    6.9774 C.ar      1 <0>         0.0000
      8 C8         -7.2819   -6.3021    6.4400 C.ar      1 <0>         0.0000
      9 C9          0.6165   -7.2736    0.7483 C.ar      1 <0>         0.0000
     10 C10        -1.5683   -6.2365    1.1018 C.ar      1 <0>         0.0000
     11 C11        -6.4810   -5.2120    6.0502 C.ar      1 <0>         0.0000
     12 C12        -0.2305   -6.1674    0.6559 C.ar      1 <0>         0.0000
     13 C13        -1.8324   -3.9013    0.5310 C.2       1 <0>         0.0000
     14 C14        -2.4205   -5.0581    0.8818 C.2       1 <0>         0.0000
     15 C15        -4.4480   -4.8796    4.7272 C.3       1 <0>         0.0000
     16 C16        -6.2908   -6.1124    3.7746 C.3       1 <0>         0.0000
     17 C17        -4.0024   -4.4654    3.3309 C.3       1 <0>         0.0000
     18 C18        -5.8294   -5.6868    2.3836 C.3       1 <0>         0.0000
     19 C19        -0.3309   -3.7679    0.4309 C.3       1 <0>         0.0000
     20 C20         0.2595   -3.3346    1.7829 C.3       1 <0>         0.0000
     21 C21         0.0719   -2.8045   -0.6847 C.3       1 <0>         0.0000
     22 C22        -3.9239   -5.1621    0.9975 C.3       1 <0>         0.0000
     23 N1         -5.8985   -5.1151    4.7649 N.pl3     1 <0>         0.0000
     24 N2         -4.3833   -5.4831    2.3526 N.3       1 <0>         0.0000
     25 O1          0.2642   -5.0419    0.0540 O.3       1 <0>         0.0000
     26 H1         -8.1321   -5.3349    9.6054 H         1 <0>         0.0000
     27 H2         -1.5371   -9.4659    2.2265 H         1 <0>         0.0000
     28 H3         -6.7175   -3.3889    8.9324 H         1 <0>         0.0000
     29 H4         -8.4883   -7.1923    7.9809 H         1 <0>         0.0000
     30 H5          0.8071   -9.3195    1.3877 H         1 <0>         0.0000
     31 H6         -3.0364   -7.4850    2.0448 H         1 <0>         0.0000
     32 H7         -5.7130   -3.2928    6.6919 H         1 <0>         0.0000
     33 H8         -7.4401   -7.1366    5.7664 H         1 <0>         0.0000
     34 H9          1.6345   -7.1849    0.3799 H         1 <0>         0.0000
     35 H10        -2.4249   -3.0068    0.3500 H         1 <0>         0.0000
     36 H11        -3.9029   -5.7917    5.0242 H         1 <0>         0.0000
     37 H12        -4.1853   -4.0912    5.4330 H         1 <0>         0.0000
     38 H13        -7.3808   -6.1987    3.7689 H         1 <0>         0.0000
     39 H14        -5.8680   -7.1066    4.0044 H         1 <0>         0.0000
     40 H15        -4.4453   -3.4818    3.0809 H         1 <0>         0.0000
     41 H16        -2.9149   -4.3540    3.3222 H         1 <0>         0.0000
     42 H17        -6.0906   -6.4735    1.6670 H         1 <0>         0.0000
     43 H18        -6.3732   -4.7687    2.0895 H         1 <0>         0.0000
     44 H19         1.3434   -3.2037    1.7011 H         1 <0>         0.0000
     45 H20         0.0534   -4.0901    2.5468 H         1 <0>         0.0000
     46 H21        -0.1865   -2.3889    2.1080 H         1 <0>         0.0000
     47 H22         1.1605   -2.7845   -0.7885 H         1 <0>         0.0000
     48 H23        -0.2746   -1.7919   -0.4555 H         1 <0>         0.0000
     49 H24        -0.3642   -3.1186   -1.6369 H         1 <0>         0.0000
     50 H25        -4.2801   -5.9618    0.3361 H         1 <0>         0.0000
     51 H26        -4.3728   -4.2187    0.6356 H         1 <0>         0.0000
@<TRIPOS>BOND
     1    1    4 ar
     2    1    3 ar
     3    1   26 1
     4    2    5 ar
     5    2    6 ar
     6    2   27 1
     7    3    7 ar
     8    3   28 1
     9    4    8 ar
    10    4   29 1
    11    5    9 ar
    12    5   30 1
    13    6   10 ar
    14    6   31 1
    15    7   11 ar
    16    7   32 1
    17    8   11 ar
    18    8   33 1
    19    9   12 ar
    20    9   34 1
    21   10   12 ar
    22   10   14 1
    23   11   23 1
    24   12   25 1
    25   13   14 2
    26   13   19 1
    27   13   35 1
    28   14   22 1
    29   15   17 1
    30   15   23 1
    31   15   36 1
    32   15   37 1
    33   16   18 1
    34   16   23 1
    35   16   38 1
    36   16   39 1
    37   17   24 1
    38   17   40 1
    39   17   41 1
    40   18   24 1
    41   18   42 1
    42   18   43 1
    43   19   20 1
    44   19   21 1
    45   19   25 1
    46   20   44 1
    47   20   45 1
    48   20   46 1
    49   21   47 1
    50   21   48 1
    51   21   49 1
    52   22   24 1
    53   22   50 1
    54   22   51 1
