@<TRIPOS>MOLECULE
*****
   30    32     0     0     0
SMALL
NO_CHARGES

@<TRIPOS>ATOM
      1 C1          0.0809   -0.2851    5.9590 C.ar      1 <0>         0.0000
      2 C2         -0.4105   -0.2059    4.6412 C.ar      1 <0>         0.0000
      3 C3          1.4182   -0.6380    6.1886 C.ar      1 <0>         0.0000
      4 C4          0.5223   -0.4972    3.6708 C.ar      1 <0>         0.0000
      5 C5          1.8534   -0.8458    3.9830 C.ar      1 <0>         0.0000
      6 C6          1.6640   -0.8780    1.8589 C.2       1 <0>         0.0000
      7 C7          3.1149   -1.4771    0.0174 C.3       1 <0>         0.0000
      8 C8          0.7271   -0.9987   -0.4128 C.3       1 <0>         0.0000
      9 C9          3.4456   -0.8460   -1.3304 C.3       1 <0>         0.0000
     10 C10         1.1310   -0.3793   -1.7477 C.3       1 <0>         0.0000
     11 C11         2.6780   -0.5088   -3.5962 C.3       1 <0>         0.0000
     12 N1          2.3198   -0.9219    5.2282 N.ar      1 <0>         0.0000
     13 N2          2.5485   -1.0896    2.8000 N.2       1 <0>         0.0000
     14 N3          1.8527   -0.9277    0.5213 N.pl3     1 <0>         0.0000
     15 N4          2.3379   -1.0165   -2.2717 N.3       1 <0>         0.0000
     16 O1          0.3946   -0.5195    2.2922 O.3       1 <0>         0.0000
     17 H1         -0.5704   -0.0739    6.8015 H         1 <0>         0.0000
     18 H2         -1.4379    0.0632    4.4148 H         1 <0>         0.0000
     19 H3          1.7871   -0.6965    7.2111 H         1 <0>         0.0000
     20 H4          3.0244   -2.5666   -0.0931 H         1 <0>         0.0000
     21 H5          3.8966   -1.2695    0.7479 H         1 <0>         0.0000
     22 H6         -0.1234   -0.4624    0.0075 H         1 <0>         0.0000
     23 H7          0.4373   -2.0479   -0.5679 H         1 <0>         0.0000
     24 H8          3.6896    0.2236   -1.1818 H         1 <0>         0.0000
     25 H9          4.3350   -1.3367   -1.7391 H         1 <0>         0.0000
     26 H10         0.3147   -0.5248   -2.4632 H         1 <0>         0.0000
     27 H11         1.2717    0.7109   -1.6134 H         1 <0>         0.0000
     28 H12         3.5582   -1.0359   -3.9773 H         1 <0>         0.0000
     29 H13         2.8967    0.5756   -3.6000 H         1 <0>         0.0000
     30 H14         1.8480   -0.6925   -4.2858 H         1 <0>         0.0000
@<TRIPOS>BOND
     1    1    2 ar
     2    1    3 ar
     3    1   17 1
     4    2    4 ar
     5    2   18 1
     6    3   12 ar
     7    3   19 1
     8    4    5 ar
     9    4   16 1
    10    5   12 ar
    11    5   13 1
    12    6   13 2
    13    6   14 1
    14    6   16 1
    15    7    9 1
    16    7   14 1
    17    7   20 1
    18    7   21 1
    19    8   10 1
    20    8   14 1
    21    8   22 1
    22    8   23 1
    23    9   15 1
    24    9   24 1
    25    9   25 1
    26   10   15 1
    27   10   26 1
    28   10   27 1
    29   11   15 1
    30   11   28 1
    31   11   29 1
    32   11   30 1
