@<TRIPOS>MOLECULE
*****
   36    38     0     0     0
SMALL
NO_CHARGES

@<TRIPOS>ATOM
      1 C1         -4.0267    0.3651   -8.1990 C.ar      1 <0>         0.0000
      2 C2         -5.4371    0.4206   -8.1573 C.ar      1 <0>         0.0000
      3 C3         -3.2565    0.7105   -7.0914 C.ar      1 <0>         0.0000
      4 C4         -6.1063    0.8362   -7.0070 C.ar      1 <0>         0.0000
      5 C5         -4.5932    1.8983   -3.8987 C.2       1 <0>         0.0000
      6 C6         -3.9040    1.1165   -5.9098 C.ar      1 <0>         0.0000
      7 C7         -3.4565    1.5658   -4.6092 C.2       1 <0>         0.0000
      8 C8         -5.3268    1.1855   -5.8980 C.ar      1 <0>         0.0000
      9 C9         -2.0913    1.7964   -4.0791 C.2       1 <0>         0.0000
     10 C10         0.3502   -1.0318   -2.8533 C.3       1 <0>         0.0000
     11 C11        -1.0677   -1.3042   -3.3741 C.3       1 <0>         0.0000
     12 C12         0.5969    0.4768   -2.7091 C.3       1 <0>         0.0000
     13 C13        -1.3526   -0.5167   -4.6622 C.3       1 <0>         0.0000
     14 C14         0.2699    1.2045   -4.0189 C.3       1 <0>         0.0000
     15 C15        -7.0923    1.8741   -4.2385 C.3       1 <0>         0.0000
     16 N1         -5.7190    1.6591   -4.6532 N.pl3     1 <0>         0.0000
     17 N2         -1.0967    0.9170   -4.4714 N.am      1 <0>         0.0000
     18 O1         -1.8540    2.7697   -3.3520 O.2       1 <0>         0.0000
     19 H1         -3.5360    0.0511   -9.1165 H         1 <0>         0.0000
     20 H2         -6.0099    0.1432   -9.0380 H         1 <0>         0.0000
     21 H3         -2.1721    0.6778   -7.1392 H         1 <0>         0.0000
     22 H4         -7.1913    0.8917   -6.9814 H         1 <0>         0.0000
     23 H5         -4.6650    2.2997   -2.8967 H         1 <0>         0.0000
     24 H6          1.0801   -1.4528   -3.5594 H         1 <0>         0.0000
     25 H7          0.5093   -1.5415   -1.8963 H         1 <0>         0.0000
     26 H8         -1.2120   -2.3741   -3.5674 H         1 <0>         0.0000
     27 H9         -1.8044   -1.0094   -2.6157 H         1 <0>         0.0000
     28 H10        -0.0360    0.8902   -1.9156 H         1 <0>         0.0000
     29 H11         1.6392    0.6732   -2.4312 H         1 <0>         0.0000
     30 H12        -0.7021   -0.8769   -5.4705 H         1 <0>         0.0000
     31 H13        -2.3818   -0.6694   -4.9793 H         1 <0>         0.0000
     32 H14         0.3688    2.2833   -3.9035 H         1 <0>         0.0000
     33 H15         0.9541    0.8725   -4.8114 H         1 <0>         0.0000
     34 H16        -7.5846    2.6030   -4.8913 H         1 <0>         0.0000
     35 H17        -7.6585    0.9367   -4.2653 H         1 <0>         0.0000
     36 H18        -7.1019    2.2588   -3.2176 H         1 <0>         0.0000
@<TRIPOS>BOND
     1    1    2 ar
     2    1    3 ar
     3    1   19 1
     4    2    4 ar
     5    2   20 1
     6    3    6 ar
     7    3   21 1
     8    4    8 ar
     9    4   22 1
    10    5    7 2
    11    5   16 1
    12    5   23 1
    13    6    7 1
    14    6    8 ar
    15    7    9 1
    16    8   16 1
    17    9   17 am
    18    9   18 2
    19   10   12 1
    20   10   11 1
    21   10   24 1
    22   10   25 1
    23   11   13 1
    24   11   26 1
    25   11   27 1
    26   12   14 1
    27   12   28 1
    28   12   29 1
    29   13   17 1
    30   13   30 1
    31   13   31 1
    32   14   17 1
    33   14   32 1
    34   14   33 1
    35   15   16 1
    36   15   34 1
    37   15   35 1
    38   15   36 1
