@<TRIPOS>MOLECULE
*****
   24    23     0     0     0
SMALL
NO_CHARGES

@<TRIPOS>ATOM
      1 C1          0.7252   -2.3560    1.6821 C.2       1 <0>         0.0000
      2 C2          3.0785   -1.6224    1.4922 C.3       1 <0>         0.0000
      3 C3         -4.3932   -3.0934    5.8123 C.3       1 <0>         0.0000
      4 C4         -0.9950   -2.4018    3.4836 C.3       1 <0>         0.0000
      5 C5         -2.2069   -3.1103    4.0947 C.3       1 <0>         0.0000
      6 C6         -0.2365   -3.2692    2.4637 C.3       1 <0>         0.0000
      7 N1          0.4919   -4.3591    3.1393 N.3       1 <0>         0.0000
      8 N2          2.0270   -2.4508    2.0569 N.am      1 <0>         0.0000
      9 O1          0.2983   -1.5943    0.8121 O.2       1 <0>         0.0000
     10 S1         -3.0508   -1.9839    5.2683 S.3       1 <0>         0.0000
     11 H1          3.9071   -2.2410    1.1307 H         1 <0>         0.0000
     12 H2          3.4648   -0.9111    2.2318 H         1 <0>         0.0000
     13 H3          2.6560   -1.0645    0.6555 H         1 <0>         0.0000
     14 H4         -4.9985   -2.5390    6.5336 H         1 <0>         0.0000
     15 H5         -3.9953   -3.9874    6.3018 H         1 <0>         0.0000
     16 H6         -5.0291   -3.3861    4.9717 H         1 <0>         0.0000
     17 H7         -1.3295   -1.4971    2.9690 H         1 <0>         0.0000
     18 H8         -0.3005   -2.0963    4.2751 H         1 <0>         0.0000
     19 H9         -1.9163   -4.0150    4.6418 H         1 <0>         0.0000
     20 H10        -2.9106   -3.4007    3.3063 H         1 <0>         0.0000
     21 H11        -0.9576   -3.6324    1.7180 H         1 <0>         0.0000
     22 H12         0.6999   -5.1047    2.4774 H         1 <0>         0.0000
     23 H13        -0.0808   -4.7722    3.8716 H         1 <0>         0.0000
     24 H14         2.2189   -3.1082    2.8067 H         1 <0>         0.0000
@<TRIPOS>BOND
     1    1    6 1
     2    1    8 am
     3    1    9 2
     4    2    8 1
     5    2   11 1
     6    2   12 1
     7    2   13 1
     8    3   10 1
     9    3   14 1
    10    3   15 1
    11    3   16 1
    12    4    5 1
    13    4    6 1
    14    4   17 1
    15    4   18 1
    16    5   10 1
    17    5   19 1
    18    5   20 1
    19    6    7 1
    20    6   21 1
    21    7   22 1
    22    7   23 1
    23    8   24 1
