@<TRIPOS>MOLECULE
*****
   26    27     0     0     0
SMALL
NO_CHARGES

@<TRIPOS>ATOM
      1 C1         -1.7912   -7.0159    0.1608 C.ar      1 <0>         0.0000
      2 C2         -0.9926   -6.5844   -0.9074 C.ar      1 <0>         0.0000
      3 C3         -2.1754   -6.0973    1.1383 C.ar      1 <0>         0.0000
      4 C4         -0.5881   -5.2542   -0.9961 C.ar      1 <0>         0.0000
      5 C5         -1.7761   -4.7561    1.0639 C.ar      1 <0>         0.0000
      6 C6         -0.9814   -4.3364   -0.0102 C.ar      1 <0>         0.0000
      7 C7          0.8013    1.5265   -0.6436 C.2       1 <0>         0.0000
      8 C8          0.4940    0.5354   -1.4894 C.2       1 <0>         0.0000
      9 C9         -0.4308   -0.7104    0.3151 C.2       1 <0>         0.0000
     10 C10         0.2209    1.5109    0.7531 C.3       1 <0>         0.0000
     11 C11        -0.9600   -2.0559    0.7552 C.3       1 <0>         0.0000
     12 N1         -0.1530    0.1612    1.2079 N.2       1 <0>         0.0000
     13 N2         -0.3385   -0.5202   -1.0638 N.pl3     1 <0>         0.0000
     14 O1         -0.5321   -3.0487   -0.1816 O.3       1 <0>         0.0000
     15 H1         -2.1054   -8.0535    0.2279 H         1 <0>         0.0000
     16 H2         -0.6832   -7.2885   -1.6756 H         1 <0>         0.0000
     17 H3         -2.7917   -6.4181    1.9743 H         1 <0>         0.0000
     18 H4          0.0331   -4.9067   -1.8168 H         1 <0>         0.0000
     19 H5         -2.0828   -4.0647    1.8404 H         1 <0>         0.0000
     20 H6          1.4670    2.3260   -0.9534 H         1 <0>         0.0000
     21 H7          0.8622    0.4687   -2.5082 H         1 <0>         0.0000
     22 H8          0.9346    1.9246    1.4746 H         1 <0>         0.0000
     23 H9         -0.6726    2.1535    0.8127 H         1 <0>         0.0000
     24 H10        -2.0575   -2.0230    0.7831 H         1 <0>         0.0000
     25 H11        -0.5822   -2.2615    1.7601 H         1 <0>         0.0000
     26 H12        -0.3162   -1.3778   -1.6036 H         1 <0>         0.0000
@<TRIPOS>BOND
     1    1    3 ar
     2    1    2 ar
     3    1   15 1
     4    2    4 ar
     5    2   16 1
     6    3    5 ar
     7    3   17 1
     8    4    6 ar
     9    4   18 1
    10    5    6 ar
    11    5   19 1
    12    6   14 1
    13    7    8 2
    14    7   10 1
    15    7   20 1
    16    8   13 1
    17    8   21 1
    18    9   11 1
    19    9   12 2
    20    9   13 1
    21   10   12 1
    22   10   22 1
    23   10   23 1
    24   11   14 1
    25   11   24 1
    26   11   25 1
    27   13   26 1
