@<TRIPOS>MOLECULE
*****
   30    30     0     0     0
SMALL
NO_CHARGES

@<TRIPOS>ATOM
      1 C1          5.5460   -2.0702   -1.5362 C.ar      1 <0>         0.0000
      2 C2          4.9520   -0.8217   -1.7579 C.ar      1 <0>         0.0000
      3 C3          5.3082   -2.7459   -0.3351 C.ar      1 <0>         0.0000
      4 C4          4.1321   -0.2514   -0.7809 C.ar      1 <0>         0.0000
      5 C5          4.4854   -2.1742    0.6413 C.ar      1 <0>         0.0000
      6 C6          3.8966   -0.9210    0.4294 C.ar      1 <0>         0.0000
      7 C7          5.5243   -0.5908    3.3192 C.2       1 <0>         0.0000
      8 C8          7.0055   -0.9279    3.3284 C.3       1 <0>         0.0000
      9 C9          3.0294    1.3824    3.4479 C.3       1 <0>         0.0000
     10 C10         3.0487   -0.2764    1.5078 C.3       1 <0>         0.0000
     11 C11         3.8017    0.8677    2.2249 C.3       1 <0>         0.0000
     12 N1          5.1827    0.5130    2.5791 N.am      1 <0>         0.0000
     13 O1          4.6945   -1.2740    3.9195 O.2       1 <0>         0.0000
     14 O2          3.6783    2.5067    4.0410 O.3       1 <0>         0.0000
     15 O3          1.8723    0.3505    0.9720 O.3       1 <0>         0.0000
     16 H1          6.1823   -2.5150   -2.2971 H         1 <0>         0.0000
     17 H2          5.1259   -0.2962   -2.6938 H         1 <0>         0.0000
     18 H3          5.7579   -3.7201   -0.1600 H         1 <0>         0.0000
     19 H4          3.6596    0.7119   -0.9553 H         1 <0>         0.0000
     20 H5          4.3069   -2.6969    1.5778 H         1 <0>         0.0000
     21 H6          7.2591   -1.3892    4.2840 H         1 <0>         0.0000
     22 H7          7.1972   -1.6576    2.5343 H         1 <0>         0.0000
     23 H8          7.6464   -0.0577    3.1584 H         1 <0>         0.0000
     24 H9          2.8992    0.5708    4.1723 H         1 <0>         0.0000
     25 H10         2.0479    1.7275    3.1217 H         1 <0>         0.0000
     26 H11         2.7719   -1.0341    2.2486 H         1 <0>         0.0000
     27 H12         3.8805    1.6944    1.5125 H         1 <0>         0.0000
     28 H13         5.9081    0.9022    1.9917 H         1 <0>         0.0000
     29 H14         4.5458    2.2003    4.3508 H         1 <0>         0.0000
     30 H15         1.3466   -0.3372    0.5338 H         1 <0>         0.0000
@<TRIPOS>BOND
     1    1    3 ar
     2    1    2 ar
     3    1   16 1
     4    2    4 ar
     5    2   17 1
     6    3    5 ar
     7    3   18 1
     8    4    6 ar
     9    4   19 1
    10    5    6 ar
    11    5   20 1
    12    6   10 1
    13    7    8 1
    14    7   12 am
    15    7   13 2
    16    8   21 1
    17    8   22 1
    18    8   23 1
    19    9   11 1
    20    9   14 1
    21    9   24 1
    22    9   25 1
    23   10   11 1
    24   10   15 1
    25   10   26 1
    26   11   12 1
    27   11   27 1
    28   12   28 1
    29   14   29 1
    30   15   30 1
