@<TRIPOS>MOLECULE
*****
   22    22     0     0     0
SMALL
NO_CHARGES

@<TRIPOS>ATOM
      1 C1          1.9797   -0.8862    0.0726 C.ar      1 <0>         0.0000
      2 C2          0.8630   -0.3223    0.6942 C.ar      1 <0>         0.0000
      3 C3          2.9332   -1.5762    0.8215 C.ar      1 <0>         0.0000
      4 C4          1.6466   -1.1270    2.8349 C.ar      1 <0>         0.0000
      5 C5          0.6801   -0.4407    2.0785 C.ar      1 <0>         0.0000
      6 C6          2.7657   -1.6926    2.2061 C.ar      1 <0>         0.0000
      7 C7          1.5290   -1.2196    4.3275 C.2       1 <0>         0.0000
      8 C8         -0.5305    0.1726    2.7446 C.3       1 <0>         0.0000
      9 C9          0.2821   -2.1222    6.1191 C.3       1 <0>         0.0000
     10 O1          2.2518   -0.6498    5.1201 O.2       1 <0>         0.0000
     11 O2          3.6558   -2.3742    2.9956 O.3       1 <0>         0.0000
     12 O3          0.4894   -2.0076    4.6954 O.3       1 <0>         0.0000
     13 H1          2.1101   -0.7897   -1.0020 H         1 <0>         0.0000
     14 H2          0.1283    0.2168    0.1025 H         1 <0>         0.0000
     15 H3          3.8005   -2.0220    0.3375 H         1 <0>         0.0000
     16 H4         -1.2024   -0.6032    3.1248 H         1 <0>         0.0000
     17 H5         -0.2441    0.7999    3.5955 H         1 <0>         0.0000
     18 H6         -1.0878    0.7949    2.0402 H         1 <0>         0.0000
     19 H7         -0.5781   -2.7814    6.2350 H         1 <0>         0.0000
     20 H8          0.0789   -1.1409    6.5549 H         1 <0>         0.0000
     21 H9          1.1656   -2.5510    6.5975 H         1 <0>         0.0000
     22 H10         4.3868   -2.6955    2.4447 H         1 <0>         0.0000
@<TRIPOS>BOND
     1    1    2 ar
     2    1    3 ar
     3    1   13 1
     4    2    5 ar
     5    2   14 1
     6    3    6 ar
     7    3   15 1
     8    4    5 ar
     9    4    6 ar
    10    4    7 1
    11    5    8 1
    12    6   11 1
    13    7   10 2
    14    7   12 1
    15    8   16 1
    16    8   17 1
    17    8   18 1
    18    9   12 1
    19    9   19 1
    20    9   20 1
    21    9   21 1
    22   11   22 1
