@<TRIPOS>MOLECULE
*****
   30    30     0     0     0
SMALL
NO_CHARGES

@<TRIPOS>ATOM
      1 C1          5.7105   -1.9111   -1.4143 C.ar      1 <0>         0.0000
      2 C2          5.2376   -0.6006   -1.5541 C.ar      1 <0>         0.0000
      3 C3          5.3142   -2.6786   -0.3154 C.ar      1 <0>         0.0000
      4 C4          4.3761   -0.0589   -0.5998 C.ar      1 <0>         0.0000
      5 C5          4.4473   -2.1335    0.6380 C.ar      1 <0>         0.0000
      6 C6          3.9746   -0.8222    0.5063 C.ar      1 <0>         0.0000
      7 C7          6.1959    0.8453    2.3845 C.2       1 <0>         0.0000
      8 C8          7.3932    0.1325    2.9887 C.3       1 <0>         0.0000
      9 C9          2.8047    1.4925    3.4447 C.3       1 <0>         0.0000
     10 C10         3.0621   -0.2292    1.5568 C.3       1 <0>         0.0000
     11 C11         3.7146    0.9340    2.3353 C.3       1 <0>         0.0000
     12 N1          4.9759    0.4841    2.9058 N.am      1 <0>         0.0000
     13 O1          6.3158    1.6726    1.4851 O.2       1 <0>         0.0000
     14 O2          1.6875    2.2201    2.9604 O.3       1 <0>         0.0000
     15 O3          1.8475    0.2950    0.9827 O.3       1 <0>         0.0000
     16 H1          6.3852   -2.3295   -2.1568 H         1 <0>         0.0000
     17 H2          5.5525    0.0033   -2.4008 H         1 <0>         0.0000
     18 H3          5.6750   -3.6978   -0.2020 H         1 <0>         0.0000
     19 H4          4.0262    0.9640   -0.7015 H         1 <0>         0.0000
     20 H5          4.1371   -2.7341    1.4913 H         1 <0>         0.0000
     21 H6          7.7281   -0.6351    2.2836 H         1 <0>         0.0000
     22 H7          8.2062    0.8501    3.1139 H         1 <0>         0.0000
     23 H8          7.1783   -0.3448    3.9495 H         1 <0>         0.0000
     24 H9          3.3927    2.1872    4.0504 H         1 <0>         0.0000
     25 H10         2.4840    0.6642    4.1022 H         1 <0>         0.0000
     26 H11         2.8028   -1.0174    2.2821 H         1 <0>         0.0000
     27 H12         3.9576    1.7386    1.6389 H         1 <0>         0.0000
     28 H13         4.9526   -0.2542    3.5970 H         1 <0>         0.0000
     29 H14         1.2812    1.6867    2.2542 H         1 <0>         0.0000
     30 H15         1.4724   -0.3810    0.3956 H         1 <0>         0.0000
@<TRIPOS>BOND
     1    1    3 ar
     2    1    2 ar
     3    1   16 1
     4    2    4 ar
     5    2   17 1
     6    3    5 ar
     7    3   18 1
     8    4    6 ar
     9    4   19 1
    10    5    6 ar
    11    5   20 1
    12    6   10 1
    13    7    8 1
    14    7   12 am
    15    7   13 2
    16    8   21 1
    17    8   22 1
    18    8   23 1
    19    9   11 1
    20    9   14 1
    21    9   24 1
    22    9   25 1
    23   10   11 1
    24   10   15 1
    25   10   26 1
    26   11   12 1
    27   11   27 1
    28   12   28 1
    29   14   29 1
    30   15   30 1
