@<TRIPOS>MOLECULE
*****
   19    20     0     0     0
SMALL
NO_CHARGES

@<TRIPOS>ATOM
      1 C1          4.5395    1.7963   -4.2042 C.ar      1 <0>         0.0000
      2 C2          3.2128    0.3158   -5.2793 C.ar      1 <0>         0.0000
      3 C3          3.9714    1.4393   -2.9919 C.ar      1 <0>         0.0000
      4 C4          2.9397    0.4645   -3.0001 C.ar      1 <0>         0.0000
      5 C5          0.7252   -0.3035   -0.5067 C.3       1 <0>         0.0000
      6 C6          1.0629   -0.8088   -1.9360 C.3       1 <0>         0.0000
      7 C7          1.9141    0.6867   -0.6321 C.3       1 <0>         0.0000
      8 N1          4.1683    1.2455   -5.3744 N.ar      1 <0>         0.0000
      9 N2          2.5838   -0.0951   -4.1776 N.ar      1 <0>         0.0000
     10 N3          2.2903    0.0105   -1.8972 N.pl3     1 <0>         0.0000
     11 Cl1         4.5792    2.1589   -1.5090 Cl        1 <0>         0.0000
     12 H1          5.3278    2.5464   -4.2328 H         1 <0>         0.0000
     13 H2          2.9051   -0.1609   -6.2088 H         1 <0>         0.0000
     14 H3          0.8680   -1.0565    0.2702 H         1 <0>         0.0000
     15 H4         -0.2573    0.1561   -0.3917 H         1 <0>         0.0000
     16 H5          1.2549   -1.8785   -2.0547 H         1 <0>         0.0000
     17 H6          0.3673   -0.4845   -2.7168 H         1 <0>         0.0000
     18 H7          1.6187    1.7311   -0.7783 H         1 <0>         0.0000
     19 H8          2.6788    0.6347    0.1453 H         1 <0>         0.0000
@<TRIPOS>BOND
     1    1    3 ar
     2    1    8 ar
     3    1   12 1
     4    2    8 ar
     5    2    9 ar
     6    2   13 1
     7    3    4 ar
     8    3   11 1
     9    4    9 ar
    10    4   10 1
    11    5    7 1
    12    5    6 1
    13    5   14 1
    14    5   15 1
    15    6   10 1
    16    6   16 1
    17    6   17 1
    18    7   10 1
    19    7   18 1
    20    7   19 1
