@<TRIPOS>MOLECULE
*****
   24    23     0     0     0
SMALL
NO_CHARGES

@<TRIPOS>ATOM
      1 C1          0.0864   -2.7895    1.9834 C.2       1 <0>         0.0000
      2 C2          2.0348   -3.0499    0.4855 C.3       1 <0>         0.0000
      3 C3         -1.6275   -2.9131    7.4073 C.3       1 <0>         0.0000
      4 C4         -1.3903   -2.7468    4.0483 C.3       1 <0>         0.0000
      5 C5         -0.2392   -2.4565    5.0150 C.3       1 <0>         0.0000
      6 C6         -0.9670   -3.5581    2.8071 C.3       1 <0>         0.0000
      7 N1         -0.5370   -4.9468    3.0615 N.3       1 <0>         0.0000
      8 N2          1.0092   -3.5755    1.3708 N.am      1 <0>         0.0000
      9 O1          0.0489   -1.5601    1.8915 O.2       1 <0>         0.0000
     10 S1         -0.7436   -1.5732    6.5371 S.3       1 <0>         0.0000
     11 H1          1.8607   -3.3587   -0.5520 H         1 <0>         0.0000
     12 H2          3.0272   -3.3951    0.7950 H         1 <0>         0.0000
     13 H3          2.0013   -1.9610    0.5388 H         1 <0>         0.0000
     14 H4         -1.8979   -2.5270    8.3932 H         1 <0>         0.0000
     15 H5         -0.9808   -3.7862    7.5401 H         1 <0>         0.0000
     16 H6         -2.5430   -3.2079    6.8876 H         1 <0>         0.0000
     17 H7         -2.1853   -3.3036    4.5578 H         1 <0>         0.0000
     18 H8         -1.8144   -1.7957    3.7191 H         1 <0>         0.0000
     19 H9          0.4900   -1.8001    4.5331 H         1 <0>         0.0000
     20 H10         0.2868   -3.3700    5.3191 H         1 <0>         0.0000
     21 H11        -1.8400   -3.6208    2.1458 H         1 <0>         0.0000
     22 H12        -1.3439   -5.5202    3.2991 H         1 <0>         0.0000
     23 H13         0.0892   -4.9793    3.8646 H         1 <0>         0.0000
     24 H14         0.8902   -4.5749    1.5037 H         1 <0>         0.0000
@<TRIPOS>BOND
     1    1    6 1
     2    1    8 am
     3    1    9 2
     4    2    8 1
     5    2   11 1
     6    2   12 1
     7    2   13 1
     8    3   10 1
     9    3   14 1
    10    3   15 1
    11    3   16 1
    12    4    5 1
    13    4    6 1
    14    4   17 1
    15    4   18 1
    16    5   10 1
    17    5   19 1
    18    5   20 1
    19    6    7 1
    20    6   21 1
    21    7   22 1
    22    7   23 1
    23    8   24 1
