@<TRIPOS>MOLECULE
*****
   24    23     0     0     0
SMALL
NO_CHARGES

@<TRIPOS>ATOM
      1 C1          0.6437   -2.0290    2.1739 C.2       1 <0>         0.0000
      2 C2          3.0960   -1.7133    2.2106 C.3       1 <0>         0.0000
      3 C3         -4.5585   -1.7364    3.8609 C.3       1 <0>         0.0000
      4 C4         -1.1724   -2.0372    3.9044 C.3       1 <0>         0.0000
      5 C5         -1.9516   -0.8059    3.4302 C.3       1 <0>         0.0000
      6 C6         -0.5154   -2.8438    2.7674 C.3       1 <0>         0.0000
      7 N1         -0.0334   -4.1347    3.2974 N.3       1 <0>         0.0000
      8 N2          1.8783   -2.4027    2.6012 N.am      1 <0>         0.0000
      9 O1          0.4318   -1.0913    1.3992 O.2       1 <0>         0.0000
     10 S1         -3.4794   -1.1892    2.4929 S.3       1 <0>         0.0000
     11 H1          3.8481   -2.4290    1.8623 H         1 <0>         0.0000
     12 H2          3.5157   -1.1375    3.0444 H         1 <0>         0.0000
     13 H3          2.8509   -1.0264    1.3995 H         1 <0>         0.0000
     14 H4         -5.5414   -1.9421    3.4297 H         1 <0>         0.0000
     15 H5         -4.6641   -0.9503    4.6147 H         1 <0>         0.0000
     16 H6         -4.1915   -2.6509    4.3358 H         1 <0>         0.0000
     17 H7         -0.3973   -1.7244    4.6157 H         1 <0>         0.0000
     18 H8         -1.8460   -2.7053    4.4563 H         1 <0>         0.0000
     19 H9         -1.3405   -0.2082    2.7509 H         1 <0>         0.0000
     20 H10        -2.2233   -0.1777    4.2850 H         1 <0>         0.0000
     21 H11        -1.2518   -2.9574    1.9624 H         1 <0>         0.0000
     22 H12         0.1249   -4.7833    2.5274 H         1 <0>         0.0000
     23 H13        -0.7514   -4.5549    3.8850 H         1 <0>         0.0000
     24 H14         1.8989   -3.1782    3.2566 H         1 <0>         0.0000
@<TRIPOS>BOND
     1    1    6 1
     2    1    8 am
     3    1    9 2
     4    2    8 1
     5    2   11 1
     6    2   12 1
     7    2   13 1
     8    3   10 1
     9    3   14 1
    10    3   15 1
    11    3   16 1
    12    4    5 1
    13    4    6 1
    14    4   17 1
    15    4   18 1
    16    5   10 1
    17    5   19 1
    18    5   20 1
    19    6    7 1
    20    6   21 1
    21    7   22 1
    22    7   23 1
    23    8   24 1
