@<TRIPOS>MOLECULE
*****
   24    23     0     0     0
SMALL
NO_CHARGES

@<TRIPOS>ATOM
      1 C1         -0.0184   -3.0809    1.6108 C.2       1 <0>         0.0000
      2 C2          0.1631   -1.5709   -0.3512 C.3       1 <0>         0.0000
      3 C3         -4.1555   -3.2449    6.7962 C.3       1 <0>         0.0000
      4 C4         -1.4507   -2.8269    3.6456 C.3       1 <0>         0.0000
      5 C5         -2.5095   -3.4355    4.5642 C.3       1 <0>         0.0000
      6 C6         -0.9975   -3.8129    2.5494 C.3       1 <0>         0.0000
      7 N1         -0.4032   -5.0039    3.1574 N.3       1 <0>         0.0000
      8 N2         -0.5928   -2.4112    0.5683 N.am      1 <0>         0.0000
      9 O1          1.1954   -3.0944    1.8196 O.2       1 <0>         0.0000
     10 S1         -3.0131   -2.2043    5.8258 S.3       1 <0>         0.0000
     11 H1         -0.0660   -0.5094   -0.2018 H         1 <0>         0.0000
     12 H2         -0.0555   -1.8414   -1.3893 H         1 <0>         0.0000
     13 H3          1.2229   -1.7338   -0.1542 H         1 <0>         0.0000
     14 H4         -4.5462   -2.6286    7.6095 H         1 <0>         0.0000
     15 H5         -3.6344   -4.1061    7.2244 H         1 <0>         0.0000
     16 H6         -4.9932   -3.5908    6.1832 H         1 <0>         0.0000
     17 H7         -1.8423   -1.9163    3.1774 H         1 <0>         0.0000
     18 H8         -0.5737   -2.5297    4.2321 H         1 <0>         0.0000
     19 H9         -2.1082   -4.3239    5.0567 H         1 <0>         0.0000
     20 H10        -3.3917   -3.7327    3.9846 H         1 <0>         0.0000
     21 H11        -1.8808   -4.1294    1.9791 H         1 <0>         0.0000
     22 H12         0.5280   -4.7410    3.4856 H         1 <0>         0.0000
     23 H13        -0.2413   -5.7032    2.4334 H         1 <0>         0.0000
     24 H14        -1.6009   -2.4279    0.4894 H         1 <0>         0.0000
@<TRIPOS>BOND
     1    1    6 1
     2    1    8 am
     3    1    9 2
     4    2    8 1
     5    2   11 1
     6    2   12 1
     7    2   13 1
     8    3   10 1
     9    3   14 1
    10    3   15 1
    11    3   16 1
    12    4    5 1
    13    4    6 1
    14    4   17 1
    15    4   18 1
    16    5   10 1
    17    5   19 1
    18    5   20 1
    19    6    7 1
    20    6   21 1
    21    7   22 1
    22    7   23 1
    23    8   24 1
