@<TRIPOS>MOLECULE
*****
   24    23     0     0     0
SMALL
NO_CHARGES

@<TRIPOS>ATOM
      1 C1         -0.4008   -2.4281    1.8028 C.2       1 <0>         0.0000
      2 C2          1.6817   -1.7967    0.6986 C.3       1 <0>         0.0000
      3 C3          0.0803   -0.0083    4.4202 C.3       1 <0>         0.0000
      4 C4         -1.4160   -2.9153    4.0677 C.3       1 <0>         0.0000
      5 C5         -0.2235   -2.7465    5.0171 C.3       1 <0>         0.0000
      6 C6         -1.1126   -3.4797    2.6697 C.3       1 <0>         0.0000
      7 N1         -0.3449   -4.7348    2.7582 N.3       1 <0>         0.0000
      8 N2          0.8152   -2.7923    1.3114 N.am      1 <0>         0.0000
      9 O1         -0.9613   -1.3594    1.5436 O.2       1 <0>         0.0000
     10 S1          1.0654   -1.5421    4.5231 S.3       1 <0>         0.0000
     11 H1          2.4707   -2.2999    0.1337 H         1 <0>         0.0000
     12 H2          2.1350   -1.1465    1.4585 H         1 <0>         0.0000
     13 H3          1.0907   -1.1786    0.0215 H         1 <0>         0.0000
     14 H4          0.7935    0.8126    4.3116 H         1 <0>         0.0000
     15 H5         -0.4924    0.1463    5.3399 H         1 <0>         0.0000
     16 H6         -0.5794   -0.0233    3.5500 H         1 <0>         0.0000
     17 H7         -2.1325   -3.5902    4.5575 H         1 <0>         0.0000
     18 H8         -1.9349   -1.9631    3.9325 H         1 <0>         0.0000
     19 H9          0.3201   -3.6885    5.1312 H         1 <0>         0.0000
     20 H10        -0.5956   -2.4618    6.0074 H         1 <0>         0.0000
     21 H11        -2.0876   -3.6182    2.1796 H         1 <0>         0.0000
     22 H12        -0.4422   -5.2587    1.8899 H         1 <0>         0.0000
     23 H13        -0.7311   -5.3241    3.4942 H         1 <0>         0.0000
     24 H14         1.2483   -3.5570    1.8204 H         1 <0>         0.0000
@<TRIPOS>BOND
     1    1    6 1
     2    1    8 am
     3    1    9 2
     4    2    8 1
     5    2   11 1
     6    2   12 1
     7    2   13 1
     8    3   10 1
     9    3   14 1
    10    3   15 1
    11    3   16 1
    12    4    5 1
    13    4    6 1
    14    4   17 1
    15    4   18 1
    16    5   10 1
    17    5   19 1
    18    5   20 1
    19    6    7 1
    20    6   21 1
    21    7   22 1
    22    7   23 1
    23    8   24 1
