@<TRIPOS>MOLECULE
*****
   23    24     0     0     0
SMALL
NO_CHARGES

@<TRIPOS>ATOM
      1 C1          2.0791   -1.0920   -0.2712 C.ar      1 <0>         0.0000
      2 C2          0.9995   -0.4647    0.3583 C.ar      1 <0>         0.0000
      3 C3          3.0605   -1.7093    0.5030 C.ar      1 <0>         0.0000
      4 C4          0.9114   -0.4768    1.7509 C.ar      1 <0>         0.0000
      5 C5          5.5954   -2.9090    4.1099 C.2       1 <0>         0.0000
      6 C6          5.7266   -3.8217    3.0847 C.2       1 <0>         0.0000
      7 C7          2.9942   -1.7318    1.9103 C.ar      1 <0>         0.0000
      8 C8          1.8885   -1.1053    2.5319 C.ar      1 <0>         0.0000
      9 C9          4.0775   -2.3762    2.6649 C.2       1 <0>         0.0000
     10 C10         1.4575   -2.2755    4.5616 C.3       1 <0>         0.0000
     11 N1          4.5755   -2.0243    3.8436 N.2       1 <0>         0.0000
     12 N2          4.7573   -3.4688    2.1665 N.pl3     1 <0>         0.0000
     13 O1          1.7274   -1.0372    3.8933 O.3       1 <0>         0.0000
     14 H1          2.1681   -1.0829   -1.3540 H         1 <0>         0.0000
     15 H2          0.2318    0.0312   -0.2297 H         1 <0>         0.0000
     16 H3          3.9268   -2.1419    0.0081 H         1 <0>         0.0000
     17 H4          0.0824   -0.0009    2.2668 H         1 <0>         0.0000
     18 H5          6.1806   -2.8385    5.0178 H         1 <0>         0.0000
     19 H6          6.3919   -4.6592    2.9304 H         1 <0>         0.0000
     20 H7          1.3103   -2.0223    5.6129 H         1 <0>         0.0000
     21 H8          2.2945   -2.9735    4.4775 H         1 <0>         0.0000
     22 H9          0.5431   -2.7326    4.1612 H         1 <0>         0.0000
     23 H10         4.5287   -3.9730    1.3203 H         1 <0>         0.0000
@<TRIPOS>BOND
     1    1    2 ar
     2    1    3 ar
     3    1   14 1
     4    2    4 ar
     5    2   15 1
     6    3    7 ar
     7    3   16 1
     8    4    8 ar
     9    4   17 1
    10    5    6 2
    11    5   11 1
    12    5   18 1
    13    6   12 1
    14    6   19 1
    15    7    8 ar
    16    7    9 1
    17    8   13 1
    18    9   11 2
    19    9   12 1
    20   10   13 1
    21   10   20 1
    22   10   21 1
    23   10   22 1
    24   12   23 1
