@<TRIPOS>MOLECULE
*****
   24    23     0     0     0
SMALL
NO_CHARGES

@<TRIPOS>ATOM
      1 C1          0.7412   -3.9089    1.3695 C.2       1 <0>         0.0000
      2 C2          0.9503   -2.4347   -0.6008 C.3       1 <0>         0.0000
      3 C3         -0.8183   -4.8242    6.3055 C.3       1 <0>         0.0000
      4 C4         -0.6146   -3.2209    3.4420 C.3       1 <0>         0.0000
      5 C5         -1.9602   -3.4363    4.1483 C.3       1 <0>         0.0000
      6 C6         -0.1790   -4.3793    2.5145 C.3       1 <0>         0.0000
      7 N1          0.5186   -5.4175    3.2758 N.3       1 <0>         0.0000
      8 N2          0.2514   -2.8979    0.5915 N.am      1 <0>         0.0000
      9 O1          1.8357   -4.4297    1.1545 O.2       1 <0>         0.0000
     10 S1         -2.1759   -4.9905    5.0955 S.3       1 <0>         0.0000
     11 H1          0.6995   -1.3870   -0.7862 H         1 <0>         0.0000
     12 H2          0.6908   -3.0295   -1.4853 H         1 <0>         0.0000
     13 H3          2.0236   -2.5236   -0.4306 H         1 <0>         0.0000
     14 H4         -0.9232   -5.6499    7.0137 H         1 <0>         0.0000
     15 H5         -0.9026   -3.8806    6.8529 H         1 <0>         0.0000
     16 H6          0.1499   -4.8936    5.8048 H         1 <0>         0.0000
     17 H7         -0.7020   -2.2789    2.8862 H         1 <0>         0.0000
     18 H8          0.1862   -3.0747    4.1721 H         1 <0>         0.0000
     19 H9         -2.7715   -3.4623    3.4119 H         1 <0>         0.0000
     20 H10        -2.1616   -2.5929    4.8183 H         1 <0>         0.0000
     21 H11        -1.0831   -4.7725    2.0178 H         1 <0>         0.0000
     22 H12         1.2662   -5.7987    2.6964 H         1 <0>         0.0000
     23 H13        -0.1290   -6.1579    3.5289 H         1 <0>         0.0000
     24 H14        -0.7068   -2.6070    0.7279 H         1 <0>         0.0000
@<TRIPOS>BOND
     1    1    6 1
     2    1    8 am
     3    1    9 2
     4    2    8 1
     5    2   11 1
     6    2   12 1
     7    2   13 1
     8    3   10 1
     9    3   14 1
    10    3   15 1
    11    3   16 1
    12    4    5 1
    13    4    6 1
    14    4   17 1
    15    4   18 1
    16    5   10 1
    17    5   19 1
    18    5   20 1
    19    6    7 1
    20    6   21 1
    21    7   22 1
    22    7   23 1
    23    8   24 1
