@<TRIPOS>MOLECULE
*****
   25    24     0     0     0
SMALL
NO_CHARGES

@<TRIPOS>ATOM
      1 C1          0.2231    0.0182    3.7310 C.2       1 <0>         0.0000
      2 C2         -0.1143   -2.6920    1.9771 C.2       1 <0>         0.0000
      3 C3          1.2811    0.5738    4.6672 C.3       1 <0>         0.0000
      4 C4          0.2395   -0.9896    0.1705 C.3       1 <0>         0.0000
      5 C5         -1.1957   -4.7668    2.6428 C.3       1 <0>         0.0000
      6 C6         -2.5214   -2.6592    2.6628 C.3       1 <0>         0.0000
      7 C7         -0.1962   -1.1941    1.6236 C.3       1 <0>         0.0000
      8 N1          0.6814   -0.4568    2.5306 N.am      1 <0>         0.0000
      9 N2         -1.2432   -3.3273    2.3999 N.am      1 <0>         0.0000
     10 O1         -0.9731    0.0195    4.0323 O.2       1 <0>         0.0000
     11 O2          0.9782   -3.2606    1.8541 O.2       1 <0>         0.0000
     12 H1          0.9838    1.5792    4.9749 H         1 <0>         0.0000
     13 H2          1.3144   -0.0494    5.5657 H         1 <0>         0.0000
     14 H3          2.2795    0.6130    4.2234 H         1 <0>         0.0000
     15 H4          1.2475   -1.3829    0.0132 H         1 <0>         0.0000
     16 H5         -0.4370   -1.5194   -0.5077 H         1 <0>         0.0000
     17 H6          0.2212    0.0753   -0.0780 H         1 <0>         0.0000
     18 H7         -1.3396   -4.9827    3.7085 H         1 <0>         0.0000
     19 H8         -0.2244   -5.1460    2.3297 H         1 <0>         0.0000
     20 H9         -1.9874   -5.2685    2.0742 H         1 <0>         0.0000
     21 H10        -3.1040   -2.5156    1.7435 H         1 <0>         0.0000
     22 H11        -2.3717   -1.7012    3.1632 H         1 <0>         0.0000
     23 H12        -3.1047   -3.2951    3.3327 H         1 <0>         0.0000
     24 H13        -1.1929   -0.7853    1.7672 H         1 <0>         0.0000
     25 H14         1.6704   -0.6612    2.4453 H         1 <0>         0.0000
@<TRIPOS>BOND
     1    1    3 1
     2    1    8 am
     3    1   10 2
     4    2    7 1
     5    2    9 am
     6    2   11 2
     7    3   12 1
     8    3   13 1
     9    3   14 1
    10    4    7 1
    11    4   15 1
    12    4   16 1
    13    4   17 1
    14    5    9 1
    15    5   18 1
    16    5   19 1
    17    5   20 1
    18    6    9 1
    19    6   21 1
    20    6   22 1
    21    6   23 1
    22    7    8 1
    23    7   24 1
    24    8   25 1
