@<TRIPOS>MOLECULE
*****
   25    24     0     0     0
SMALL
NO_CHARGES

@<TRIPOS>ATOM
      1 C1          1.0423    0.7689    3.4882 C.2       1 <0>         0.0000
      2 C2          0.4777   -2.3182    2.6614 C.2       1 <0>         0.0000
      3 C3          2.2788    1.6228    3.7034 C.3       1 <0>         0.0000
      4 C4         -0.2834   -1.1194    0.5948 C.3       1 <0>         0.0000
      5 C5          0.1731   -4.2210    4.1461 C.3       1 <0>         0.0000
      6 C6         -1.3714   -2.2780    4.3476 C.3       1 <0>         0.0000
      7 C7         -0.0131   -0.9717    2.0943 C.3       1 <0>         0.0000
      8 N1          1.0204    0.0340    2.3323 N.am      1 <0>         0.0000
      9 N2         -0.2298   -2.9002    3.6701 N.am      1 <0>         0.0000
     10 O1          0.1112    0.7628    4.2974 O.2       1 <0>         0.0000
     11 O2          1.4956   -2.8215    2.1688 O.2       1 <0>         0.0000
     12 H1          1.9653    2.6538    3.8849 H         1 <0>         0.0000
     13 H2          2.7935    1.2720    4.6026 H         1 <0>         0.0000
     14 H3          2.9761    1.6017    2.8617 H         1 <0>         0.0000
     15 H4          0.6129   -1.4706    0.0762 H         1 <0>         0.0000
     16 H5         -1.0793   -1.8507    0.4219 H         1 <0>         0.0000
     17 H6         -0.5939   -0.1583    0.1754 H         1 <0>         0.0000
     18 H7          0.5346   -4.1642    5.1800 H         1 <0>         0.0000
     19 H8          0.9714   -4.5977    3.5089 H         1 <0>         0.0000
     20 H9         -0.6806   -4.9079    4.1112 H         1 <0>         0.0000
     21 H10        -2.3040   -2.4135    3.7847 H         1 <0>         0.0000
     22 H11        -1.1945   -1.2163    4.5268 H         1 <0>         0.0000
     23 H12        -1.4938   -2.7623    5.3192 H         1 <0>         0.0000
     24 H13        -0.9084   -0.6105    2.5932 H         1 <0>         0.0000
     25 H14         1.8969   -0.1151    1.8458 H         1 <0>         0.0000
@<TRIPOS>BOND
     1    1    3 1
     2    1    8 am
     3    1   10 2
     4    2    7 1
     5    2    9 am
     6    2   11 2
     7    3   12 1
     8    3   13 1
     9    3   14 1
    10    4    7 1
    11    4   15 1
    12    4   16 1
    13    4   17 1
    14    5    9 1
    15    5   18 1
    16    5   19 1
    17    5   20 1
    18    6    9 1
    19    6   21 1
    20    6   22 1
    21    6   23 1
    22    7    8 1
    23    7   24 1
    24    8   25 1
