@<TRIPOS>MOLECULE
*****
   24    23     0     0     0
SMALL
NO_CHARGES

@<TRIPOS>ATOM
      1 C1         -0.0481   -1.5776    1.1889 C.2       1 <0>         0.0000
      2 C2         -0.5797    0.4605   -0.1263 C.3       1 <0>         0.0000
      3 C3         -4.3341   -2.0828    4.0323 C.3       1 <0>         0.0000
      4 C4         -1.0292   -2.4027    3.3400 C.3       1 <0>         0.0000
      5 C5         -1.8953   -3.4632    4.0241 C.3       1 <0>         0.0000
      6 C6         -0.6509   -2.7990    1.9002 C.3       1 <0>         0.0000
      7 N1          0.2622   -3.9430    1.9327 N.3       1 <0>         0.0000
      8 N2         -0.9509   -0.7710    0.5566 N.am      1 <0>         0.0000
      9 O1          1.1605   -1.3394    1.2307 O.2       1 <0>         0.0000
     10 S1         -3.5926   -3.6032    3.3427 S.3       1 <0>         0.0000
     11 H1         -1.1929    1.2973    0.2245 H         1 <0>         0.0000
     12 H2         -0.6940    0.3651   -1.2124 H         1 <0>         0.0000
     13 H3          0.4673    0.6635    0.1002 H         1 <0>         0.0000
     14 H4         -5.3846   -2.0727    3.7312 H         1 <0>         0.0000
     15 H5         -3.8523   -1.1796    3.6476 H         1 <0>         0.0000
     16 H6         -4.2818   -2.0865    5.1249 H         1 <0>         0.0000
     17 H7         -1.5396   -1.4334    3.3422 H         1 <0>         0.0000
     18 H8         -0.1029   -2.2696    3.9131 H         1 <0>         0.0000
     19 H9         -1.9741   -3.2716    5.0992 H         1 <0>         0.0000
     20 H10        -1.4400   -4.4476    3.8888 H         1 <0>         0.0000
     21 H11        -1.5681   -3.1069    1.3846 H         1 <0>         0.0000
     22 H12         1.1935   -3.5818    2.1477 H         1 <0>         0.0000
     23 H13         0.3354   -4.3434    0.9984 H         1 <0>         0.0000
     24 H14        -1.9173   -1.0694    0.5327 H         1 <0>         0.0000
@<TRIPOS>BOND
     1    1    6 1
     2    1    8 am
     3    1    9 2
     4    2    8 1
     5    2   11 1
     6    2   12 1
     7    2   13 1
     8    3   10 1
     9    3   14 1
    10    3   15 1
    11    3   16 1
    12    4    5 1
    13    4    6 1
    14    4   17 1
    15    4   18 1
    16    5   10 1
    17    5   19 1
    18    5   20 1
    19    6    7 1
    20    6   21 1
    21    7   22 1
    22    7   23 1
    23    8   24 1
