@<TRIPOS>MOLECULE
*****
   34    36     0     0     0
SMALL
NO_CHARGES

@<TRIPOS>ATOM
      1 C1          3.5384   -4.5023    0.5606 C.2       1 <0>         0.0000
      2 C2          4.1860   -5.6772    0.2499 C.2       1 <0>         0.0000
      3 C3          0.7348   -4.8003   -2.3954 C.ar      1 <0>         0.0000
      4 C4          2.4599   -4.3660   -0.3824 C.ar      1 <0>         0.0000
      5 C5          2.5026   -5.4891   -1.2367 C.ar      1 <0>         0.0000
      6 C6          1.4209   -3.4398   -0.6587 C.ar      1 <0>         0.0000
      7 C7          0.0149    0.8587   -1.6386 C.3       1 <0>         0.0000
      8 C8          0.9454   -0.3279   -1.3666 C.3       1 <0>         0.0000
      9 C9         -0.3208    1.5939   -0.3403 C.3       1 <0>         0.0000
     10 C10        -0.0098   -0.4184    0.9664 C.3       1 <0>         0.0000
     11 C11         0.3457   -1.2315   -0.2815 C.3       1 <0>         0.0000
     12 C12        -1.3380    1.3880    1.8421 C.3       1 <0>         0.0000
     13 N1          1.6619   -5.7487   -2.2540 N.ar      1 <0>         0.0000
     14 N2          0.5704   -3.6746   -1.6731 N.ar      1 <0>         0.0000
     15 N3          3.5591   -6.2729   -0.8378 N.pl3     1 <0>         0.0000
     16 N4         -0.9129    0.6814    0.6406 N.3       1 <0>         0.0000
     17 N5          1.2439   -2.3184    0.1059 N.pl3     1 <0>         0.0000
     18 H1          3.8103   -3.8383    1.3712 H         1 <0>         0.0000
     19 H2          5.0434   -6.1427    0.7166 H         1 <0>         0.0000
     20 H3          0.0175   -4.9462   -3.2014 H         1 <0>         0.0000
     21 H4          0.4790    1.5552   -2.3457 H         1 <0>         0.0000
     22 H5         -0.9159    0.5009   -2.0939 H         1 <0>         0.0000
     23 H6          1.1171   -0.9147   -2.2737 H         1 <0>         0.0000
     24 H7          1.9224    0.0404   -1.0217 H         1 <0>         0.0000
     25 H8          0.5971    2.0706    0.0631 H         1 <0>         0.0000
     26 H9         -1.0396    2.3970   -0.5361 H         1 <0>         0.0000
     27 H10        -0.4969   -1.0732    1.6963 H         1 <0>         0.0000
     28 H11         0.9271   -0.0436    1.4364 H         1 <0>         0.0000
     29 H12        -0.5645   -1.6927   -0.6681 H         1 <0>         0.0000
     30 H13        -1.8272    0.6901    2.5293 H         1 <0>         0.0000
     31 H14        -2.0614    2.1655    1.5767 H         1 <0>         0.0000
     32 H15        -0.4986    1.8695    2.3806 H         1 <0>         0.0000
     33 H16         3.8157   -7.1455   -1.2789 H         1 <0>         0.0000
     34 H17         2.0296   -2.0620    0.6908 H         1 <0>         0.0000
@<TRIPOS>BOND
     1    1    2 2
     2    1    4 1
     3    1   18 1
     4    2   15 1
     5    2   19 1
     6    3   13 ar
     7    3   14 ar
     8    3   20 1
     9    4    5 ar
    10    4    6 ar
    11    5   13 ar
    12    5   15 1
    13    6   14 ar
    14    6   17 1
    15    7    8 1
    16    7    9 1
    17    7   21 1
    18    7   22 1
    19    8   11 1
    20    8   23 1
    21    8   24 1
    22    9   16 1
    23    9   25 1
    24    9   26 1
    25   10   11 1
    26   10   16 1
    27   10   27 1
    28   10   28 1
    29   11   17 1
    30   11   29 1
    31   12   16 1
    32   12   30 1
    33   12   31 1
    34   12   32 1
    35   15   33 1
    36   17   34 1
