@<TRIPOS>MOLECULE
*****
   34    36     0     0     0
SMALL
NO_CHARGES

@<TRIPOS>ATOM
      1 C1         -0.8509   -3.9727   -0.3758 C.2       1 <0>         0.0000
      2 C2         -1.5446   -5.1551   -0.2819 C.2       1 <0>         0.0000
      3 C3          2.4700   -5.3420    1.6014 C.ar      1 <0>         0.0000
      4 C4          0.4277   -4.1836    0.2648 C.ar      1 <0>         0.0000
      5 C5          0.4346   -5.5247    0.7295 C.ar      1 <0>         0.0000
      6 C6          1.6180   -3.4605    0.5518 C.ar      1 <0>         0.0000
      7 C7          0.6042    0.9718   -1.5386 C.3       1 <0>         0.0000
      8 C8          1.6264   -0.0320   -0.9917 C.3       1 <0>         0.0000
      9 C9         -0.4390    1.3379   -0.4805 C.3       1 <0>         0.0000
     10 C10        -0.1181   -0.7598    0.6595 C.3       1 <0>         0.0000
     11 C11         0.9027   -1.2368   -0.3865 C.3       1 <0>         0.0000
     12 C12        -2.1619    0.4797    0.9818 C.3       1 <0>         0.0000
     13 N1          1.4231   -6.1445    1.3939 N.ar      1 <0>         0.0000
     14 N2          2.6196   -4.0614    1.2293 N.ar      1 <0>         0.0000
     15 N3         -0.7661   -6.0935    0.3840 N.pl3     1 <0>         0.0000
     16 N4         -1.0941    0.1393    0.0483 N.3       1 <0>         0.0000
     17 N5          1.8658   -2.1723    0.1710 N.pl3     1 <0>         0.0000
     18 H1         -1.2321   -3.0758   -0.8424 H         1 <0>         0.0000
     19 H2         -2.5347   -5.4075   -0.6361 H         1 <0>         0.0000
     20 H3          3.3100   -5.7757    2.1415 H         1 <0>         0.0000
     21 H4          1.1116    1.8798   -1.8823 H         1 <0>         0.0000
     22 H5          0.0918    0.5364   -2.4044 H         1 <0>         0.0000
     23 H6          2.3114   -0.3639   -1.7791 H         1 <0>         0.0000
     24 H7          2.2339    0.4491   -0.2114 H         1 <0>         0.0000
     25 H8          0.0468    1.9149    0.3332 H         1 <0>         0.0000
     26 H9         -1.2051    1.9853   -0.9205 H         1 <0>         0.0000
     27 H10        -0.6448   -1.6198    1.0818 H         1 <0>         0.0000
     28 H11         0.4310   -0.2728    1.4913 H         1 <0>         0.0000
     29 H12         0.3607   -1.7390   -1.1920 H         1 <0>         0.0000
     30 H13        -2.6590   -0.4338    1.3227 H         1 <0>         0.0000
     31 H14        -2.9068    1.1052    0.4793 H         1 <0>         0.0000
     32 H15        -1.7982    1.0265    1.8724 H         1 <0>         0.0000
     33 H16        -1.0202   -7.0471    0.6026 H         1 <0>         0.0000
     34 H17         2.7266   -1.8007    0.5571 H         1 <0>         0.0000
@<TRIPOS>BOND
     1    1    2 2
     2    1    4 1
     3    1   18 1
     4    2   15 1
     5    2   19 1
     6    3   13 ar
     7    3   14 ar
     8    3   20 1
     9    4    5 ar
    10    4    6 ar
    11    5   13 ar
    12    5   15 1
    13    6   14 ar
    14    6   17 1
    15    7    8 1
    16    7    9 1
    17    7   21 1
    18    7   22 1
    19    8   11 1
    20    8   23 1
    21    8   24 1
    22    9   16 1
    23    9   25 1
    24    9   26 1
    25   10   11 1
    26   10   16 1
    27   10   27 1
    28   10   28 1
    29   11   17 1
    30   11   29 1
    31   12   16 1
    32   12   30 1
    33   12   31 1
    34   12   32 1
    35   15   33 1
    36   17   34 1
