@<TRIPOS>MOLECULE
*****
   34    36     0     0     0
SMALL
NO_CHARGES

@<TRIPOS>ATOM
      1 C1          3.7587   -3.1045    0.2029 C.2       1 <0>         0.0000
      2 C2          4.7724   -3.4921    1.0491 C.2       1 <0>         0.0000
      3 C3          1.6265   -1.1471    3.0905 C.ar      1 <0>         0.0000
      4 C4          2.7857   -2.4074    1.0070 C.ar      1 <0>         0.0000
      5 C5          3.2978   -2.3986    2.3309 C.ar      1 <0>         0.0000
      6 C6          1.5514   -1.7131    0.8394 C.ar      1 <0>         0.0000
      7 C7         -0.3326   -0.8060   -0.4521 C.3       1 <0>         0.0000
      8 C8          0.8740   -2.7102   -1.3272 C.3       1 <0>         0.0000
      9 C9         -1.5735   -1.6765   -0.2567 C.3       1 <0>         0.0000
     10 C10        -0.3766   -3.5735   -1.1294 C.3       1 <0>         0.0000
     11 C11         5.3325   -3.2723    3.5130 C.3       1 <0>         0.0000
     12 C12        -2.7881   -3.5860   -1.1042 C.3       1 <0>         0.0000
     13 N1          2.7497   -1.7937    3.3990 N.ar      1 <0>         0.0000
     14 N2          1.0094   -1.0796    1.8991 N.ar      1 <0>         0.0000
     15 N3          4.4958   -3.0741    2.3412 N.pl3     1 <0>         0.0000
     16 N4          0.8955   -1.6032   -0.3689 N.pl3     1 <0>         0.0000
     17 N5         -1.5906   -2.7661   -1.2388 N.3       1 <0>         0.0000
     18 H1          3.7551   -3.2801   -0.8631 H         1 <0>         0.0000
     19 H2          5.6851   -4.0318    0.8329 H         1 <0>         0.0000
     20 H3          1.1370   -0.6135    3.9038 H         1 <0>         0.0000
     21 H4         -0.3625   -0.3553   -1.4510 H         1 <0>         0.0000
     22 H5         -0.2975   -0.0188    0.2978 H         1 <0>         0.0000
     23 H6          1.7581   -3.3301   -1.2125 H         1 <0>         0.0000
     24 H7          0.8728   -2.2929   -2.3408 H         1 <0>         0.0000
     25 H8         -1.5844   -2.0588    0.7806 H         1 <0>         0.0000
     26 H9         -2.4723   -1.0657   -0.3982 H         1 <0>         0.0000
     27 H10        -0.4007   -4.3526   -1.9003 H         1 <0>         0.0000
     28 H11        -0.3077   -4.0788   -0.1455 H         1 <0>         0.0000
     29 H12         6.3199   -2.8244    3.3625 H         1 <0>         0.0000
     30 H13         4.8450   -2.7869    4.3590 H         1 <0>         0.0000
     31 H14         5.4500   -4.3390    3.7291 H         1 <0>         0.0000
     32 H15        -3.6781   -2.9621   -1.2368 H         1 <0>         0.0000
     33 H16        -2.8620   -4.0853   -0.1193 H         1 <0>         0.0000
     34 H17        -2.7968   -4.3589   -1.8800 H         1 <0>         0.0000
@<TRIPOS>BOND
     1    1    2 2
     2    1    4 1
     3    1   18 1
     4    2   15 1
     5    2   19 1
     6    3   13 ar
     7    3   14 ar
     8    3   20 1
     9    4    5 ar
    10    4    6 ar
    11    5   13 ar
    12    5   15 1
    13    6   14 ar
    14    6   16 1
    15    7    9 1
    16    7   16 1
    17    7   21 1
    18    7   22 1
    19    8   10 1
    20    8   16 1
    21    8   23 1
    22    8   24 1
    23    9   17 1
    24    9   25 1
    25    9   26 1
    26   10   17 1
    27   10   27 1
    28   10   28 1
    29   11   15 1
    30   11   29 1
    31   11   30 1
    32   11   31 1
    33   12   17 1
    34   12   32 1
    35   12   33 1
    36   12   34 1
