@<TRIPOS>MOLECULE
*****
   30    31     0     0     0
SMALL
NO_CHARGES

@<TRIPOS>ATOM
      1 C1         -0.4700    1.1990   -0.1300 C.2       1 <0>         0.0000
      2 C2          0.7470    0.8160   -0.7670 C.2       1 <0>         0.0000
      3 C3         -1.0560    0.3740    0.7860 C.2       1 <0>         0.0000
      4 C4          1.3280   -0.3820   -0.4580 C.2       1 <0>         0.0000
      5 C5          0.7180   -1.2420    0.5190 C.2       1 <0>         0.0000
      6 C6          4.9700   -0.2800   -1.2630 C.3       1 <0>         0.0000
      7 C7          3.9280   -0.5880    0.9400 C.3       1 <0>         0.0000
      8 C8          6.0680    0.6020   -0.6180 C.3       1 <0>         0.0000
      9 C9          5.0270    0.2870    1.5870 C.3       1 <0>         0.0000
     10 C10         2.6110   -0.8420   -1.1190 C.3       1 <0>         0.0000
     11 N1         -0.4540   -0.8340    1.0930 N.am      1 <0>         0.0000
     12 N2          3.7310   -0.1080   -0.4630 N.3       1 <0>         0.0000
     13 N3          6.2800    0.1360    0.7860 N.4       1 <0>         0.0000
     14 O1          1.1670   -2.3190    0.9230 O.2       1 <0>         0.0000
     15 H1         -0.9140    2.1300   -0.3780 H         1 <0>         0.0000
     16 H2          1.1900    1.4660   -1.4780 H         1 <0>         0.0000
     17 H3         -1.9630    0.5840    1.2990 H         1 <0>         0.0000
     18 H4          5.2860   -1.3170   -1.2590 H         1 <0>         0.0000
     19 H5          4.8020    0.0890   -2.2670 H         1 <0>         0.0000
     20 H6          4.2290   -1.6290    0.9510 H         1 <0>         0.0000
     21 H7          3.0280   -0.4270    1.5180 H         1 <0>         0.0000
     22 H8          6.9870    0.5120   -1.2020 H         1 <0>         0.0000
     23 H9          5.7350    1.6430   -0.6330 H         1 <0>         0.0000
     24 H10         5.1790   -0.0390    2.6190 H         1 <0>         0.0000
     25 H11         4.6900    1.3270    1.5860 H         1 <0>         0.0000
     26 H12         2.5540   -0.5640   -2.1640 H         1 <0>         0.0000
     27 H13         2.7280   -1.9120   -0.9960 H         1 <0>         0.0000
     28 H14        -0.8690   -1.4860    1.7740 H         1 <0>         0.0000
     29 H15         6.5550   -0.8360    0.7810 H         1 <0>         0.0000
     30 H16         7.0150    0.6850    1.2140 H         1 <0>         0.0000
@<TRIPOS>BOND
     1    1    2 1
     2    1    3 2
     3    1   15 1
     4    2    4 2
     5    2   16 1
     6    3   11 1
     7    3   17 1
     8    4    5 1
     9    4   10 1
    10    5   11 am
    11    5   14 2
    12    6    8 1
    13    6   12 1
    14    6   18 1
    15    6   19 1
    16    7    9 1
    17    7   12 1
    18    7   20 1
    19    7   21 1
    20    8   13 1
    21    8   22 1
    22    8   23 1
    23    9   13 1
    24    9   24 1
    25    9   25 1
    26   10   12 1
    27   10   26 1
    28   10   27 1
    29   11   28 1
    30   13   29 1
    31   13   30 1
