@<TRIPOS>MOLECULE
*****
   35    37     0     0     0
SMALL
NO_CHARGES

@<TRIPOS>ATOM
      1 C1          0.2629   -0.4204   -0.9936 C.ar      1 <0>         0.0000
      2 C2         -0.2320   -1.6115   -0.4741 C.ar      1 <0>         0.0000
      3 C3         -4.4126   -2.9778   -4.2895 C.ar      1 <0>         0.0000
      4 C4         -4.5770   -2.5141   -6.6548 C.ar      1 <0>         0.0000
      5 C5          0.5289   -0.2896   -2.3589 C.ar      1 <0>         0.0000
      6 C6         -3.3214   -3.8129   -4.5291 C.ar      1 <0>         0.0000
      7 C7         -3.4858   -3.3491   -6.8944 C.ar      1 <0>         0.0000
      8 C8         -5.0404   -2.3284   -5.3524 C.ar      1 <0>         0.0000
      9 C9         -0.4739   -2.7051   -1.3106 C.ar      1 <0>         0.0000
     10 C10        -0.2138   -2.5997   -2.6941 C.ar      1 <0>         0.0000
     11 C11         0.2834   -1.3921   -3.1933 C.ar      1 <0>         0.0000
     12 C12        -2.8580   -3.9986   -5.8316 C.ar      1 <0>         0.0000
     13 C13        -0.0585   -3.1484   -4.8253 C.2       1 <0>         0.0000
     14 C14        -6.2067   -1.4350   -5.0958 C.3       1 <0>         0.0000
     15 C15        -1.0064   -3.9621   -0.6982 C.3       1 <0>         0.0000
     16 N1         -0.4045   -3.5957   -3.6408 N.2       1 <0>         0.0000
     17 N2         -0.1543   -3.9823   -6.0172 N.pl3     1 <0>         0.0000
     18 O1         -1.5769   -5.4991   -7.5148 O.2       1 <0>         0.0000
     19 O2         -1.4268   -6.0415   -5.0689 O.2       1 <0>         0.0000
     20 S1          0.5088   -1.5363   -4.8966 S.3       1 <0>         0.0000
     21 S2         -1.4747   -5.0600   -6.1356 S.o2      1 <0>         0.0000
     22 H1          0.4477    0.4206   -0.3306 H         1 <0>         0.0000
     23 H2         -0.4286   -1.6841    0.5928 H         1 <0>         0.0000
     24 H3         -4.7666   -2.8388   -3.2713 H         1 <0>         0.0000
     25 H4         -5.0596   -2.0120   -7.4891 H         1 <0>         0.0000
     26 H5          0.9157    0.6433   -2.7572 H         1 <0>         0.0000
     27 H6         -2.8395   -4.3137   -3.6936 H         1 <0>         0.0000
     28 H7         -3.1324   -3.4865   -7.9130 H         1 <0>         0.0000
     29 H8         -7.1424   -2.0054   -5.1427 H         1 <0>         0.0000
     30 H9         -6.1367   -0.9622   -4.1075 H         1 <0>         0.0000
     31 H10        -6.2566   -0.6232   -5.8333 H         1 <0>         0.0000
     32 H11        -2.1015   -3.9476   -0.6991 H         1 <0>         0.0000
     33 H12        -0.6657   -4.8446   -1.2517 H         1 <0>         0.0000
     34 H13        -0.6568   -4.0756    0.3345 H         1 <0>         0.0000
     35 H14         0.1461   -3.5132   -6.8722 H         1 <0>         0.0000
@<TRIPOS>BOND
     1    1    2 ar
     2    1    5 ar
     3    1   22 1
     4    2    9 ar
     5    2   23 1
     6    3    6 ar
     7    3    8 ar
     8    3   24 1
     9    4    7 ar
    10    4    8 ar
    11    4   25 1
    12    5   11 ar
    13    5   26 1
    14    6   12 ar
    15    6   27 1
    16    7   12 ar
    17    7   28 1
    18    8   14 1
    19    9   10 ar
    20    9   15 1
    21   10   11 ar
    22   10   16 1
    23   11   20 1
    24   12   21 1
    25   13   16 2
    26   13   17 1
    27   13   20 1
    28   14   29 1
    29   14   30 1
    30   14   31 1
    31   15   32 1
    32   15   33 1
    33   15   34 1
    34   17   21 1
    35   17   35 1
    36   18   21 2
    37   19   21 2
