@<TRIPOS>MOLECULE
*****
   18    17     0     0     0
SMALL
NO_CHARGES

@<TRIPOS>ATOM
      1 C1          0.6102    0.0935    2.5116 C.3       1 <0>         0.0000
      2 C2          0.4395    1.6804   -4.1990 C.3       1 <0>         0.0000
      3 C3          1.0728   -0.1411    0.1682 C.3       1 <0>         0.0000
      4 C4          1.9002    0.3061   -1.0292 C.3       1 <0>         0.0000
      5 N1          1.4252    0.5437    1.3826 N.3       1 <0>         0.0000
      6 S1         -0.2368    0.3815   -3.1370 S.3       1 <0>         0.0000
      7 S2          1.4660   -0.6031   -2.5432 S.3       1 <0>         0.0000
      8 H1          0.7396   -0.9902    2.6489 H         1 <0>         0.0000
      9 H2          0.9267    0.6190    3.4247 H         1 <0>         0.0000
     10 H3         -0.4486    0.3136    2.3102 H         1 <0>         0.0000
     11 H4         -0.3715    2.2966   -4.5950 H         1 <0>         0.0000
     12 H5          0.9854    1.2314   -5.0325 H         1 <0>         0.0000
     13 H6          1.1209    2.3123   -3.6244 H         1 <0>         0.0000
     14 H7          1.2444   -1.2072    0.3506 H         1 <0>         0.0000
     15 H8          0.0000    0.0000    0.0000 H         1 <0>         0.0000
     16 H9          1.7673    1.3764   -1.2174 H         1 <0>         0.0000
     17 H10         2.9610    0.1266   -0.8280 H         1 <0>         0.0000
     18 H11         1.2913    1.5547    1.2706 H         1 <0>         0.0000
@<TRIPOS>BOND
     1    1    5 1
     2    1    8 1
     3    1    9 1
     4    1   10 1
     5    2    6 1
     6    2   11 1
     7    2   12 1
     8    2   13 1
     9    3    4 1
    10    3    5 1
    11    3   14 1
    12    3   15 1
    13    4    7 1
    14    4   16 1
    15    4   17 1
    16    5   18 1
    17    6    7 1
