@<TRIPOS>MOLECULE
*****
   17    17     0     0     0
SMALL
NO_CHARGES

@<TRIPOS>ATOM
      1 C1          1.9416   -0.9307    0.0031 C.ar      1 <0>         0.0000
      2 C2          0.7672   -0.4945   -0.5846 C.ar      1 <0>         0.0000
      3 C3          2.8745   -1.5530   -0.8019 C.ar      1 <0>         0.0000
      4 C4          0.6036   -0.7091   -1.9384 C.ar      1 <0>         0.0000
      5 C5         -0.9623   -0.3790   -3.8784 C.2       1 <0>         0.0000
      6 C6         -2.3264    0.2168   -4.1205 C.3       1 <0>         0.0000
      7 N1          2.6878   -1.7498   -2.1242 N.ar      1 <0>         0.0000
      8 N2          1.5337   -1.3207   -2.7018 N.ar      1 <0>         0.0000
      9 N3         -0.5823   -0.2705   -2.5361 N.am      1 <0>         0.0000
     10 O1         -0.3250   -0.8832   -4.7974 O.2       1 <0>         0.0000
     11 H1          2.1238   -0.7872    1.0620 H         1 <0>         0.0000
     12 H2          0.0076   -0.0006    0.0128 H         1 <0>         0.0000
     13 H3          3.8134   -1.9174   -0.4019 H         1 <0>         0.0000
     14 H4         -2.2278    1.2756   -4.3764 H         1 <0>         0.0000
     15 H5         -2.9357    0.1260   -3.2168 H         1 <0>         0.0000
     16 H6         -2.8253   -0.3126   -4.9376 H         1 <0>         0.0000
     17 H7         -1.2590    0.1868   -1.9166 H         1 <0>         0.0000
@<TRIPOS>BOND
     1    1    2 ar
     2    1    3 ar
     3    1   11 1
     4    2    4 ar
     5    2   12 1
     6    3    7 ar
     7    3   13 1
     8    4    8 ar
     9    4    9 1
    10    5    6 1
    11    5    9 am
    12    5   10 2
    13    6   14 1
    14    6   15 1
    15    6   16 1
    16    7    8 ar
    17    9   17 1
