@<TRIPOS>MOLECULE
*****
   29    30     0     0     0
SMALL
NO_CHARGES

@<TRIPOS>ATOM
      1 C1          1.8851   -1.0365   -0.1124 C.ar      1 <0>         0.0000
      2 C2         -0.3866   -4.6226    6.9296 C.ar      1 <0>         0.0000
      3 C3          2.8149   -1.7916    0.6025 C.ar      1 <0>         0.0000
      4 C4          0.9126   -0.3026    0.5667 C.ar      1 <0>         0.0000
      5 C5          0.8384   -4.2205    7.4618 C.ar      1 <0>         0.0000
      6 C6         -0.7309   -4.2672    5.6255 C.ar      1 <0>         0.0000
      7 C7          2.7722   -1.8126    1.9965 C.ar      1 <0>         0.0000
      8 C8          0.8699   -0.3236    1.9607 C.ar      1 <0>         0.0000
      9 C9          1.7193   -3.4630    6.6898 C.ar      1 <0>         0.0000
     10 C10         0.1499   -3.5097    4.8535 C.ar      1 <0>         0.0000
     11 C11         1.7997   -1.0786    2.6757 C.ar      1 <0>         0.0000
     12 C12         1.3750   -3.1076    5.3857 C.ar      1 <0>         0.0000
     13 C13         2.6034   -0.0021    4.8074 C.3       1 <0>         0.0000
     14 C14         1.7548   -1.1014    4.1663 C.3       1 <0>         0.0000
     15 O1          2.2385   -2.3673    4.6297 O.3       1 <0>         0.0000
     16 H1          1.9174   -1.0211   -1.1980 H         1 <0>         0.0000
     17 H2         -1.0725   -5.2119    7.5312 H         1 <0>         0.0000
     18 H3          3.5714   -2.3640    0.0741 H         1 <0>         0.0000
     19 H4          0.1879    0.2845    0.0101 H         1 <0>         0.0000
     20 H5          1.1057   -4.4975    8.4775 H         1 <0>         0.0000
     21 H6         -1.6847   -4.5804    5.2109 H         1 <0>         0.0000
     22 H7          3.5007   -2.4037    2.5452 H         1 <0>         0.0000
     23 H8          0.1088    0.2515    2.4814 H         1 <0>         0.0000
     24 H9          2.6730   -3.1541    7.1090 H         1 <0>         0.0000
     25 H10        -0.1236   -3.2374    3.8378 H         1 <0>         0.0000
     26 H11         3.6408   -0.0528    4.4618 H         1 <0>         0.0000
     27 H12         2.5987   -0.0810    5.9004 H         1 <0>         0.0000
     28 H13         2.2036    0.9892    4.5672 H         1 <0>         0.0000
     29 H14         0.7249   -1.0016    4.5494 H         1 <0>         0.0000
@<TRIPOS>BOND
     1    1    4 ar
     2    1    3 ar
     3    1   16 1
     4    2    6 ar
     5    2    5 ar
     6    2   17 1
     7    3    7 ar
     8    3   18 1
     9    4    8 ar
    10    4   19 1
    11    5    9 ar
    12    5   20 1
    13    6   10 ar
    14    6   21 1
    15    7   11 ar
    16    7   22 1
    17    8   11 ar
    18    8   23 1
    19    9   12 ar
    20    9   24 1
    21   10   12 ar
    22   10   25 1
    23   11   14 1
    24   12   15 1
    25   13   14 1
    26   13   26 1
    27   13   27 1
    28   13   28 1
    29   14   15 1
    30   14   29 1
