@<TRIPOS>MOLECULE
*****
   15    14     0     0     0
SMALL
NO_CHARGES

@<TRIPOS>ATOM
      1 C1          2.4940   -1.2780   -0.2520 C.2       1 <0>         0.0000
      2 C2          3.6900   -0.3480   -0.1060 C.3       1 <0>         0.0000
      3 C3          0.8880    0.6320    0.0430 C.3       1 <0>         0.0000
      4 C4          0.1090   -1.7230   -0.3290 C.3       1 <0>         0.0000
      5 N1          1.2380   -0.7870   -0.1760 N.am      1 <0>         0.0000
      6 O1          2.7090   -2.4700   -0.4380 O.2       1 <0>         0.0000
      7 H1          3.6620    0.1280    0.8720 H         1 <0>         0.0000
      8 H2          3.6640    0.4020   -0.8950 H         1 <0>         0.0000
      9 H3          4.6060   -0.9310   -0.1960 H         1 <0>         0.0000
     10 H4          1.7750    1.2370    0.1520 H         1 <0>         0.0000
     11 H5          0.2910    0.6800    0.9440 H         1 <0>         0.0000
     12 H6          0.3170    0.9580   -0.8170 H         1 <0>         0.0000
     13 H7         -0.8190   -1.1760   -0.2360 H         1 <0>         0.0000
     14 H8          0.1980   -2.4700    0.4500 H         1 <0>         0.0000
     15 H9          0.1950   -2.1780   -1.3070 H         1 <0>         0.0000
@<TRIPOS>BOND
     1    1    2 1
     2    1    5 am
     3    1    6 2
     4    2    7 1
     5    2    8 1
     6    2    9 1
     7    3    5 1
     8    3   10 1
     9    3   11 1
    10    3   12 1
    11    4    5 1
    12    4   13 1
    13    4   14 1
    14    4   15 1
