@<TRIPOS>MOLECULE
*****
   35    36     0     0     0
SMALL
NO_CHARGES

@<TRIPOS>ATOM
      1 C1          3.5112   -0.8935    8.3121 C.1       1 <0>         0.0000
      2 C2          5.7356   -0.2345    5.5603 C.ar      1 <0>         0.0000
      3 C3          5.6984    0.2139    4.2344 C.ar      1 <0>         0.0000
      4 C4          3.4593   -1.0389    5.3279 C.ar      1 <0>         0.0000
      5 C5          4.6167   -0.8653    6.1026 C.ar      1 <0>         0.0000
      6 C6          4.5543    0.0525    3.4576 C.ar      1 <0>         0.0000
      7 C7          3.4086   -0.5746    4.0121 C.ar      1 <0>         0.0000
      8 C8          0.0049    1.1401    3.5859 C.3       1 <0>         0.0000
      9 C9         -0.3018    0.3538    2.2769 C.3       1 <0>         0.0000
     10 C10         0.4654    0.0836    4.6151 C.3       1 <0>         0.0000
     11 C11         0.0753   -1.1187    2.5729 C.3       1 <0>         0.0000
     12 C12         1.0407   -1.0476    3.7553 C.3       1 <0>         0.0000
     13 C13         4.4182   -0.3723    1.1177 C.3       1 <0>         0.0000
     14 C14         4.6525   -1.4044    7.5199 C.3       1 <0>         0.0000
     15 N1          2.6193   -0.4554    8.9144 N.1       1 <0>         0.0000
     16 O1          4.5836   -2.8350    7.5736 O.3       1 <0>         0.0000
     17 O2          2.3244   -0.6744    3.1951 O.3       1 <0>         0.0000
     18 O3          4.5427    0.5775    2.1888 O.3       1 <0>         0.0000
     19 H1          6.6300   -0.0863    6.1602 H         1 <0>         0.0000
     20 H2          6.5521    0.7125    3.7849 H         1 <0>         0.0000
     21 H3          2.5959   -1.5139    5.7785 H         1 <0>         0.0000
     22 H4          0.8063    1.8629    3.4120 H         1 <0>         0.0000
     23 H5         -0.8611    1.7004    3.9488 H         1 <0>         0.0000
     24 H6         -1.3511    0.4407    1.9810 H         1 <0>         0.0000
     25 H7          0.2981    0.7425    1.4501 H         1 <0>         0.0000
     26 H8          1.1768    0.4753    5.3454 H         1 <0>         0.0000
     27 H9         -0.3870   -0.3175    5.1757 H         1 <0>         0.0000
     28 H10        -0.8044   -1.6913    2.8863 H         1 <0>         0.0000
     29 H11         0.5214   -1.6363    1.7194 H         1 <0>         0.0000
     30 H12         1.1393   -2.0049    4.2782 H         1 <0>         0.0000
     31 H13         4.4862    0.2076    0.1955 H         1 <0>         0.0000
     32 H14         3.4592   -0.8943    1.1589 H         1 <0>         0.0000
     33 H15         5.2407   -1.0975    1.1544 H         1 <0>         0.0000
     34 H16         5.5680   -1.0494    8.0129 H         1 <0>         0.0000
     35 H17         5.1388   -3.1664    6.8484 H         1 <0>         0.0000
@<TRIPOS>BOND
     1    1   14 1
     2    1   15 3
     3    2    3 ar
     4    2    5 ar
     5    2   19 1
     6    3    6 ar
     7    3   20 1
     8    4    5 ar
     9    4    7 ar
    10    4   21 1
    11    5   14 1
    12    6    7 ar
    13    6   18 1
    14    7   17 1
    15    8    9 1
    16    8   10 1
    17    8   22 1
    18    8   23 1
    19    9   11 1
    20    9   24 1
    21    9   25 1
    22   10   12 1
    23   10   26 1
    24   10   27 1
    25   11   12 1
    26   11   28 1
    27   11   29 1
    28   12   17 1
    29   12   30 1
    30   13   18 1
    31   13   31 1
    32   13   32 1
    33   13   33 1
    34   14   16 1
    35   14   34 1
    36   16   35 1
