@<TRIPOS>MOLECULE
*****
   34    35     0     0     0
SMALL
NO_CHARGES

@<TRIPOS>ATOM
      1 C1          1.0304   -2.5974   -0.3712 C.ar      1 <0>         0.0000
      2 C2          0.2789   -1.4230   -0.4770 C.ar      1 <0>         0.0000
      3 C3          0.4149   -3.7757    0.0631 C.ar      1 <0>         0.0000
      4 C4         -1.0792   -1.4268   -0.1478 C.ar      1 <0>         0.0000
      5 C5         -0.9434   -3.7815    0.3900 C.ar      1 <0>         0.0000
      6 C6         -1.6980   -2.6041    0.2891 C.ar      1 <0>         0.0000
      7 C7         -3.9737   -3.2380   -0.5494 C.2       1 <0>         0.0000
      8 C8         -3.4157   -3.2276    1.9725 C.2       1 <0>         0.0000
      9 C9         -2.6979   -2.0249    6.6197 C.3       1 <0>         0.0000
     10 C10        -1.9199   -1.2280    5.5931 C.3       1 <0>         0.0000
     11 C11        -3.3185   -1.7091    5.2730 C.3       1 <0>         0.0000
     12 C12        -4.4467   -0.6959    5.2055 C.3       1 <0>         0.0000
     13 C13        -3.4410   -2.8669    4.3222 C.3       1 <0>         0.0000
     14 C14        -3.1929   -2.5882    0.6146 C.3       1 <0>         0.0000
     15 O1         -4.2939   -2.5791   -1.5126 O.2       1 <0>         0.0000
     16 O2         -3.6101   -4.4287    2.1462 O.2       1 <0>         0.0000
     17 O3         -4.2261   -4.5557   -0.4627 O.3       1 <0>         0.0000
     18 O4         -3.3326   -2.3405    2.9595 O.3       1 <0>         0.0000
     19 H1          2.0865   -2.5952   -0.6274 H         1 <0>         0.0000
     20 H2          0.7479   -0.5039   -0.8179 H         1 <0>         0.0000
     21 H3          0.9910   -4.6937    0.1440 H         1 <0>         0.0000
     22 H4         -1.6630   -0.5149   -0.2399 H         1 <0>         0.0000
     23 H5         -1.4094   -4.7040    0.7248 H         1 <0>         0.0000
     24 H6         -2.3820   -3.0446    6.8232 H         1 <0>         0.0000
     25 H7         -3.0949   -1.5006    7.4840 H         1 <0>         0.0000
     26 H8         -1.7832   -0.1647    5.7668 H         1 <0>         0.0000
     27 H9         -1.0842   -1.7114    5.0952 H         1 <0>         0.0000
     28 H10        -5.4123   -1.1678    5.4229 H         1 <0>         0.0000
     29 H11        -4.5051   -0.2415    4.2112 H         1 <0>         0.0000
     30 H12        -4.2955    0.1069    5.9335 H         1 <0>         0.0000
     31 H13        -4.4062   -3.3737    4.4112 H         1 <0>         0.0000
     32 H14        -2.6476   -3.6052    4.4620 H         1 <0>         0.0000
     33 H15        -3.5239   -1.5514    0.6610 H         1 <0>         0.0000
     34 H16        -3.9888   -4.8694    0.4430 H         1 <0>         0.0000
@<TRIPOS>BOND
     1    1    3 ar
     2    1    2 ar
     3    1   19 1
     4    2    4 ar
     5    2   20 1
     6    3    5 ar
     7    3   21 1
     8    4    6 ar
     9    4   22 1
    10    5    6 ar
    11    5   23 1
    12    6   14 1
    13    7   14 1
    14    7   15 2
    15    7   17 1
    16    8   14 1
    17    8   16 2
    18    8   18 1
    19    9   10 1
    20    9   11 1
    21    9   24 1
    22    9   25 1
    23   10   11 1
    24   10   26 1
    25   10   27 1
    26   11   12 1
    27   11   13 1
    28   12   28 1
    29   12   29 1
    30   12   30 1
    31   13   18 1
    32   13   31 1
    33   13   32 1
    34   14   33 1
    35   17   34 1
