@<TRIPOS>MOLECULE
*****
   54    56     0     0     0
SMALL
NO_CHARGES

@<TRIPOS>ATOM
      1 C1          6.2401   -0.4835   -1.5470 C.ar      1 <0>         0.0000
      2 C2          5.2573    0.1117   -2.3299 C.ar      1 <0>         0.0000
      3 C3          6.9168    0.2601   -0.5713 C.ar      1 <0>         0.0000
      4 C4          5.5335    2.2199   -1.1040 C.ar      1 <0>         0.0000
      5 C5          4.9192    1.4470   -2.1059 C.ar      1 <0>         0.0000
      6 C6          6.5535    1.6013   -0.3553 C.ar      1 <0>         0.0000
      7 C7          8.6335   -2.8051   -0.1882 C.2       1 <0>         0.0000
      8 C8          8.1197   -1.9090    2.1620 C.2       1 <0>         0.0000
      9 C9          8.0525   -0.4044    0.1518 C.2       1 <0>         0.0000
     10 C10        10.0919   -2.9172    0.1887 C.3       1 <0>         0.0000
     11 C11         9.5841   -2.0106    2.5193 C.3       1 <0>         0.0000
     12 C12        10.2717   -3.1211    1.7040 C.3       1 <0>         0.0000
     13 C13         1.8363    6.5141    2.1991 C.3       1 <0>         0.0000
     14 C14         2.9981    5.9236    3.0106 C.3       1 <0>         0.0000
     15 C15         2.2343    6.7158    0.7305 C.3       1 <0>         0.0000
     16 C16         3.5203    4.6250    2.3792 C.3       1 <0>         0.0000
     17 C17         2.7547    5.4130    0.1033 C.3       1 <0>         0.0000
     18 C18         7.7873   -1.8346    0.6572 C.3       1 <0>         0.0000
     19 C19         3.9172    4.8368    0.9201 C.3       1 <0>         0.0000
     20 C20         4.5634    3.1280   -4.3621 C.3       1 <0>         0.0000
     21 C21         5.1131    3.6351   -0.7677 C.3       1 <0>         0.0000
     22 O1          8.1148   -3.4198   -1.1039 O.2       1 <0>         0.0000
     23 O2          7.2142   -1.9120    2.9736 O.2       1 <0>         0.0000
     24 O3          9.1371    0.1335    0.2963 O.2       1 <0>         0.0000
     25 O4          3.1056    0.9546   -3.9810 O.2       1 <0>         0.0000
     26 O5          2.6983    2.9647   -2.4655 O.2       1 <0>         0.0000
     27 O6          4.3478    3.5612    0.4218 O.3       1 <0>         0.0000
     28 S1          3.6188    2.0982   -3.2126 S.o2      1 <0>         0.0000
     29 Cl1         7.3370    2.5092    0.9175 Cl        1 <0>         0.0000
     30 H1          6.5015   -1.5253   -1.7111 H         1 <0>         0.0000
     31 H2          4.7385   -0.4505   -3.0985 H         1 <0>         0.0000
     32 H3         10.5356   -3.7294   -0.3911 H         1 <0>         0.0000
     33 H4         10.5750   -1.9762   -0.1034 H         1 <0>         0.0000
     34 H5         10.0508   -1.0475    2.2814 H         1 <0>         0.0000
     35 H6          9.6643   -2.1852    3.5943 H         1 <0>         0.0000
     36 H7         11.3395   -3.1350    1.9404 H         1 <0>         0.0000
     37 H8          9.8686   -4.0979    1.9955 H         1 <0>         0.0000
     38 H9          1.5109    7.4645    2.6384 H         1 <0>         0.0000
     39 H10         0.9771    5.8316    2.2492 H         1 <0>         0.0000
     40 H11         3.8136    6.6586    3.0618 H         1 <0>         0.0000
     41 H12         2.6858    5.7336    4.0437 H         1 <0>         0.0000
     42 H13         1.3824    7.0900    0.1515 H         1 <0>         0.0000
     43 H14         3.0145    7.4880    0.6712 H         1 <0>         0.0000
     44 H15         4.3816    4.2359    2.9323 H         1 <0>         0.0000
     45 H16         2.7416    3.8527    2.4116 H         1 <0>         0.0000
     46 H17         1.9586    4.6604    0.0684 H         1 <0>         0.0000
     47 H18         3.0587    5.5914   -0.9334 H         1 <0>         0.0000
     48 H19         6.7355   -2.0892    0.5371 H         1 <0>         0.0000
     49 H20         4.7706    5.5360    0.8813 H         1 <0>         0.0000
     50 H21         3.8359    3.5262   -5.0727 H         1 <0>         0.0000
     51 H22         5.0479    3.9385   -3.8167 H         1 <0>         0.0000
     52 H23         5.2946    2.4993   -4.8716 H         1 <0>         0.0000
     53 H24         6.0068    4.2568   -0.6127 H         1 <0>         0.0000
     54 H25         4.5294    4.0733   -1.5783 H         1 <0>         0.0000
@<TRIPOS>BOND
     1    1    2 ar
     2    1    3 ar
     3    1   30 1
     4    2    5 ar
     5    2   31 1
     6    3    6 ar
     7    3    9 1
     8    4    5 ar
     9    4    6 ar
    10    4   21 1
    11    5   28 1
    12    6   29 1
    13    7   10 1
    14    7   18 1
    15    7   22 2
    16    8   11 1
    17    8   18 1
    18    8   23 2
    19    9   18 1
    20    9   24 2
    21   10   12 1
    22   10   32 1
    23   10   33 1
    24   11   12 1
    25   11   34 1
    26   11   35 1
    27   12   36 1
    28   12   37 1
    29   13   15 1
    30   13   14 1
    31   13   38 1
    32   13   39 1
    33   14   16 1
    34   14   40 1
    35   14   41 1
    36   15   17 1
    37   15   42 1
    38   15   43 1
    39   16   19 1
    40   16   44 1
    41   16   45 1
    42   17   19 1
    43   17   46 1
    44   17   47 1
    45   18   48 1
    46   19   27 1
    47   19   49 1
    48   20   28 1
    49   20   50 1
    50   20   51 1
    51   20   52 1
    52   21   27 1
    53   21   53 1
    54   21   54 1
    55   25   28 2
    56   26   28 2
