@<TRIPOS>MOLECULE
*****
   34    35     0     0     0
SMALL
NO_CHARGES

@<TRIPOS>ATOM
      1 C1         -3.8622   -5.6783   -2.4232 C.ar      1 <0>         0.0000
      2 C2         -5.0557   -5.1531   -1.9172 C.ar      1 <0>         0.0000
      3 C3         -2.6478   -5.0556   -2.1181 C.ar      1 <0>         0.0000
      4 C4         -5.0404   -4.0106   -1.1118 C.ar      1 <0>         0.0000
      5 C5         -2.6305   -3.9130   -1.3138 C.ar      1 <0>         0.0000
      6 C6         -3.8230   -3.3779   -0.8031 C.ar      1 <0>         0.0000
      7 C7         -4.2936   -0.8300   -0.6695 C.2       1 <0>         0.0000
      8 C8         -4.5368   -2.2426    1.3490 C.2       1 <0>         0.0000
      9 C9         -3.4980   -2.3088    6.1102 C.3       1 <0>         0.0000
     10 C10        -2.3712   -2.7587    5.2020 C.3       1 <0>         0.0000
     11 C11        -3.3373   -1.6912    4.7358 C.3       1 <0>         0.0000
     12 C12        -2.8524   -0.2566    4.6304 C.3       1 <0>         0.0000
     13 C13        -4.3628   -2.0932    3.7110 C.3       1 <0>         0.0000
     14 C14        -3.7721   -2.1109    0.0299 C.3       1 <0>         0.0000
     15 O1         -4.3073    0.2371   -0.1022 O.2       1 <0>         0.0000
     16 O2         -5.7244   -2.4925    1.4271 O.2       1 <0>         0.0000
     17 O3         -4.6940   -0.9497   -1.9541 O.3       1 <0>         0.0000
     18 O4         -3.7257   -2.0502    2.3978 O.3       1 <0>         0.0000
     19 H1         -3.8780   -6.5664   -3.0494 H         1 <0>         0.0000
     20 H2         -6.0028   -5.6341   -2.1468 H         1 <0>         0.0000
     21 H3         -1.7153   -5.4576   -2.5050 H         1 <0>         0.0000
     22 H4         -5.9658   -3.6168   -0.7035 H         1 <0>         0.0000
     23 H5         -1.6835   -3.4314   -1.0811 H         1 <0>         0.0000
     24 H6         -4.3226   -2.9958    6.2809 H         1 <0>         0.0000
     25 H7         -3.2503   -1.6881    6.9665 H         1 <0>         0.0000
     26 H8         -1.3601   -2.4486    5.4494 H         1 <0>         0.0000
     27 H9         -2.4405   -3.7458    4.7534 H         1 <0>         0.0000
     28 H10        -3.6844    0.4474    4.7495 H         1 <0>         0.0000
     29 H11        -2.3906   -0.0713    3.6556 H         1 <0>         0.0000
     30 H12        -2.1118   -0.0356    5.4053 H         1 <0>         0.0000
     31 H13        -5.2161   -1.4094    3.6953 H         1 <0>         0.0000
     32 H14        -4.7367   -3.1075    3.8753 H         1 <0>         0.0000
     33 H15        -2.7324   -1.8848    0.2756 H         1 <0>         0.0000
     34 H16        -4.6379   -1.8857   -2.2275 H         1 <0>         0.0000
@<TRIPOS>BOND
     1    1    3 ar
     2    1    2 ar
     3    1   19 1
     4    2    4 ar
     5    2   20 1
     6    3    5 ar
     7    3   21 1
     8    4    6 ar
     9    4   22 1
    10    5    6 ar
    11    5   23 1
    12    6   14 1
    13    7   14 1
    14    7   15 2
    15    7   17 1
    16    8   14 1
    17    8   16 2
    18    8   18 1
    19    9   10 1
    20    9   11 1
    21    9   24 1
    22    9   25 1
    23   10   11 1
    24   10   26 1
    25   10   27 1
    26   11   12 1
    27   11   13 1
    28   12   28 1
    29   12   29 1
    30   12   30 1
    31   13   18 1
    32   13   31 1
    33   13   32 1
    34   14   33 1
    35   17   34 1
