@<TRIPOS>MOLECULE
*****
   22    23     0     0     0
SMALL
NO_CHARGES

@<TRIPOS>ATOM
      1 C1          1.8339   -0.4536   -0.0044 C.ar      1 <0>         0.0000
      2 C2          3.0421   -1.9081    1.5407 C.ar      1 <0>         0.0000
      3 C3          0.9335   -0.1320    1.0133 C.ar      1 <0>         0.0000
      4 C4          2.1349   -1.5782    2.5497 C.ar      1 <0>         0.0000
      5 C5          2.0965    3.0085    4.9727 C.2       1 <0>         0.0000
      6 C6          2.8721   -1.3359    0.2828 C.ar      1 <0>         0.0000
      7 C7          1.0842   -0.6863    2.2923 C.ar      1 <0>         0.0000
      8 C8          0.9519    2.8360    5.7028 C.2       1 <0>         0.0000
      9 C9          0.7015    1.1321    4.2997 C.2       1 <0>         0.0000
     10 C10         0.4952    3.6839    6.8531 C.3       1 <0>         0.0000
     11 N1          0.1694    1.7623    5.3054 N.2       1 <0>         0.0000
     12 F1          3.7487   -1.6523   -0.7006 F         1 <0>         0.0000
     13 S1          2.2316    1.7958    3.7300 S.3       1 <0>         0.0000
     14 S2         -0.0876   -0.2846    3.5869 S.3       1 <0>         0.0000
     15 H1          1.7400   -0.0347   -1.0014 H         1 <0>         0.0000
     16 H2          3.8654   -2.5933    1.7167 H         1 <0>         0.0000
     17 H3          0.1169    0.5564    0.8194 H         1 <0>         0.0000
     18 H4          2.2454   -2.0059    3.5413 H         1 <0>         0.0000
     19 H5          2.8589    3.7676    5.0902 H         1 <0>         0.0000
     20 H6         -0.4820    4.1278    6.6366 H         1 <0>         0.0000
     21 H7          0.3852    3.0752    7.7566 H         1 <0>         0.0000
     22 H8          1.2069    4.4876    7.0573 H         1 <0>         0.0000
@<TRIPOS>BOND
     1    1    3 ar
     2    1    6 ar
     3    1   15 1
     4    2    4 ar
     5    2    6 ar
     6    2   16 1
     7    3    7 ar
     8    3   17 1
     9    4    7 ar
    10    4   18 1
    11    5    8 2
    12    5   13 1
    13    5   19 1
    14    6   12 1
    15    7   14 1
    16    8   10 1
    17    8   11 1
    18    9   11 2
    19    9   13 1
    20    9   14 1
    21   10   20 1
    22   10   21 1
    23   10   22 1
