@<TRIPOS>MOLECULE
*****
   29    30     0     0     0
SMALL
NO_CHARGES

@<TRIPOS>ATOM
      1 C1          4.3004    3.4798   -0.8463 C.ar      1 <0>         0.0000
      2 C2          3.8680    4.4590    1.6151 C.ar      1 <0>         0.0000
      3 C3          3.2058    3.0717   -0.0779 C.ar      1 <0>         0.0000
      4 C4          4.9612    4.8558    0.8248 C.ar      1 <0>         0.0000
      5 C5          2.2363    2.0580   -0.6309 C.2       1 <0>         0.0000
      6 C6         -0.0315   -0.4143    0.8140 C.3       1 <0>         0.0000
      7 C7         -1.2867    1.1914    0.2439 C.3       1 <0>         0.0000
      8 C8          0.1729    0.8161   -0.1097 C.3       1 <0>         0.0000
      9 C9         -2.2998   -0.4687    1.8553 C.3       1 <0>         0.0000
     10 C10        -3.7866   -0.4129    1.5413 C.3       1 <0>         0.0000
     11 N1          2.9961    3.5663    1.1544 N.ar      1 <0>         0.0000
     12 N2          5.1826    4.3791   -0.3880 N.ar      1 <0>         0.0000
     13 N3         -1.4938   -0.2105    0.6869 N.3       1 <0>         0.0000
     14 N4          1.2102    1.7584    0.2122 N.am      1 <0>         0.0000
     15 O1          2.3956    1.5725   -1.7509 O.2       1 <0>         0.0000
     16 F1         -4.5119   -0.6173    2.6717 F         1 <0>         0.0000
     17 F2         -4.1503    0.7997    1.0468 F         1 <0>         0.0000
     18 F3         -4.1647   -1.3440    0.6426 F         1 <0>         0.0000
     19 Cl1         6.0849    6.0312    1.4640 Cl        1 <0>         0.0000
     20 H1          4.4578    3.0714   -1.8398 H         1 <0>         0.0000
     21 H2          3.7116    4.8682    2.6097 H         1 <0>         0.0000
     22 H3          0.3327   -1.3871    0.4698 H         1 <0>         0.0000
     23 H4          0.3484   -0.2155    1.8303 H         1 <0>         0.0000
     24 H5         -1.3317    1.9139    1.0765 H         1 <0>         0.0000
     25 H6         -1.9449    1.5272   -0.5608 H         1 <0>         0.0000
     26 H7          0.2922    0.5299   -1.1533 H         1 <0>         0.0000
     27 H8         -2.0916   -1.4783    2.2218 H         1 <0>         0.0000
     28 H9         -2.1190    0.2388    2.6847 H         1 <0>         0.0000
     29 H10         1.2137    2.2280    1.1120 H         1 <0>         0.0000
@<TRIPOS>BOND
     1    1    3 ar
     2    1   12 ar
     3    1   20 1
     4    2    4 ar
     5    2   11 ar
     6    2   21 1
     7    3    5 1
     8    3   11 ar
     9    4   12 ar
    10    4   19 1
    11    5   14 am
    12    5   15 2
    13    6    8 1
    14    6   13 1
    15    6   22 1
    16    6   23 1
    17    7    8 1
    18    7   13 1
    19    7   24 1
    20    7   25 1
    21    8   14 1
    22    8   26 1
    23    9   10 1
    24    9   13 1
    25    9   27 1
    26    9   28 1
    27   10   16 1
    28   10   17 1
    29   10   18 1
    30   14   29 1
