@<TRIPOS>MOLECULE
*****
   51    52     0     0     0
SMALL
NO_CHARGES

@<TRIPOS>ATOM
      1 C1          2.6521   -7.1460   -3.9306 C.ar      1 <0>         0.0000
      2 C2          1.8544   -6.5778   -4.9175 C.ar      1 <0>         0.0000
      3 C3          3.9898   -6.7870   -3.8915 C.ar      1 <0>         0.0000
      4 C4          3.7592   -5.3870   -5.6984 C.ar      1 <0>         0.0000
      5 C5          2.4108   -5.6805   -5.8223 C.ar      1 <0>         0.0000
      6 C6          3.0851   -2.6906   -2.0797 C.2       1 <0>         0.0000
      7 C7          0.4319   -0.3676   -0.9349 C.3       1 <0>         0.0000
      8 C8         -0.3613   -1.5191   -1.5443 C.3       1 <0>         0.0000
      9 C9          1.8156   -0.9682   -0.7420 C.3       1 <0>         0.0000
     10 C10         0.6541   -2.2041   -2.4630 C.3       1 <0>         0.0000
     11 C11         5.8252   -2.7657   -2.8898 C.3       1 <0>         0.0000
     12 C12         6.3623   -2.5247   -0.4479 C.3       1 <0>         0.0000
     13 C13         5.1090   -4.5443   -1.2593 C.3       1 <0>         0.0000
     14 C14         1.5721   -5.0468   -6.9035 C.3       1 <0>         0.0000
     15 C15         0.6458   -1.6171   -3.8728 C.3       1 <0>         0.0000
     16 C16         0.9164   -3.7242   -6.4852 C.3       1 <0>         0.0000
     17 C17        -0.0046   -3.8809   -5.2756 C.3       1 <0>         0.0000
     18 C18         5.3515   -3.0497   -1.4651 C.3       1 <0>         0.0000
     19 N1          4.5660   -5.9190   -4.7530 N.ar      1 <0>         0.0000
     20 N2          1.9348   -1.9714   -1.7947 N.am      1 <0>         0.0000
     21 O1          3.1721   -3.5334   -2.9698 O.2       1 <0>         0.0000
     22 O2          4.1191   -2.3537   -1.2473 O.3       1 <0>         0.0000
     23 S1         -0.7384   -2.2911   -4.8243 S.3       1 <0>         0.0000
     24 H1          2.2398   -7.8476   -3.2145 H         1 <0>         0.0000
     25 H2          0.8012   -6.8395   -4.9739 H         1 <0>         0.0000
     26 H3          4.6540   -7.2029   -3.1410 H         1 <0>         0.0000
     27 H4          4.2488   -4.6939   -6.3756 H         1 <0>         0.0000
     28 H5          0.4759    0.4769   -1.6320 H         1 <0>         0.0000
     29 H6         -0.0043   -0.0165    0.0045 H         1 <0>         0.0000
     30 H7         -0.6732   -2.2109   -0.7522 H         1 <0>         0.0000
     31 H8         -1.2573   -1.1712   -2.0668 H         1 <0>         0.0000
     32 H9          2.6164   -0.2270   -0.8206 H         1 <0>         0.0000
     33 H10         1.9012   -1.4826    0.2214 H         1 <0>         0.0000
     34 H11         0.4681   -3.2824   -2.5238 H         1 <0>         0.0000
     35 H12         5.1023   -3.1410   -3.6229 H         1 <0>         0.0000
     36 H13         5.9692   -1.6939   -3.0608 H         1 <0>         0.0000
     37 H14         6.7708   -3.2794   -3.0971 H         1 <0>         0.0000
     38 H15         6.0265   -2.7263    0.5757 H         1 <0>         0.0000
     39 H16         6.4688   -1.4369   -0.5292 H         1 <0>         0.0000
     40 H17         7.3481   -2.9807   -0.5856 H         1 <0>         0.0000
     41 H18         4.7692   -4.7483   -0.2375 H         1 <0>         0.0000
     42 H19         4.3587   -4.9309   -1.9566 H         1 <0>         0.0000
     43 H20         6.0365   -5.1119   -1.3959 H         1 <0>         0.0000
     44 H21         0.8013   -5.7493   -7.2453 H         1 <0>         0.0000
     45 H22         2.2161   -4.8674   -7.7744 H         1 <0>         0.0000
     46 H23         1.5811   -1.8595   -4.3789 H         1 <0>         0.0000
     47 H24         0.5499   -0.5319   -3.8198 H         1 <0>         0.0000
     48 H25         0.3359   -3.3561   -7.3412 H         1 <0>         0.0000
     49 H26         1.6888   -2.9731   -6.2766 H         1 <0>         0.0000
     50 H27         0.5466   -4.2532   -4.4073 H         1 <0>         0.0000
     51 H28        -0.8135   -4.5853   -5.4944 H         1 <0>         0.0000
@<TRIPOS>BOND
     1    1    2 ar
     2    1    3 ar
     3    1   24 1
     4    2    5 ar
     5    2   25 1
     6    3   19 ar
     7    3   26 1
     8    4    5 ar
     9    4   19 ar
    10    4   27 1
    11    5   14 1
    12    6   20 am
    13    6   21 2
    14    6   22 1
    15    7    8 1
    16    7    9 1
    17    7   28 1
    18    7   29 1
    19    8   10 1
    20    8   30 1
    21    8   31 1
    22    9   20 1
    23    9   32 1
    24    9   33 1
    25   10   15 1
    26   10   20 1
    27   10   34 1
    28   11   18 1
    29   11   35 1
    30   11   36 1
    31   11   37 1
    32   12   18 1
    33   12   38 1
    34   12   39 1
    35   12   40 1
    36   13   18 1
    37   13   41 1
    38   13   42 1
    39   13   43 1
    40   14   16 1
    41   14   44 1
    42   14   45 1
    43   15   23 1
    44   15   46 1
    45   15   47 1
    46   16   17 1
    47   16   48 1
    48   16   49 1
    49   17   23 1
    50   17   50 1
    51   17   51 1
    52   18   22 1
