@<TRIPOS>MOLECULE
*****
   28    29     0     0     0
SMALL
NO_CHARGES

@<TRIPOS>ATOM
      1 C1          1.3554   -1.5955   -5.7437 C.2       1 <0>         0.0000
      2 C2          2.4999   -0.5982   -2.2920 C.ar      1 <0>         0.0000
      3 C3         -0.2557   -0.7497   -1.9380 C.ar      1 <0>         0.0000
      4 C4          0.0138   -1.6511   -5.4988 C.2       1 <0>         0.0000
      5 C5          1.6874   -0.9512   -3.3775 C.ar      1 <0>         0.0000
      6 C6          0.5473   -0.3956   -0.8555 C.ar      1 <0>         0.0000
      7 C7          0.2933   -1.0275   -3.1950 C.ar      1 <0>         0.0000
      8 C8          2.3044   -1.2404   -4.7007 C.2       1 <0>         0.0000
      9 C9          1.9631   -0.3189   -1.0359 C.ar      1 <0>         0.0000
     10 C10        -0.2023   -0.1302    0.4154 C.2       1 <0>         0.0000
     11 C11         4.1419    0.0961   -0.1511 C.3       1 <0>         0.0000
     12 C12        -0.1475    0.5151    2.6753 C.3       1 <0>         0.0000
     13 N1         -0.5163   -1.3786   -4.2704 N.pl3     1 <0>         0.0000
     14 O1          3.5302   -1.1774   -4.8759 O.2       1 <0>         0.0000
     15 O2         -1.4163   -0.2519    0.5011 O.2       1 <0>         0.0000
     16 O3          2.7288    0.0216    0.0331 O.3       1 <0>         0.0000
     17 O4          0.5651    0.2565    1.4491 O.3       1 <0>         0.0000
     18 H1          1.7359   -1.8191   -6.7340 H         1 <0>         0.0000
     19 H2          3.5645   -0.5564   -2.4871 H         1 <0>         0.0000
     20 H3         -1.3278   -0.8029   -1.7710 H         1 <0>         0.0000
     21 H4         -0.7047   -1.9152   -6.2689 H         1 <0>         0.0000
     22 H5          4.5467    0.3822    0.8202 H         1 <0>         0.0000
     23 H6          4.4076    0.8542   -0.8969 H         1 <0>         0.0000
     24 H7          4.5570   -0.8733   -0.4504 H         1 <0>         0.0000
     25 H8          0.6173    0.8089    3.3940 H         1 <0>         0.0000
     26 H9         -0.6693   -0.3841    3.0111 H         1 <0>         0.0000
     27 H10        -0.8741    1.3186    2.5331 H         1 <0>         0.0000
     28 H11        -1.5162   -1.4325   -4.1296 H         1 <0>         0.0000
@<TRIPOS>BOND
     1    1    4 2
     2    1    8 1
     3    1   18 1
     4    2    5 ar
     5    2    9 ar
     6    2   19 1
     7    3    6 ar
     8    3    7 ar
     9    3   20 1
    10    4   13 1
    11    4   21 1
    12    5    7 ar
    13    5    8 1
    14    6    9 ar
    15    6   10 1
    16    7   13 1
    17    8   14 2
    18    9   16 1
    19   10   15 2
    20   10   17 1
    21   11   16 1
    22   11   22 1
    23   11   23 1
    24   11   24 1
    25   12   17 1
    26   12   25 1
    27   12   26 1
    28   12   27 1
    29   13   28 1
