@<TRIPOS>MOLECULE
*****
   31    32     0     0     0
SMALL
NO_CHARGES

@<TRIPOS>ATOM
      1 C1          1.0392    1.3453   -1.3220 C.ar      1 <0>         0.0000
      2 C2         -0.0656    0.6076   -0.8979 C.ar      1 <0>         0.0000
      3 C3          0.9559    2.1326   -2.4705 C.ar      1 <0>         0.0000
      4 C4         -1.2548    0.6479   -1.6265 C.ar      1 <0>         0.0000
      5 C5         -0.2383    2.1730   -3.1957 C.ar      1 <0>         0.0000
      6 C6         -1.3400    1.4210   -2.7862 C.ar      1 <0>         0.0000
      7 C7         -0.3600    3.0379   -4.3828 C.2       1 <0>         0.0000
      8 C8         -1.7343    3.1344   -4.9890 C.3       1 <0>         0.0000
      9 C9         -2.5072    1.8217   -4.8193 C.3       1 <0>         0.0000
     10 C10        -2.7165   -0.5697   -5.5216 C.3       1 <0>         0.0000
     11 C11        -4.0894    2.5110   -6.6255 C.3       1 <0>         0.0000
     12 C12        -1.9490    0.6945   -5.7045 C.3       1 <0>         0.0000
     13 C13        -3.9735    2.0603   -5.2106 C.3       1 <0>         0.0000
     14 O1          0.5919    3.6840   -4.8040 O.2       1 <0>         0.0000
     15 O2         -2.5377    1.3937   -3.4467 O.3       1 <0>         0.0000
     16 H1          1.9682    1.3010   -0.7610 H         1 <0>         0.0000
     17 H2         -0.0007    0.0024    0.0016 H         1 <0>         0.0000
     18 H3          1.8292    2.6957   -2.7876 H         1 <0>         0.0000
     19 H4         -2.1148    0.0817   -1.2781 H         1 <0>         0.0000
     20 H5         -2.2746    3.9626   -4.5167 H         1 <0>         0.0000
     21 H6         -1.5914    3.3727   -6.0503 H         1 <0>         0.0000
     22 H7         -2.6596   -0.8789   -4.4713 H         1 <0>         0.0000
     23 H8         -2.3002   -1.3754   -6.1356 H         1 <0>         0.0000
     24 H9         -3.7720   -0.4298   -5.7778 H         1 <0>         0.0000
     25 H10        -3.5293    3.4447   -6.7537 H         1 <0>         0.0000
     26 H11        -5.1338    2.7020   -6.8942 H         1 <0>         0.0000
     27 H12        -3.6710    1.7670   -7.3116 H         1 <0>         0.0000
     28 H13        -1.9977    1.0132   -6.7460 H         1 <0>         0.0000
     29 H14        -0.9017    0.5357   -5.4470 H         1 <0>         0.0000
     30 H15        -4.5257    1.1320   -5.0669 H         1 <0>         0.0000
     31 H16        -4.3922    2.8124   -4.5426 H         1 <0>         0.0000
@<TRIPOS>BOND
     1    1    2 ar
     2    1    3 ar
     3    1   16 1
     4    2    4 ar
     5    2   17 1
     6    3    5 ar
     7    3   18 1
     8    4    6 ar
     9    4   19 1
    10    5    6 ar
    11    5    7 1
    12    6   15 1
    13    7    8 1
    14    7   14 2
    15    8    9 1
    16    8   20 1
    17    8   21 1
    18    9   12 1
    19    9   13 1
    20    9   15 1
    21   10   12 1
    22   10   22 1
    23   10   23 1
    24   10   24 1
    25   11   13 1
    26   11   25 1
    27   11   26 1
    28   11   27 1
    29   12   28 1
    30   12   29 1
    31   13   30 1
    32   13   31 1
