@<TRIPOS>MOLECULE
*****
   12    11     0     0     0
SMALL
NO_CHARGES

@<TRIPOS>ATOM
      1 C1         -1.2638    2.6537   -2.1765 C.1       1 <0>         0.0000
      2 C2         -0.1759    0.2499    0.0130 C.2       1 <0>         0.0000
      3 C3          0.4064   -1.2684    1.7308 C.3       1 <0>         0.0000
      4 C4          0.0354    0.5262   -1.4483 C.3       1 <0>         0.0000
      5 N1         -0.6780    1.6943   -1.8482 N.1       1 <0>         0.0000
      6 O1         -0.8587    0.9341    0.7631 O.2       1 <0>         0.0000
      7 O2          0.5130   -0.8772    0.3581 O.3       1 <0>         0.0000
      8 H1          0.9916   -2.1760    1.8983 H         1 <0>         0.0000
      9 H2         -0.6427   -1.4475    1.9792 H         1 <0>         0.0000
     10 H3          0.7959   -0.4651    2.3607 H         1 <0>         0.0000
     11 H4         -0.3283   -0.3219   -2.0349 H         1 <0>         0.0000
     12 H5          1.1004    0.6863   -1.6375 H         1 <0>         0.0000
@<TRIPOS>BOND
     1    1    5 3
     2    2    4 1
     3    2    6 2
     4    2    7 1
     5    3    7 1
     6    3    8 1
     7    3    9 1
     8    3   10 1
     9    4    5 1
    10    4   11 1
    11    4   12 1
