@<TRIPOS>MOLECULE
*****
   66    70     0     0     0
SMALL
NO_CHARGES

@<TRIPOS>ATOM
      1 C1         -2.2170    4.3973  -10.9272 C.ar      1 <0>         0.0000
      2 C2         -1.6068   -0.9729   -6.5082 C.ar      1 <0>         0.0000
      3 C3         -2.3534    3.0071  -10.9439 C.ar      1 <0>         0.0000
      4 C4         -1.6738   -1.3099   -5.1565 C.ar      1 <0>         0.0000
      5 C5          0.7206   -0.3840   -6.2696 C.ar      1 <0>         0.0000
      6 C6         -0.9774    4.9399  -10.5786 C.ar      1 <0>         0.0000
      7 C7         -0.0493    2.8641  -10.2950 C.ar      1 <0>         0.0000
      8 C8         -0.4150   -0.5040   -7.0768 C.ar      1 <0>         0.0000
      9 C9         -1.2513    2.2109  -10.6176 C.ar      1 <0>         0.0000
     10 C10        -0.5412   -1.1879   -4.3421 C.ar      1 <0>         0.0000
     11 C11         0.6531   -0.7162   -4.9227 C.ar      1 <0>         0.0000
     12 C12         0.3261   -0.9898   -2.0782 C.2       1 <0>         0.0000
     13 C13        -0.2516   -0.1268   -8.5242 C.2       1 <0>         0.0000
     14 C14         3.0121   -0.9546   -4.3563 C.2       1 <0>         0.0000
     15 C15         1.3650   -0.0633   -2.7117 C.3       1 <0>         0.0000
     16 C16         8.1646   -4.2808   -2.4286 C.3       1 <0>         0.0000
     17 C17         7.1591   -3.6697   -1.4447 C.3       1 <0>         0.0000
     18 C18         7.5328   -4.4994   -3.8090 C.3       1 <0>         0.0000
     19 C19        -1.2684   -3.6400   -1.7021 C.3       1 <0>         0.0000
     20 C20        -1.8762   -3.7382   -3.0787 C.3       1 <0>         0.0000
     21 C21         6.5556   -2.3650   -1.9935 C.3       1 <0>         0.0000
     22 C22         6.9290   -3.1983   -4.3641 C.3       1 <0>         0.0000
     23 C23        -1.6319   -2.3842   -2.4503 C.3       1 <0>         0.0000
     24 C24         5.9296   -2.6123   -3.3657 C.3       1 <0>         0.0000
     25 C25        -1.3413    0.6995  -10.5791 C.3       1 <0>         0.0000
     26 C26         4.1301   -0.7738   -3.2998 C.3       1 <0>         0.0000
     27 N1          0.0944    4.1945  -10.2675 N.ar      1 <0>         0.0000
     28 N2         -0.5602   -1.5576   -2.9739 N.am      1 <0>         0.0000
     29 N3          1.7659   -0.5574   -4.0309 N.am      1 <0>         0.0000
     30 N4         -1.3974    0.1707   -9.2097 N.am      1 <0>         0.0000
     31 N5          5.3714   -1.3165   -3.9420 N.4       1 <0>         0.0000
     32 O1          0.3092   -1.1769   -0.8720 O.2       1 <0>         0.0000
     33 O2          0.8666   -0.1007   -9.0413 O.2       1 <0>         0.0000
     34 O3          3.3406   -1.4406   -5.4451 O.2       1 <0>         0.0000
     35 H1         -3.0484    5.0484  -11.1816 H         1 <0>         0.0000
     36 H2         -2.4944   -1.1111   -7.1185 H         1 <0>         0.0000
     37 H3         -3.3030    2.5494  -11.2154 H         1 <0>         0.0000
     38 H4         -2.6005   -1.6810   -4.7366 H         1 <0>         0.0000
     39 H5          1.6445   -0.0429   -6.7200 H         1 <0>         0.0000
     40 H6         -0.8355    6.0191  -10.5532 H         1 <0>         0.0000
     41 H7          0.8326    2.2748  -10.0496 H         1 <0>         0.0000
     42 H8          0.9362    0.9396   -2.8217 H         1 <0>         0.0000
     43 H9          2.2010    0.0016   -2.0207 H         1 <0>         0.0000
     44 H10         8.5390   -5.2307   -2.0355 H         1 <0>         0.0000
     45 H11         9.0335   -3.6167   -2.5238 H         1 <0>         0.0000
     46 H12         6.3510   -4.3856   -1.2476 H         1 <0>         0.0000
     47 H13         7.6357   -3.4639   -0.4820 H         1 <0>         0.0000
     48 H14         8.2740   -4.8784   -4.5182 H         1 <0>         0.0000
     49 H15         6.7460   -5.2612   -3.7409 H         1 <0>         0.0000
     50 H16        -1.8716   -3.8870   -0.8351 H         1 <0>         0.0000
     51 H17        -0.2129   -3.8646   -1.5973 H         1 <0>         0.0000
     52 H18        -1.2275   -4.0300   -3.8989 H         1 <0>         0.0000
     53 H19        -2.9077   -4.0613   -3.1788 H         1 <0>         0.0000
     54 H20         5.8189   -1.9663   -1.2870 H         1 <0>         0.0000
     55 H21         7.3501   -1.6121   -2.0944 H         1 <0>         0.0000
     56 H22         7.7340   -2.4710   -4.5398 H         1 <0>         0.0000
     57 H23         6.4376   -3.3842   -5.3262 H         1 <0>         0.0000
     58 H24        -2.4890   -1.8186   -2.0934 H         1 <0>         0.0000
     59 H25         5.0619   -3.2748   -3.2803 H         1 <0>         0.0000
     60 H26        -2.2340    0.3565  -11.1095 H         1 <0>         0.0000
     61 H27        -0.4701    0.2456  -11.0531 H         1 <0>         0.0000
     62 H28         3.9281   -1.3325   -2.3865 H         1 <0>         0.0000
     63 H29         4.2793    0.2756   -3.0420 H         1 <0>         0.0000
     64 H30        -2.2233    0.4012   -8.6716 H         1 <0>         0.0000
     65 H31         6.1147   -0.6122   -3.9608 H         1 <0>         0.0000
     66 H32         5.0592   -1.4948   -4.9291 H         1 <0>         0.0000
@<TRIPOS>BOND
     1    1    3 ar
     2    1    6 ar
     3    1   35 1
     4    2    4 ar
     5    2    8 ar
     6    2   36 1
     7    3    9 ar
     8    3   37 1
     9    4   10 ar
    10    4   38 1
    11    5    8 ar
    12    5   11 ar
    13    5   39 1
    14    6   27 ar
    15    6   40 1
    16    7    9 ar
    17    7   27 ar
    18    7   41 1
    19    8   13 1
    20    9   25 1
    21   10   11 ar
    22   10   28 1
    23   11   29 1
    24   12   15 1
    25   12   28 am
    26   12   32 2
    27   13   30 am
    28   13   33 2
    29   14   26 1
    30   14   29 am
    31   14   34 2
    32   15   29 1
    33   15   42 1
    34   15   43 1
    35   16   18 1
    36   16   17 1
    37   16   44 1
    38   16   45 1
    39   17   21 1
    40   17   46 1
    41   17   47 1
    42   18   22 1
    43   18   48 1
    44   18   49 1
    45   19   20 1
    46   19   23 1
    47   19   50 1
    48   19   51 1
    49   20   23 1
    50   20   52 1
    51   20   53 1
    52   21   24 1
    53   21   54 1
    54   21   55 1
    55   22   24 1
    56   22   56 1
    57   22   57 1
    58   23   28 1
    59   23   58 1
    60   24   31 1
    61   24   59 1
    62   25   30 1
    63   25   60 1
    64   25   61 1
    65   26   31 1
    66   26   62 1
    67   26   63 1
    68   30   64 1
    69   31   65 1
    70   31   66 1
