@<TRIPOS>MOLECULE
*****
   52    56     0     0     0
SMALL
NO_CHARGES

@<TRIPOS>ATOM
      1 C1         -1.1375    0.9684    2.0062 C.ar      1 <0>         0.0000
      2 C2         -1.2213   -0.0938    1.0834 C.ar      1 <0>         0.0000
      3 C3         -6.3872    2.1986    6.3682 C.ar      1 <0>         0.0000
      4 C4         -2.1118    1.1505    2.9903 C.ar      1 <0>         0.0000
      5 C5         -6.0860    1.3575    5.3031 C.ar      1 <0>         0.0000
      6 C6         -5.0904   -2.6264   -0.9532 C.ar      1 <0>         0.0000
      7 C7         -6.6889   -1.3497    0.3344 C.ar      1 <0>         0.0000
      8 C8         -2.2941   -0.9891    1.1245 C.ar      1 <0>         0.0000
      9 C9         -5.3849    2.7557    7.1795 C.ar      1 <0>         0.0000
     10 C10        -5.7050   -2.2266   -2.1469 C.ar      1 <0>         0.0000
     11 C11        -7.3108   -0.9375   -0.8460 C.ar      1 <0>         0.0000
     12 C12        -3.7376    1.5788    5.8371 C.ar      1 <0>         0.0000
     13 C13        -3.1950    0.2549    3.0693 C.ar      1 <0>         0.0000
     14 C14        -4.7394    1.0333    5.0168 C.ar      1 <0>         0.0000
     15 C15        -4.3850    0.1588    3.8911 C.2       1 <0>         0.0000
     16 C16        -5.5703   -2.1999    0.2894 C.ar      1 <0>         0.0000
     17 C17        -3.2612   -0.8061    2.1166 C.ar      1 <0>         0.0000
     18 C18        -4.0527    2.4311    6.9011 C.ar      1 <0>         0.0000
     19 C19        -6.8066   -1.3856   -2.0638 C.ar      1 <0>         0.0000
     20 C20        -5.1103   -0.9344    3.4232 C.2       1 <0>         0.0000
     21 C21        -6.4480   -1.5564    3.8435 C.2       1 <0>         0.0000
     22 C22        -1.8188    5.3321   10.2169 C.3       1 <0>         0.0000
     23 C23        -1.1057    5.1932    8.8861 C.3       1 <0>         0.0000
     24 C24        -1.9300    4.0481    9.4224 C.3       1 <0>         0.0000
     25 C25        -4.8960   -2.6406    1.5770 C.3       1 <0>         0.0000
     26 C26        -3.2408    3.7058    8.7657 C.3       1 <0>         0.0000
     27 N1         -4.4158   -1.5229    2.3743 N.pl3     1 <0>         0.0000
     28 O1         -6.3635   -2.6908    4.3736 O.co2     1 <0>         0.0000
     29 O2         -7.4675   -0.8783    3.5343 O.co2     1 <0>         0.0000
     30 O3         -2.9706    2.8996    7.6263 O.3       1 <0>         0.0000
     31 F1         -7.4169   -0.9842   -3.2216 F         1 <0>         0.0000
     32 H1         -0.3035    1.6645    1.9441 H         1 <0>         0.0000
     33 H2         -0.4530   -0.2111    0.3224 H         1 <0>         0.0000
     34 H3         -7.4276    2.4391    6.5779 H         1 <0>         0.0000
     35 H4         -2.0393    1.9915    3.6735 H         1 <0>         0.0000
     36 H5         -6.8723    0.9351    4.6852 H         1 <0>         0.0000
     37 H6         -4.2204   -3.2788   -0.9983 H         1 <0>         0.0000
     38 H7         -7.0752   -1.0127    1.2960 H         1 <0>         0.0000
     39 H8         -2.3782   -1.7893    0.3943 H         1 <0>         0.0000
     40 H9         -5.6549    3.4137    7.9982 H         1 <0>         0.0000
     41 H10        -5.3393   -2.5486   -3.1176 H         1 <0>         0.0000
     42 H11        -8.1762   -0.2813   -0.8278 H         1 <0>         0.0000
     43 H12        -2.6954    1.3167    5.6879 H         1 <0>         0.0000
     44 H13        -1.2239    5.3220   11.1258 H         1 <0>         0.0000
     45 H14        -2.6909    5.9799   10.2605 H         1 <0>         0.0000
     46 H15        -1.5047    5.7366    8.0342 H         1 <0>         0.0000
     47 H16        -0.0243    5.0916    8.8894 H         1 <0>         0.0000
     48 H17        -1.3795    3.1900    9.8006 H         1 <0>         0.0000
     49 H18        -5.5849   -3.2065    2.2086 H         1 <0>         0.0000
     50 H19        -4.0474   -3.2945    1.3499 H         1 <0>         0.0000
     51 H20        -3.7637    4.6275    8.4680 H         1 <0>         0.0000
     52 H21        -3.8915    3.1630    9.4669 H         1 <0>         0.0000
@<TRIPOS>BOND
     1    1    2 ar
     2    1    4 ar
     3    1   32 1
     4    2    8 ar
     5    2   33 1
     6    3    5 ar
     7    3    9 ar
     8    3   34 1
     9    4   13 ar
    10    4   35 1
    11    5   14 ar
    12    5   36 1
    13    6   10 ar
    14    6   16 ar
    15    6   37 1
    16    7   11 ar
    17    7   16 ar
    18    7   38 1
    19    8   17 ar
    20    8   39 1
    21    9   18 ar
    22    9   40 1
    23   10   19 ar
    24   10   41 1
    25   11   19 ar
    26   11   42 1
    27   12   14 ar
    28   12   18 ar
    29   12   43 1
    30   13   15 1
    31   13   17 ar
    32   14   15 1
    33   15   20 2
    34   16   25 1
    35   17   27 1
    36   18   30 1
    37   19   31 1
    38   20   21 1
    39   20   27 1
    40   21   28 1
    41   21   29 2
    42   22   23 1
    43   22   24 1
    44   22   44 1
    45   22   45 1
    46   23   24 1
    47   23   46 1
    48   23   47 1
    49   24   26 1
    50   24   48 1
    51   25   27 1
    52   25   49 1
    53   25   50 1
    54   26   30 1
    55   26   51 1
    56   26   52 1
