@<TRIPOS>MOLECULE
*****
   62    64     0     0     0
SMALL
NO_CHARGES

@<TRIPOS>ATOM
      1 C1          5.5469    4.1556    5.4861 C.ar      1 <0>         0.0000
      2 C2          6.1935    6.4403    4.9966 C.ar      1 <0>         0.0000
      3 C3          6.7857    3.9454    6.1053 C.ar      1 <0>         0.0000
      4 C4          7.4242    6.2305    5.6114 C.ar      1 <0>         0.0000
      5 C5          5.2497    5.4052    4.9302 C.ar      1 <0>         0.0000
      6 C6          7.7171    4.9785    6.1647 C.ar      1 <0>         0.0000
      7 C7          0.8774    1.2388   -1.4526 C.3       1 <0>         0.0000
      8 C8         -0.5677    1.1013   -1.9446 C.3       1 <0>         0.0000
      9 C9          1.0333    0.7170   -0.0287 C.3       1 <0>         0.0000
     10 C10        -1.3703    1.2137    0.4265 C.3       1 <0>         0.0000
     11 C11         1.3919    1.8672    4.4440 C.3       1 <0>         0.0000
     12 C12         1.4410    1.8050    2.9176 C.3       1 <0>         0.0000
     13 C13        -1.5889    1.7616   -0.9928 C.3       1 <0>         0.0000
     14 C14         0.8067    4.1542    3.2366 C.3       1 <0>         0.0000
     15 C15        -1.4537    3.2978   -1.0014 C.3       1 <0>         0.0000
     16 C16        -3.0189    1.3806   -1.4130 C.3       1 <0>         0.0000
     17 C17        -0.4722    4.6443    2.5535 C.3       1 <0>         0.0000
     18 C18         2.3240    5.8442    2.0959 C.3       1 <0>         0.0000
     19 C19         1.2683    6.4188    4.3125 C.3       1 <0>         0.0000
     20 C20         0.2480    1.0187    2.3417 C.3       1 <0>         0.0000
     21 C21         3.0866    4.6943    4.1882 C.3       1 <0>         0.0000
     22 C22         1.8625    5.2830    3.4584 C.3       1 <0>         0.0000
     23 N1          0.0524    1.3999    0.8996 N.4       1 <0>         0.0000
     24 O1          1.4143    3.1307    2.3868 O.3       1 <0>         0.0000
     25 O2          4.0680    5.7159    4.3014 O.3       1 <0>         0.0000
     26 S1          0.2910    3.2714    4.8050 S.3       1 <0>         0.0000
     27 Cl1         9.2670    4.7120    6.9396 Cl        1 <0>         0.0000
     28 H1          4.8344    3.3392    5.4572 H         1 <0>         0.0000
     29 H2          5.9479    7.4051    4.5630 H         1 <0>         0.0000
     30 H3          7.0188    2.9789    6.5408 H         1 <0>         0.0000
     31 H4          8.1540    7.0321    5.6633 H         1 <0>         0.0000
     32 H5          1.5551    0.6655   -2.0921 H         1 <0>         0.0000
     33 H6          1.2164    2.2790   -1.5018 H         1 <0>         0.0000
     34 H7         -0.6639    1.5388   -2.9427 H         1 <0>         0.0000
     35 H8         -0.8121    0.0362   -2.0455 H         1 <0>         0.0000
     36 H9          0.8181   -0.3532    0.0353 H         1 <0>         0.0000
     37 H10         2.0343    0.8998    0.3637 H         1 <0>         0.0000
     38 H11        -2.0135    1.7226    1.1485 H         1 <0>         0.0000
     39 H12        -1.5740    0.1401    0.4777 H         1 <0>         0.0000
     40 H13         0.9686    0.9591    4.8814 H         1 <0>         0.0000
     41 H14         2.3898    2.0204    4.8577 H         1 <0>         0.0000
     42 H15         2.3856    1.3626    2.5864 H         1 <0>         0.0000
     43 H16        -2.1793    3.7593   -0.3240 H         1 <0>         0.0000
     44 H17        -1.6468    3.6846   -2.0059 H         1 <0>         0.0000
     45 H18        -0.4581    3.6539   -0.7150 H         1 <0>         0.0000
     46 H19        -3.7651    1.8268   -0.7470 H         1 <0>         0.0000
     47 H20        -3.1633    0.2951   -1.4104 H         1 <0>         0.0000
     48 H21        -3.2214    1.7413   -2.4255 H         1 <0>         0.0000
     49 H22        -1.1519    3.8052    2.3847 H         1 <0>         0.0000
     50 H23        -0.2477    5.1205    1.5967 H         1 <0>         0.0000
     51 H24        -1.0018    5.3655    3.1786 H         1 <0>         0.0000
     52 H25         3.1107    6.5819    2.2608 H         1 <0>         0.0000
     53 H26         2.7295    5.0561    1.4551 H         1 <0>         0.0000
     54 H27         1.5102    6.3453    1.5657 H         1 <0>         0.0000
     55 H28         2.0567    7.1324    4.5589 H         1 <0>         0.0000
     56 H29         0.8516    6.0441    5.2529 H         1 <0>         0.0000
     57 H30         0.4865    6.9630    3.7763 H         1 <0>         0.0000
     58 H31        -0.6633    1.2907    2.8775 H         1 <0>         0.0000
     59 H32         0.3954   -0.0616    2.4016 H         1 <0>         0.0000
     60 H33         3.4998    3.8526    3.6176 H         1 <0>         0.0000
     61 H34         2.7990    4.3477    5.1878 H         1 <0>         0.0000
     62 H35         0.2750    2.4084    0.8878 H         1 <0>         0.0000
@<TRIPOS>BOND
     1    1    3 ar
     2    1    5 ar
     3    1   28 1
     4    2    4 ar
     5    2    5 ar
     6    2   29 1
     7    3    6 ar
     8    3   30 1
     9    4    6 ar
    10    4   31 1
    11    5   25 1
    12    6   27 1
    13    7    8 1
    14    7    9 1
    15    7   32 1
    16    7   33 1
    17    8   13 1
    18    8   34 1
    19    8   35 1
    20    9   23 1
    21    9   36 1
    22    9   37 1
    23   10   13 1
    24   10   23 1
    25   10   38 1
    26   10   39 1
    27   11   12 1
    28   11   26 1
    29   11   40 1
    30   11   41 1
    31   12   20 1
    32   12   24 1
    33   12   42 1
    34   13   15 1
    35   13   16 1
    36   14   17 1
    37   14   22 1
    38   14   24 1
    39   14   26 1
    40   15   43 1
    41   15   44 1
    42   15   45 1
    43   16   46 1
    44   16   47 1
    45   16   48 1
    46   17   49 1
    47   17   50 1
    48   17   51 1
    49   18   22 1
    50   18   52 1
    51   18   53 1
    52   18   54 1
    53   19   22 1
    54   19   55 1
    55   19   56 1
    56   19   57 1
    57   20   23 1
    58   20   58 1
    59   20   59 1
    60   21   22 1
    61   21   25 1
    62   21   60 1
    63   21   61 1
    64   23   62 1
