@<TRIPOS>MOLECULE
*****
   13    13     0     0     0
SMALL
NO_CHARGES

@<TRIPOS>ATOM
      1 C1          0.1751    0.0423   -1.9746 C.2       1 <0>         0.0000
      2 C2          0.3395   -0.4366   -0.5552 C.3       1 <0>         0.0000
      3 C3         -0.3609    0.4905    0.4243 C.3       1 <0>         0.0000
      4 N1          0.8054    1.0183   -2.5866 N.2       1 <0>         0.0000
      5 N2          0.2919    1.0488   -3.8635 N.2       1 <0>         0.0000
      6 N3         -0.6324    0.1105   -4.0285 N.2       1 <0>         0.0000
      7 N4         -0.7037   -0.5172   -2.8464 N.pl3     1 <0>         0.0000
      8 Br1        -0.0767   -0.1396    2.2441 Br        1 <0>         0.0000
      9 H1          1.4089   -0.5125   -0.3186 H         1 <0>         0.0000
     10 H2         -0.0530   -1.4583   -0.4685 H         1 <0>         0.0000
     11 H3          0.0314    1.5109    0.3820 H         1 <0>         0.0000
     12 H4         -1.4434    0.5170    0.2684 H         1 <0>         0.0000
     13 H5         -1.3519   -1.2864   -2.7222 H         1 <0>         0.0000
@<TRIPOS>BOND
     1    1    2 1
     2    1    4 2
     3    1    7 1
     4    2    3 1
     5    2    9 1
     6    2   10 1
     7    3    8 1
     8    3   11 1
     9    3   12 1
    10    4    5 1
    11    5    6 2
    12    6    7 1
    13    7   13 1
