@<TRIPOS>MOLECULE
*****
   31    32     0     0     0
SMALL
NO_CHARGES

@<TRIPOS>ATOM
      1 C1          4.0136    1.1914    2.1150 C.ar      1 <0>         0.0000
      2 C2          3.4303    0.3982    1.1256 C.ar      1 <0>         0.0000
      3 C3          4.1734    0.7077    3.4183 C.ar      1 <0>         0.0000
      4 C4          3.1515   -1.3954    2.7221 C.ar      1 <0>         0.0000
      5 C5          2.9885   -0.8998    1.4226 C.ar      1 <0>         0.0000
      6 C6          3.7391   -0.5849    3.6888 C.ar      1 <0>         0.0000
      7 C7          1.2925   -0.9589   -0.4671 C.2       1 <0>         0.0000
      8 C8         -0.8169    0.2014   -0.6904 C.3       1 <0>         0.0000
      9 C9         -0.2190   -0.7732    1.5401 C.3       1 <0>         0.0000
     10 C10        -0.3859    1.6308   -1.0368 C.3       1 <0>         0.0000
     11 C11         0.0253    0.4224    2.4702 C.3       1 <0>         0.0000
     12 C12         2.3182   -1.7420    0.3546 C.3       1 <0>         0.0000
     13 N1          0.1287   -0.5550    0.1348 N.am      1 <0>         0.0000
     14 O1          1.5205   -0.6914   -1.6503 O.2       1 <0>         0.0000
     15 F1          3.8829   -1.0779    4.9473 F         1 <0>         0.0000
     16 S1          0.2893    2.5945    0.3792 S.3       1 <0>         0.0000
     17 S2         -0.8666    1.9599    1.9991 S.3       1 <0>         0.0000
     18 H1          4.3347    2.2013    1.8762 H         1 <0>         0.0000
     19 H2          3.2918    0.7960    0.1250 H         1 <0>         0.0000
     20 H3          4.6173    1.3079    4.2063 H         1 <0>         0.0000
     21 H4          2.8219   -2.3942    2.9956 H         1 <0>         0.0000
     22 H5         -1.7639    0.2322   -0.1502 H         1 <0>         0.0000
     23 H6         -0.9731   -0.3344   -1.6318 H         1 <0>         0.0000
     24 H7          0.3463   -1.6241    1.9238 H         1 <0>         0.0000
     25 H8         -1.2767   -1.0539    1.5829 H         1 <0>         0.0000
     26 H9          0.4300    1.6133   -1.7630 H         1 <0>         0.0000
     27 H10        -1.2390    2.1602   -1.4706 H         1 <0>         0.0000
     28 H11        -0.3412    0.1707    3.4723 H         1 <0>         0.0000
     29 H12         1.0858    0.6600    2.5436 H         1 <0>         0.0000
     30 H13         3.0568   -2.0851   -0.3739 H         1 <0>         0.0000
     31 H14         1.8649   -2.6319    0.8023 H         1 <0>         0.0000
@<TRIPOS>BOND
     1    1    2 ar
     2    1    3 ar
     3    1   18 1
     4    2    5 ar
     5    2   19 1
     6    3    6 ar
     7    3   20 1
     8    4    5 ar
     9    4    6 ar
    10    4   21 1
    11    5   12 1
    12    6   15 1
    13    7   12 1
    14    7   13 am
    15    7   14 2
    16    8   10 1
    17    8   13 1
    18    8   22 1
    19    8   23 1
    20    9   11 1
    21    9   13 1
    22    9   24 1
    23    9   25 1
    24   10   16 1
    25   10   26 1
    26   10   27 1
    27   11   17 1
    28   11   28 1
    29   11   29 1
    30   12   30 1
    31   12   31 1
    32   16   17 1
