@<TRIPOS>MOLECULE
*****
   31    32     0     0     0
SMALL
NO_CHARGES

@<TRIPOS>ATOM
      1 C1         -2.3625    0.0023   -4.3453 C.ar      1 <0>         0.0000
      2 C2         -2.3429    0.8881   -3.2623 C.ar      1 <0>         0.0000
      3 C3         -2.9170   -1.2719   -4.2096 C.ar      1 <0>         0.0000
      4 C4         -3.4438   -0.7626   -1.8818 C.ar      1 <0>         0.0000
      5 C5         -2.8751    0.5111   -2.0230 C.ar      1 <0>         0.0000
      6 C6         -3.4513   -1.6209   -2.9723 C.ar      1 <0>         0.0000
      7 C7         -2.0300    0.7622    0.3260 C.2       1 <0>         0.0000
      8 C8          0.1513    1.2725   -0.8000 C.3       1 <0>         0.0000
      9 C9          0.0089   -0.0383    1.3431 C.3       1 <0>         0.0000
     10 C10         0.9604    0.2548   -1.6417 C.3       1 <0>         0.0000
     11 C11        -0.1416   -1.5603    1.2140 C.3       1 <0>         0.0000
     12 C12        -2.8067    1.4271   -0.8154 C.3       1 <0>         0.0000
     13 N1         -0.6597    0.7034    0.2677 N.am      1 <0>         0.0000
     14 O1         -2.6475    0.2466    1.2621 O.2       1 <0>         0.0000
     15 F1         -3.9955   -2.8560   -2.8247 F         1 <0>         0.0000
     16 S1          0.1711   -1.3873   -1.8363 S.3       1 <0>         0.0000
     17 S2          0.8756   -2.3282   -0.1041 S.3       1 <0>         0.0000
     18 H1         -1.9425    0.3050   -5.3007 H         1 <0>         0.0000
     19 H2         -1.9125    1.8790   -3.3883 H         1 <0>         0.0000
     20 H3         -2.9389   -1.9819   -5.0302 H         1 <0>         0.0000
     21 H4         -3.8508   -1.0919   -0.9302 H         1 <0>         0.0000
     22 H5          0.8587    1.9924   -0.3665 H         1 <0>         0.0000
     23 H6         -0.5005    1.8350   -1.4604 H         1 <0>         0.0000
     24 H7         -0.4336    0.2698    2.2944 H         1 <0>         0.0000
     25 H8          1.0658    0.2424    1.3446 H         1 <0>         0.0000
     26 H9          1.1005    0.6583   -2.6499 H         1 <0>         0.0000
     27 H10         1.9497    0.0838   -1.2119 H         1 <0>         0.0000
     28 H11         0.2130   -2.0389    2.1344 H         1 <0>         0.0000
     29 H12        -1.1908   -1.8227    1.0773 H         1 <0>         0.0000
     30 H13        -2.3971    2.4014   -1.0927 H         1 <0>         0.0000
     31 H14        -3.8066    1.5948   -0.4100 H         1 <0>         0.0000
@<TRIPOS>BOND
     1    1    2 ar
     2    1    3 ar
     3    1   18 1
     4    2    5 ar
     5    2   19 1
     6    3    6 ar
     7    3   20 1
     8    4    5 ar
     9    4    6 ar
    10    4   21 1
    11    5   12 1
    12    6   15 1
    13    7   12 1
    14    7   13 am
    15    7   14 2
    16    8   10 1
    17    8   13 1
    18    8   22 1
    19    8   23 1
    20    9   11 1
    21    9   13 1
    22    9   24 1
    23    9   25 1
    24   10   16 1
    25   10   26 1
    26   10   27 1
    27   11   17 1
    28   11   28 1
    29   11   29 1
    30   12   30 1
    31   12   31 1
    32   16   17 1
