@<TRIPOS>MOLECULE
*****
   31    32     0     0     0
SMALL
NO_CHARGES

@<TRIPOS>ATOM
      1 C1          4.7305    0.5311    0.0811 C.ar      1 <0>         0.0000
      2 C2          3.7729   -0.3129   -0.4852 C.ar      1 <0>         0.0000
      3 C3          5.0248    0.4669    1.4477 C.ar      1 <0>         0.0000
      4 C4          3.3748   -1.3153    1.6788 C.ar      1 <0>         0.0000
      5 C5          3.0850   -1.2425    0.3101 C.ar      1 <0>         0.0000
      6 C6          4.3349   -0.4629    2.2165 C.ar      1 <0>         0.0000
      7 C7          1.1153   -1.4479   -1.2777 C.2       1 <0>         0.0000
      8 C8         -0.0619   -0.3959    0.6710 C.3       1 <0>         0.0000
      9 C9         -0.6629    0.1470   -1.7046 C.3       1 <0>         0.0000
     10 C10        -0.8362   -1.5175    1.3961 C.3       1 <0>         0.0000
     11 C11        -1.9660   -0.5770   -2.0434 C.3       1 <0>         0.0000
     12 C12         2.0517   -2.1669   -0.3067 C.3       1 <0>         0.0000
     13 N1          0.1901   -0.5778   -0.7568 N.am      1 <0>         0.0000
     14 O1          1.2315   -1.6204   -2.4931 O.2       1 <0>         0.0000
     15 F1          4.6007   -0.5443    3.5470 F         1 <0>         0.0000
     16 S1         -2.0998   -2.3879    0.3894 S.3       1 <0>         0.0000
     17 S2         -3.0793   -0.8319   -0.6007 S.3       1 <0>         0.0000
     18 H1          5.2567    1.2471   -0.5444 H         1 <0>         0.0000
     19 H2          3.5546   -0.2541   -1.5480 H         1 <0>         0.0000
     20 H3          5.7643    1.1131    1.9102 H         1 <0>         0.0000
     21 H4          2.8685   -2.0228    2.3300 H         1 <0>         0.0000
     22 H5         -0.6431    0.5221    0.7645 H         1 <0>         0.0000
     23 H6          0.8789   -0.2251    1.2024 H         1 <0>         0.0000
     24 H7         -0.0913    0.2826   -2.6250 H         1 <0>         0.0000
     25 H8         -0.8802    1.1323   -1.2821 H         1 <0>         0.0000
     26 H9         -0.1738   -2.3248    1.7241 H         1 <0>         0.0000
     27 H10        -1.3010   -1.0935    2.2907 H         1 <0>         0.0000
     28 H11        -2.5484    0.0270   -2.7488 H         1 <0>         0.0000
     29 H12        -1.7624   -1.5462   -2.5024 H         1 <0>         0.0000
     30 H13         2.5482   -2.9344   -0.9052 H         1 <0>         0.0000
     31 H14         1.4907   -2.6808    0.4766 H         1 <0>         0.0000
@<TRIPOS>BOND
     1    1    2 ar
     2    1    3 ar
     3    1   18 1
     4    2    5 ar
     5    2   19 1
     6    3    6 ar
     7    3   20 1
     8    4    5 ar
     9    4    6 ar
    10    4   21 1
    11    5   12 1
    12    6   15 1
    13    7   12 1
    14    7   13 am
    15    7   14 2
    16    8   10 1
    17    8   13 1
    18    8   22 1
    19    8   23 1
    20    9   11 1
    21    9   13 1
    22    9   24 1
    23    9   25 1
    24   10   16 1
    25   10   26 1
    26   10   27 1
    27   11   17 1
    28   11   28 1
    29   11   29 1
    30   12   30 1
    31   12   31 1
    32   16   17 1
