@<TRIPOS>MOLECULE
*****
   35    36     0     0     0
SMALL
NO_CHARGES

@<TRIPOS>ATOM
      1 C1          0.2166    0.0488   -4.2048 C.2       1 <0>         0.0000
      2 C2          1.3725    0.7237   -3.7673 C.2       1 <0>         0.0000
      3 C3          1.6152   -1.6531   -0.3062 C.2       1 <0>         0.0000
      4 C4          0.6337    1.2056    1.2960 C.3       1 <0>         0.0000
      5 C5          0.7795   -0.3011    1.5441 C.3       1 <0>         0.0000
      6 C6         -0.7408   -0.7518   -0.3176 C.3       1 <0>         0.0000
      7 C7         -0.9413    0.7439   -0.6119 C.3       1 <0>         0.0000
      8 C8         -0.7184    1.5916    0.6625 C.3       1 <0>         0.0000
      9 C9         -2.2935    0.9801   -1.2906 C.3       1 <0>         0.0000
     10 C10        -1.8641    1.4713    1.6779 C.3       1 <0>         0.0000
     11 C11         1.4429   -2.1482   -1.7537 C.3       1 <0>         0.0000
     12 N1          0.1020   -1.0918   -3.5124 N.2       1 <0>         0.0000
     13 N2          1.9574   -0.0084   -2.8111 N.2       1 <0>         0.0000
     14 N3          1.1641   -1.0749   -2.6994 N.pl3     1 <0>         0.0000
     15 N4          0.5613   -1.0205    0.2883 N.am      1 <0>         0.0000
     16 O1          2.6887   -1.8562    0.2608 O.2       1 <0>         0.0000
     17 O2         -0.6494    2.9540    0.1928 O.3       1 <0>         0.0000
     18 H1         -0.5134    0.3204   -4.9551 H         1 <0>         0.0000
     19 H2          1.7935    1.6696   -4.0796 H         1 <0>         0.0000
     20 H3          0.7673    1.7452    2.2430 H         1 <0>         0.0000
     21 H4          1.4304    1.5269    0.6170 H         1 <0>         0.0000
     22 H5          1.7771   -0.5466    1.9054 H         1 <0>         0.0000
     23 H6          0.0529   -0.6540    2.2865 H         1 <0>         0.0000
     24 H7         -1.5142   -1.1038    0.3784 H         1 <0>         0.0000
     25 H8         -0.8681   -1.3240   -1.2339 H         1 <0>         0.0000
     26 H9         -0.1520    1.0510   -1.3063 H         1 <0>         0.0000
     27 H10        -3.1232    0.5722   -0.7026 H         1 <0>         0.0000
     28 H11        -2.3104    0.4916   -2.2700 H         1 <0>         0.0000
     29 H12        -2.4693    2.0486   -1.4366 H         1 <0>         0.0000
     30 H13        -2.7941    1.8559    1.2535 H         1 <0>         0.0000
     31 H14        -1.6345    2.0577    2.5758 H         1 <0>         0.0000
     32 H15        -2.0343    0.4397    1.9997 H         1 <0>         0.0000
     33 H16         0.6328   -2.8714   -1.8548 H         1 <0>         0.0000
     34 H17         2.3864   -2.6247   -2.0207 H         1 <0>         0.0000
     35 H18        -0.4912    3.5265    0.9610 H         1 <0>         0.0000
@<TRIPOS>BOND
     1    1    2 1
     2    1   12 2
     3    1   18 1
     4    2   13 2
     5    2   19 1
     6    3   11 1
     7    3   15 am
     8    3   16 2
     9    4    5 1
    10    4    8 1
    11    4   20 1
    12    4   21 1
    13    5   15 1
    14    5   22 1
    15    5   23 1
    16    6    7 1
    17    6   15 1
    18    6   24 1
    19    6   25 1
    20    7    8 1
    21    7    9 1
    22    7   26 1
    23    8   10 1
    24    8   17 1
    25    9   27 1
    26    9   28 1
    27    9   29 1
    28   10   30 1
    29   10   31 1
    30   10   32 1
    31   11   14 1
    32   11   33 1
    33   11   34 1
    34   12   14 1
    35   13   14 1
    36   17   35 1
