@<TRIPOS>MOLECULE
*****
   35    36     0     0     0
SMALL
NO_CHARGES

@<TRIPOS>ATOM
      1 C1         -4.9736    2.3771   -1.0433 C.2       1 <0>         0.0000
      2 C2         -3.8698    2.7599   -1.8286 C.2       1 <0>         0.0000
      3 C3         -2.7237   -1.1037   -2.8640 C.2       1 <0>         0.0000
      4 C4          0.3218   -1.5857   -0.7841 C.3       1 <0>         0.0000
      5 C5         -0.4602   -1.4118   -2.0809 C.3       1 <0>         0.0000
      6 C6         -2.2033   -0.7316   -0.4293 C.3       1 <0>         0.0000
      7 C7         -1.1655    0.3020    0.0286 C.3       1 <0>         0.0000
      8 C8          0.2279   -0.3819    0.1764 C.3       1 <0>         0.0000
      9 C9         -1.6526    1.0778    1.2561 C.3       1 <0>         0.0000
     10 C10         0.5292   -0.8534    1.6041 C.3       1 <0>         0.0000
     11 C11        -4.1747   -0.6418   -2.6503 C.3       1 <0>         0.0000
     12 N1         -5.2121    1.0747   -1.2500 N.2       1 <0>         0.0000
     13 N2         -3.4412    1.6901   -2.5115 N.2       1 <0>         0.0000
     14 N3         -4.2732    0.7196   -2.1328 N.pl3     1 <0>         0.0000
     15 N4         -1.8880   -1.1680   -1.7913 N.am      1 <0>         0.0000
     16 O1         -2.3689   -1.4273   -3.9982 O.2       1 <0>         0.0000
     17 O2          1.2610    0.5306   -0.2529 O.3       1 <0>         0.0000
     18 H1         -5.5850    2.9530   -0.3619 H         1 <0>         0.0000
     19 H2         -3.3789    3.7181   -1.9313 H         1 <0>         0.0000
     20 H3         -0.0282   -2.4865   -0.2692 H         1 <0>         0.0000
     21 H4          1.3774   -1.7442   -1.0215 H         1 <0>         0.0000
     22 H5         -0.0647   -0.5726   -2.6639 H         1 <0>         0.0000
     23 H6         -0.3778   -2.3028   -2.7069 H         1 <0>         0.0000
     24 H7         -2.2079   -1.5952    0.2502 H         1 <0>         0.0000
     25 H8         -3.2011   -0.3043   -0.3890 H         1 <0>         0.0000
     26 H9         -1.0625    1.0114   -0.7998 H         1 <0>         0.0000
     27 H10        -1.8888    0.4170    2.0966 H         1 <0>         0.0000
     28 H11        -2.5583    1.6399    1.0065 H         1 <0>         0.0000
     29 H12        -0.9070    1.8020    1.6042 H         1 <0>         0.0000
     30 H13         0.6184   -0.0111    2.2975 H         1 <0>         0.0000
     31 H14         1.4766   -1.4006    1.6155 H         1 <0>         0.0000
     32 H15        -0.2554   -1.5177    1.9828 H         1 <0>         0.0000
     33 H16        -4.7146   -1.2805   -1.9490 H         1 <0>         0.0000
     34 H17        -4.6553   -0.6964   -3.6281 H         1 <0>         0.0000
     35 H18         1.2050    1.3290    0.2964 H         1 <0>         0.0000
@<TRIPOS>BOND
     1    1    2 1
     2    1   12 2
     3    1   18 1
     4    2   13 2
     5    2   19 1
     6    3   11 1
     7    3   15 am
     8    3   16 2
     9    4    5 1
    10    4    8 1
    11    4   20 1
    12    4   21 1
    13    5   15 1
    14    5   22 1
    15    5   23 1
    16    6    7 1
    17    6   15 1
    18    6   24 1
    19    6   25 1
    20    7    8 1
    21    7    9 1
    22    7   26 1
    23    8   10 1
    24    8   17 1
    25    9   27 1
    26    9   28 1
    27    9   29 1
    28   10   30 1
    29   10   31 1
    30   10   32 1
    31   11   14 1
    32   11   33 1
    33   11   34 1
    34   12   14 1
    35   13   14 1
    36   17   35 1
