@<TRIPOS>MOLECULE
*****
   18    18     0     0     0
SMALL
NO_CHARGES

@<TRIPOS>ATOM
      1 C1          0.0672   -0.4148   -1.0031 C.2       1 <0>         0.0000
      2 C2          0.1396    0.0408    1.1135 C.2       1 <0>         0.0000
      3 C3          0.6015    1.0278   -0.8521 C.3       1 <0>         0.0000
      4 C4          0.6263    2.5206    1.2281 C.3       1 <0>         0.0000
      5 N1         -0.1719   -0.9268    0.2831 N.2       1 <0>         0.0000
      6 N2          0.6088    1.2031    0.5995 N.pl3     1 <0>         0.0000
      7 N3         -0.0288   -0.1425    2.4999 N.pl3     1 <0>         0.0000
      8 O1         -0.0855   -0.9936   -2.0603 O.2       1 <0>         0.0000
      9 O2          1.9810    1.2861    3.5729 O.2       1 <0>         0.0000
     10 P1          1.2752   -0.0050    3.5715 P.3       1 <0>         0.0000
     11 Cl1         2.5147   -1.5939    3.1825 Cl        1 <0>         0.0000
     12 Cl2         0.3538   -0.5247    5.3191 Cl        1 <0>         0.0000
     13 H1          1.6009    1.1277   -1.2864 H         1 <0>         0.0000
     14 H2         -0.0693    1.7461   -1.3348 H         1 <0>         0.0000
     15 H3          1.6480    2.8948    1.3253 H         1 <0>         0.0000
     16 H4          0.1901    2.4656    2.2236 H         1 <0>         0.0000
     17 H5          0.0378    3.2144    0.6183 H         1 <0>         0.0000
     18 H6         -0.5834   -0.9874    2.6473 H         1 <0>         0.0000
@<TRIPOS>BOND
     1    1    3 1
     2    1    5 1
     3    1    8 2
     4    2    5 2
     5    2    6 1
     6    2    7 1
     7    3    6 1
     8    3   13 1
     9    3   14 1
    10    4    6 1
    11    4   15 1
    12    4   16 1
    13    4   17 1
    14    7   10 1
    15    7   18 1
    16    9   10 2
    17   10   11 1
    18   10   12 1
