@<TRIPOS>MOLECULE
*****
   31    32     0     0     0
SMALL
NO_CHARGES

@<TRIPOS>ATOM
      1 C1          1.6627   -1.9734   -1.4853 C.1       1 <0>         0.0000
      2 C2          1.9967   -1.6227   -0.3729 C.1       1 <0>         0.0000
      3 C3          2.0682    0.2235    2.8677 C.ar      1 <0>         0.0000
      4 C4          8.3048   -5.0557    5.1183 C.ar      1 <0>         0.0000
      5 C5          1.6798   -0.1735    1.5883 C.ar      1 <0>         0.0000
      6 C6          7.2984   -4.6972    4.2211 C.ar      1 <0>         0.0000
      7 C7          8.8608   -4.1002    5.9736 C.ar      1 <0>         0.0000
      8 C8          3.1457   -0.3915    3.5029 C.ar      1 <0>         0.0000
      9 C9          3.4741   -1.8312    1.5752 C.ar      1 <0>         0.0000
     10 C10         7.4049   -2.4222    5.0484 C.ar      1 <0>         0.0000
     11 C11         2.3859   -1.2037    0.9414 C.ar      1 <0>         0.0000
     12 C12         6.8310   -3.3770    4.1931 C.ar      1 <0>         0.0000
     13 C13         8.4265   -2.7662    5.9424 C.ar      1 <0>         0.0000
     14 C14         3.8556   -1.4226    2.8607 C.ar      1 <0>         0.0000
     15 C15         5.7436   -3.0526    3.2079 C.2       1 <0>         0.0000
     16 C16         9.0724   -1.7241    6.8265 C.3       1 <0>         0.0000
     17 N1          4.9397   -1.9879    3.5638 N.am      1 <0>         0.0000
     18 O1          5.5905   -3.7065    2.1784 O.2       1 <0>         0.0000
     19 H1          1.3731   -2.2875   -2.4655 H         1 <0>         0.0000
     20 H2          1.5295    1.0178    3.3769 H         1 <0>         0.0000
     21 H3          8.6589   -6.0827    5.1520 H         1 <0>         0.0000
     22 H4          0.8416    0.3003    1.0874 H         1 <0>         0.0000
     23 H5          6.8635   -5.4207    3.5391 H         1 <0>         0.0000
     24 H6          9.6476   -4.3897    6.6671 H         1 <0>         0.0000
     25 H7          3.4399   -0.0725    4.5012 H         1 <0>         0.0000
     26 H8          4.0097   -2.6274    1.0786 H         1 <0>         0.0000
     27 H9          7.0943   -1.3804    4.9966 H         1 <0>         0.0000
     28 H10        10.0509   -1.4276    6.4307 H         1 <0>         0.0000
     29 H11         8.4587   -0.8218    6.8994 H         1 <0>         0.0000
     30 H12         9.2328   -2.1065    7.8395 H         1 <0>         0.0000
     31 H13         5.0835   -1.6156    4.4928 H         1 <0>         0.0000
@<TRIPOS>BOND
     1    1    2 3
     2    1   19 1
     3    2   11 1
     4    3    5 ar
     5    3    8 ar
     6    3   20 1
     7    4    6 ar
     8    4    7 ar
     9    4   21 1
    10    5   11 ar
    11    5   22 1
    12    6   12 ar
    13    6   23 1
    14    7   13 ar
    15    7   24 1
    16    8   14 ar
    17    8   25 1
    18    9   11 ar
    19    9   14 ar
    20    9   26 1
    21   10   12 ar
    22   10   13 ar
    23   10   27 1
    24   12   15 1
    25   13   16 1
    26   14   17 1
    27   15   17 am
    28   15   18 2
    29   16   28 1
    30   16   29 1
    31   16   30 1
    32   17   31 1
