@<TRIPOS>MOLECULE
*****
   31    32     0     0     0
SMALL
NO_CHARGES

@<TRIPOS>ATOM
      1 C1         -5.0148    1.6692   -1.5720 C.ar      1 <0>         0.0000
      2 C2         -4.2419    2.1056   -0.4921 C.ar      1 <0>         0.0000
      3 C3         -5.3183    0.3131   -1.7249 C.ar      1 <0>         0.0000
      4 C4         -4.0723   -0.1658    0.3213 C.ar      1 <0>         0.0000
      5 C5         -3.7607    1.1930    0.4582 C.ar      1 <0>         0.0000
      6 C6         -4.8373   -0.5727   -0.7658 C.ar      1 <0>         0.0000
      7 C7         -1.8673    0.6758    2.0868 C.2       1 <0>         0.0000
      8 C8         -0.2584    1.4703    0.3239 C.3       1 <0>         0.0000
      9 C9          0.3891   -0.2118    2.0679 C.3       1 <0>         0.0000
     10 C10        -0.7929    0.9597   -1.0310 C.3       1 <0>         0.0000
     11 C11         0.4362   -1.5865    1.4016 C.3       1 <0>         0.0000
     12 C12        -2.9135    1.6840    1.6198 C.3       1 <0>         0.0000
     13 N1         -0.6189    0.7024    1.5146 N.am      1 <0>         0.0000
     14 O1         -2.1497   -0.1293    2.9784 O.2       1 <0>         0.0000
     15 F1         -5.1217   -1.8928   -0.8991 F         1 <0>         0.0000
     16 S1         -0.9024   -0.8619   -1.2081 S.3       1 <0>         0.0000
     17 S2          0.8911   -1.5400   -0.3800 S.3       1 <0>         0.0000
     18 H1         -5.3771    2.3860   -2.3038 H         1 <0>         0.0000
     19 H2         -4.0036    3.1619   -0.3925 H         1 <0>         0.0000
     20 H3         -5.9077   -0.0561   -2.5583 H         1 <0>         0.0000
     21 H4         -3.7177   -0.9012    1.0357 H         1 <0>         0.0000
     22 H5          0.8313    1.4667    0.2774 H         1 <0>         0.0000
     23 H6         -0.5608    2.5170    0.4362 H         1 <0>         0.0000
     24 H7          0.1597   -0.3485    3.1267 H         1 <0>         0.0000
     25 H8          1.3651    0.2754    1.9843 H         1 <0>         0.0000
     26 H9         -1.8184    1.2904   -1.2094 H         1 <0>         0.0000
     27 H10        -0.1625    1.3720   -1.8244 H         1 <0>         0.0000
     28 H11         1.2106   -2.1951    1.8827 H         1 <0>         0.0000
     29 H12        -0.5214   -2.1003    1.5035 H         1 <0>         0.0000
     30 H13        -2.4665    2.6477    1.3623 H         1 <0>         0.0000
     31 H14        -3.5545    1.8437    2.4919 H         1 <0>         0.0000
@<TRIPOS>BOND
     1    1    2 ar
     2    1    3 ar
     3    1   18 1
     4    2    5 ar
     5    2   19 1
     6    3    6 ar
     7    3   20 1
     8    4    5 ar
     9    4    6 ar
    10    4   21 1
    11    5   12 1
    12    6   15 1
    13    7   12 1
    14    7   13 am
    15    7   14 2
    16    8   10 1
    17    8   13 1
    18    8   22 1
    19    8   23 1
    20    9   11 1
    21    9   13 1
    22    9   24 1
    23    9   25 1
    24   10   16 1
    25   10   26 1
    26   10   27 1
    27   11   17 1
    28   11   28 1
    29   11   29 1
    30   12   30 1
    31   12   31 1
    32   16   17 1
