@<TRIPOS>MOLECULE
*****
   37    39     0     0     0
SMALL
NO_CHARGES

@<TRIPOS>ATOM
      1 C1          5.3609   -2.6950   -1.2962 C.1       1 <0>         0.0000
      2 C2          4.6362   -3.3032   -2.0548 C.1       1 <0>         0.0000
      3 C3          2.2684   -1.5261    0.6523 C.ar      1 <0>         0.0000
      4 C4          1.5650   -1.3527   -0.5450 C.ar      1 <0>         0.0000
      5 C5          2.7754   -4.3639   -5.1169 C.ar      1 <0>         0.0000
      6 C6          3.6351   -3.6473   -4.2827 C.ar      1 <0>         0.0000
      7 C7          2.3004   -2.7810    1.2598 C.ar      1 <0>         0.0000
      8 C8          0.8969   -2.4371   -1.1127 C.ar      1 <0>         0.0000
      9 C9          2.0252   -5.4311   -4.6189 C.ar      1 <0>         0.0000
     10 C10         3.0446   -5.1261   -2.4452 C.ar      1 <0>         0.0000
     11 C11         3.7692   -4.0262   -2.9352 C.ar      1 <0>         0.0000
     12 C12         1.6344   -3.8788    0.6955 C.ar      1 <0>         0.0000
     13 C13         0.9241   -3.6969   -0.5025 C.ar      1 <0>         0.0000
     14 C14         2.1541   -5.8146   -3.2743 C.ar      1 <0>         0.0000
     15 C15         1.1361   -7.1756   -1.4332 C.2       1 <0>         0.0000
     16 C16         1.7339   -5.2464    1.3483 C.3       1 <0>         0.0000
     17 C17         0.1753   -4.8558   -1.1353 C.3       1 <0>         0.0000
     18 C18         0.7089   -6.2421    0.7928 C.3       1 <0>         0.0000
     19 N1          0.6811   -6.1378   -0.6625 N.am      1 <0>         0.0000
     20 N2          1.3577   -6.8943   -2.7968 N.am      1 <0>         0.0000
     21 O1          1.3067   -8.3158   -0.9971 O.2       1 <0>         0.0000
     22 H1          5.9914   -2.1534   -0.6239 H         1 <0>         0.0000
     23 H2          2.7970   -0.6896    1.1023 H         1 <0>         0.0000
     24 H3          1.5486   -0.3838   -1.0369 H         1 <0>         0.0000
     25 H4          2.6701   -4.0763   -6.1595 H         1 <0>         0.0000
     26 H5          4.2003   -2.8010   -4.6602 H         1 <0>         0.0000
     27 H6          2.8570   -2.9186    2.1851 H         1 <0>         0.0000
     28 H7          0.3627   -2.3116   -2.0526 H         1 <0>         0.0000
     29 H8          1.3242   -5.9609   -5.2586 H         1 <0>         0.0000
     30 H9          3.1751   -5.4242   -1.4123 H         1 <0>         0.0000
     31 H10         2.7414   -5.6495    1.1803 H         1 <0>         0.0000
     32 H11         1.6129   -5.1557    2.4339 H         1 <0>         0.0000
     33 H12        -0.8905   -4.7909   -0.8667 H         1 <0>         0.0000
     34 H13         0.2271   -4.8016   -2.2200 H         1 <0>         0.0000
     35 H14         0.9530   -7.2686    1.0624 H         1 <0>         0.0000
     36 H15        -0.2938   -6.0149    1.1777 H         1 <0>         0.0000
     37 H16         1.4998   -7.7665   -3.2960 H         1 <0>         0.0000
@<TRIPOS>BOND
     1    1    2 3
     2    1   22 1
     3    2   11 1
     4    3    4 ar
     5    3    7 ar
     6    3   23 1
     7    4    8 ar
     8    4   24 1
     9    5    6 ar
    10    5    9 ar
    11    5   25 1
    12    6   11 ar
    13    6   26 1
    14    7   12 ar
    15    7   27 1
    16    8   13 ar
    17    8   28 1
    18    9   14 ar
    19    9   29 1
    20   10   11 ar
    21   10   14 ar
    22   10   30 1
    23   12   13 ar
    24   12   16 1
    25   13   17 1
    26   14   20 1
    27   15   19 am
    28   15   20 am
    29   15   21 2
    30   16   18 1
    31   16   31 1
    32   16   32 1
    33   17   19 1
    34   17   33 1
    35   17   34 1
    36   18   19 1
    37   18   35 1
    38   18   36 1
    39   20   37 1
