@<TRIPOS>MOLECULE
*****
   31    32     0     0     0
SMALL
NO_CHARGES

@<TRIPOS>ATOM
      1 C1          1.0859    3.0911    2.2537 C.1       1 <0>         0.0000
      2 C2          1.2342    1.8949    2.1134 C.1       1 <0>         0.0000
      3 C3          0.6657   -1.6486    1.0814 C.ar      1 <0>         0.0000
      4 C4          7.5648   -4.9815    4.0035 C.ar      1 <0>         0.0000
      5 C5          0.4694   -0.2765    1.2261 C.ar      1 <0>         0.0000
      6 C6          6.3929   -4.7025    3.3001 C.ar      1 <0>         0.0000
      7 C7          7.9063   -4.2305    5.1319 C.ar      1 <0>         0.0000
      8 C8          1.7750   -2.2933    1.6356 C.ar      1 <0>         0.0000
      9 C9          2.5258   -0.1561    2.5091 C.ar      1 <0>         0.0000
     10 C10         5.9121   -2.9111    4.8589 C.ar      1 <0>         0.0000
     11 C11         1.4096    0.4827    1.9482 C.ar      1 <0>         0.0000
     12 C12         5.5659   -3.6513    3.7169 C.ar      1 <0>         0.0000
     13 C13         7.0778   -3.1917    5.5828 C.ar      1 <0>         0.0000
     14 C14         2.7149   -1.5380    2.3587 C.ar      1 <0>         0.0000
     15 C15         4.3200   -3.3954    2.9168 C.2       1 <0>         0.0000
     16 C16         7.4169   -2.4232    6.8395 C.3       1 <0>         0.0000
     17 N1          3.8590   -2.0952    2.9666 N.am      1 <0>         0.0000
     18 O1          3.7783   -4.2858    2.2642 O.2       1 <0>         0.0000
     19 H1          0.9515    4.1451    2.3744 H         1 <0>         0.0000
     20 H2         -0.0573   -2.2376    0.5234 H         1 <0>         0.0000
     21 H3          8.2157   -5.7868    3.6729 H         1 <0>         0.0000
     22 H4         -0.3950    0.2146    0.7908 H         1 <0>         0.0000
     23 H5          6.1034   -5.2824    2.4296 H         1 <0>         0.0000
     24 H6          8.8212   -4.4582    5.6750 H         1 <0>         0.0000
     25 H7          1.9233   -3.3567    1.5122 H         1 <0>         0.0000
     26 H8          3.2466    0.4378    3.0664 H         1 <0>         0.0000
     27 H9          5.2506   -2.1304    5.2296 H         1 <0>         0.0000
     28 H10         8.4919   -2.2312    6.9104 H         1 <0>         0.0000
     29 H11         6.8985   -1.4608    6.8748 H         1 <0>         0.0000
     30 H12         7.1259   -2.9881    7.7330 H         1 <0>         0.0000
     31 H13         4.4618   -1.4289    3.4306 H         1 <0>         0.0000
@<TRIPOS>BOND
     1    1    2 3
     2    1   19 1
     3    2   11 1
     4    3    5 ar
     5    3    8 ar
     6    3   20 1
     7    4    6 ar
     8    4    7 ar
     9    4   21 1
    10    5   11 ar
    11    5   22 1
    12    6   12 ar
    13    6   23 1
    14    7   13 ar
    15    7   24 1
    16    8   14 ar
    17    8   25 1
    18    9   11 ar
    19    9   14 ar
    20    9   26 1
    21   10   12 ar
    22   10   13 ar
    23   10   27 1
    24   12   15 1
    25   13   16 1
    26   14   17 1
    27   15   17 am
    28   15   18 2
    29   16   28 1
    30   16   29 1
    31   16   30 1
    32   17   31 1
