@<TRIPOS>MOLECULE
*****
   23    23     0     0     0
SMALL
NO_CHARGES

@<TRIPOS>ATOM
      1 C1          1.7693   -1.5874   -0.0782 C.ar      1 <0>         0.0000
      2 C2          3.5154   -1.5635    1.6170 C.ar      1 <0>         0.0000
      3 C3          0.8611   -1.0176    0.8228 C.ar      1 <0>         0.0000
      4 C4          2.5979   -1.0023    2.5035 C.ar      1 <0>         0.0000
      5 C5          1.2910   -0.7264    2.1300 C.ar      1 <0>         0.0000
      6 C6          3.0891   -1.8570    0.3192 C.ar      1 <0>         0.0000
      7 C7         -3.2738   -1.3973    0.1901 C.3       1 <0>         0.0000
      8 C8         -2.4057   -0.6046   -0.7927 C.3       1 <0>         0.0000
      9 C9         -0.9397   -1.0102   -0.7619 C.3       1 <0>         0.0000
     10 O1         -0.4310   -0.7133    0.5484 O.3       1 <0>         0.0000
     11 F1          2.9860   -0.7139    3.7639 F         1 <0>         0.0000
     12 F2          0.4330   -0.1834    3.0156 F         1 <0>         0.0000
     13 S1          4.1687   -2.5667   -0.9101 S.3       1 <0>         0.0000
     14 H1          1.4554   -1.8260   -1.0873 H         1 <0>         0.0000
     15 H2          4.5271   -1.7509    1.9614 H         1 <0>         0.0000
     16 H3         -3.2348   -2.4711   -0.0270 H         1 <0>         0.0000
     17 H4         -2.9339   -1.2486    1.2185 H         1 <0>         0.0000
     18 H5         -4.3199   -1.0812    0.1280 H         1 <0>         0.0000
     19 H6         -2.4761    0.4683   -0.5811 H         1 <0>         0.0000
     20 H7         -2.7639   -0.7500   -1.8193 H         1 <0>         0.0000
     21 H8         -0.8284   -2.0849   -0.9606 H         1 <0>         0.0000
     22 H9         -0.3627   -0.4531   -1.5113 H         1 <0>         0.0000
     23 H10         5.2297   -2.7604   -0.1023 H         1 <0>         0.0000
@<TRIPOS>BOND
     1    1    3 ar
     2    1    6 ar
     3    1   14 1
     4    2    4 ar
     5    2    6 ar
     6    2   15 1
     7    3    5 ar
     8    3   10 1
     9    4    5 ar
    10    4   11 1
    11    5   12 1
    12    6   13 1
    13    7    8 1
    14    7   16 1
    15    7   17 1
    16    7   18 1
    17    8    9 1
    18    8   19 1
    19    8   20 1
    20    9   10 1
    21    9   21 1
    22    9   22 1
    23   13   23 1
