@<TRIPOS>MOLECULE
*****
   37    39     0     0     0
SMALL
NO_CHARGES

@<TRIPOS>ATOM
      1 C1          4.2561   -5.6149  -10.9430 C.1       1 <0>         0.0000
      2 C2          3.6745   -4.7506  -10.3210 C.1       1 <0>         0.0000
      3 C3          1.9230   -1.5809    0.8207 C.ar      1 <0>         0.0000
      4 C4          1.2281   -0.6846   -0.0008 C.ar      1 <0>         0.0000
      5 C5          1.8211   -1.6090   -9.5492 C.ar      1 <0>         0.0000
      6 C6          2.4870   -2.5985  -10.2715 C.ar      1 <0>         0.0000
      7 C7          2.4580   -2.7463    0.2722 C.ar      1 <0>         0.0000
      8 C8          1.0830   -0.9670   -1.3585 C.ar      1 <0>         0.0000
      9 C9          1.6527   -1.7306   -8.1708 C.ar      1 <0>         0.0000
     10 C10         2.8216   -3.8558   -8.2021 C.ar      1 <0>         0.0000
     11 C11         2.9878   -3.7242   -9.5929 C.ar      1 <0>         0.0000
     12 C12         2.3211   -3.0356   -1.0938 C.ar      1 <0>         0.0000
     13 C13         1.6293   -2.1328   -1.9137 C.ar      1 <0>         0.0000
     14 C14         2.1518   -2.8543   -7.4856 C.ar      1 <0>         0.0000
     15 C15         2.2607   -3.9132   -5.2050 C.2       1 <0>         0.0000
     16 C16         2.8799   -4.3074   -1.6887 C.3       1 <0>         0.0000
     17 C17         1.4672   -2.3562   -3.4081 C.3       1 <0>         0.0000
     18 C18         2.0677   -4.7258   -2.9104 C.3       1 <0>         0.0000
     19 N1          2.0167   -3.6247   -3.8725 N.am      1 <0>         0.0000
     20 N2          1.9518   -2.8858   -6.0901 N.am      1 <0>         0.0000
     21 O1          2.7238   -4.9939   -5.5717 O.2       1 <0>         0.0000
     22 H1          4.7681   -6.3810  -11.4854 H         1 <0>         0.0000
     23 H2          2.0385   -1.3743    1.8815 H         1 <0>         0.0000
     24 H3          0.8006    0.2236    0.4155 H         1 <0>         0.0000
     25 H4          1.4283   -0.7341  -10.0602 H         1 <0>         0.0000
     26 H5          2.6224   -2.5120  -11.3448 H         1 <0>         0.0000
     27 H6          2.9873   -3.4511    0.9102 H         1 <0>         0.0000
     28 H7          0.5398   -0.2725   -1.9976 H         1 <0>         0.0000
     29 H8          1.1316   -0.9493   -7.6200 H         1 <0>         0.0000
     30 H9          3.2008   -4.7264   -7.6870 H         1 <0>         0.0000
     31 H10         3.9245   -4.1604   -1.9902 H         1 <0>         0.0000
     32 H11         2.8681   -5.1095   -0.9429 H         1 <0>         0.0000
     33 H12         0.3976   -2.2679   -3.6626 H         1 <0>         0.0000
     34 H13         1.9938   -1.5361   -3.9108 H         1 <0>         0.0000
     35 H14         2.5147   -5.5785   -3.4179 H         1 <0>         0.0000
     36 H15         1.0474   -5.0001   -2.6055 H         1 <0>         0.0000
     37 H16         1.4479   -2.0896   -5.7295 H         1 <0>         0.0000
@<TRIPOS>BOND
     1    1    2 3
     2    1   22 1
     3    2   11 1
     4    3    4 ar
     5    3    7 ar
     6    3   23 1
     7    4    8 ar
     8    4   24 1
     9    5    6 ar
    10    5    9 ar
    11    5   25 1
    12    6   11 ar
    13    6   26 1
    14    7   12 ar
    15    7   27 1
    16    8   13 ar
    17    8   28 1
    18    9   14 ar
    19    9   29 1
    20   10   11 ar
    21   10   14 ar
    22   10   30 1
    23   12   13 ar
    24   12   16 1
    25   13   17 1
    26   14   20 1
    27   15   19 am
    28   15   20 am
    29   15   21 2
    30   16   18 1
    31   16   31 1
    32   16   32 1
    33   17   19 1
    34   17   33 1
    35   17   34 1
    36   18   19 1
    37   18   35 1
    38   18   36 1
    39   20   37 1
