@<TRIPOS>MOLECULE
*****
   31    32     0     0     0
SMALL
NO_CHARGES

@<TRIPOS>ATOM
      1 C1         -0.6516   -3.2268   -1.2228 C.1       1 <0>         0.0000
      2 C2          0.0578   -2.5875   -0.4744 C.1       1 <0>         0.0000
      3 C3          1.4463    0.2650    1.4883 C.ar      1 <0>         0.0000
      4 C4          6.8525   -3.4411    5.4771 C.ar      1 <0>         0.0000
      5 C5          0.6272   -0.4628    0.6252 C.ar      1 <0>         0.0000
      6 C6          5.7546   -3.1269    4.6726 C.ar      1 <0>         0.0000
      7 C7          7.7638   -4.4196    5.0729 C.ar      1 <0>         0.0000
      8 C8          2.5172   -0.3504    2.1340 C.ar      1 <0>         0.0000
      9 C9          1.9715   -2.4565    1.0557 C.ar      1 <0>         0.0000
     10 C10         6.4774   -4.7974    3.0740 C.ar      1 <0>         0.0000
     11 C11         0.8915   -1.8274    0.4097 C.ar      1 <0>         0.0000
     12 C12         5.5681   -3.8016    3.4563 C.ar      1 <0>         0.0000
     13 C13         7.5851   -5.1158    3.8667 C.ar      1 <0>         0.0000
     14 C14         2.7865   -1.7150    1.9222 C.ar      1 <0>         0.0000
     15 C15         4.4115   -3.5392    2.5332 C.2       1 <0>         0.0000
     16 C16         8.5465   -6.2057    3.4521 C.3       1 <0>         0.0000
     17 N1          3.8792   -2.2684    2.6214 N.am      1 <0>         0.0000
     18 O1          3.9963   -4.3981    1.7577 O.2       1 <0>         0.0000
     19 H1         -1.2729   -3.7955   -1.8815 H         1 <0>         0.0000
     20 H2          1.2516    1.3198    1.6616 H         1 <0>         0.0000
     21 H3          6.9937   -2.9271    6.4243 H         1 <0>         0.0000
     22 H4         -0.2087    0.0093    0.1188 H         1 <0>         0.0000
     23 H5          5.0345   -2.3922    5.0243 H         1 <0>         0.0000
     24 H6          8.6187   -4.6517    5.7045 H         1 <0>         0.0000
     25 H7          3.1489    0.2276    2.8061 H         1 <0>         0.0000
     26 H8          2.1766   -3.5030    0.8818 H         1 <0>         0.0000
     27 H9          6.2980   -5.3209    2.1391 H         1 <0>         0.0000
     28 H10         8.2467   -7.1698    3.8800 H         1 <0>         0.0000
     29 H11         8.5724   -6.3230    2.3653 H         1 <0>         0.0000
     30 H12         9.5630   -5.9951    3.7976 H         1 <0>         0.0000
     31 H13         4.3882   -1.6141    3.2004 H         1 <0>         0.0000
@<TRIPOS>BOND
     1    1    2 3
     2    1   19 1
     3    2   11 1
     4    3    5 ar
     5    3    8 ar
     6    3   20 1
     7    4    6 ar
     8    4    7 ar
     9    4   21 1
    10    5   11 ar
    11    5   22 1
    12    6   12 ar
    13    6   23 1
    14    7   13 ar
    15    7   24 1
    16    8   14 ar
    17    8   25 1
    18    9   11 ar
    19    9   14 ar
    20    9   26 1
    21   10   12 ar
    22   10   13 ar
    23   10   27 1
    24   12   15 1
    25   13   16 1
    26   14   17 1
    27   15   17 am
    28   15   18 2
    29   16   28 1
    30   16   29 1
    31   16   30 1
    32   17   31 1
