@<TRIPOS>MOLECULE
*****
   17    17     0     0     0
SMALL
NO_CHARGES

@<TRIPOS>ATOM
      1 C1          1.8115   -0.9891   -0.0876 C.ar      1 <0>         0.0000
      2 C2          0.6561   -0.5397    2.0439 C.ar      1 <0>         0.0000
      3 C3          0.7203   -0.5213    0.6404 C.ar      1 <0>         0.0000
      4 C4          2.8601   -1.6199    0.5745 C.ar      1 <0>         0.0000
      5 C5          1.7363   -1.1736    2.6988 C.ar      1 <0>         0.0000
      6 C6          2.8187   -1.7153    1.9768 C.ar      1 <0>         0.0000
      7 C7         -0.4684    0.0902    2.8308 C.3       1 <0>         0.0000
      8 N1         -0.3946    0.0157   -0.1655 N.pl3     1 <0>         0.0000
      9 O1         -1.5433   -0.2391    0.2088 O.3       1 <0>         0.0000
     10 O2         -0.1047    0.6544   -1.1811 O.2       1 <0>         0.0000
     11 Cl1         4.2046   -2.1745   -0.3850 Cl        1 <0>         0.0000
     12 Cl2         1.7264   -1.1954    4.4455 Cl        1 <0>         0.0000
     13 I1          4.0977   -3.2156    2.9528 I         1 <0>         0.0000
     14 H1          1.8188   -0.8903   -1.1669 H         1 <0>         0.0000
     15 H2         -1.1632   -0.6780    3.1850 H         1 <0>         0.0000
     16 H3         -0.0700    0.6064    3.7056 H         1 <0>         0.0000
     17 H4         -1.0391    0.7964    2.2320 H         1 <0>         0.0000
@<TRIPOS>BOND
     1    1    3 ar
     2    1    4 ar
     3    1   14 1
     4    2    3 ar
     5    2    5 ar
     6    2    7 1
     7    3    8 1
     8    4    6 ar
     9    4   11 1
    10    5    6 ar
    11    5   12 1
    12    6   13 1
    13    7   15 1
    14    7   16 1
    15    7   17 1
    16    8    9 1
    17    8   10 2
