@<TRIPOS>MOLECULE
*****
   31    32     0     0     0
SMALL
NO_CHARGES

@<TRIPOS>ATOM
      1 C1          0.9048    2.7395    2.0531 C.1       1 <0>         0.0000
      2 C2          1.1271    1.5628    1.8570 C.1       1 <0>         0.0000
      3 C3          0.8473   -1.9266    0.5568 C.ar      1 <0>         0.0000
      4 C4          6.8555   -3.5046    5.5650 C.ar      1 <0>         0.0000
      5 C5          0.5675   -0.5772    0.7643 C.ar      1 <0>         0.0000
      6 C6          5.7475   -3.1997    4.7709 C.ar      1 <0>         0.0000
      7 C7          7.7710   -4.4757    5.1523 C.ar      1 <0>         0.0000
      8 C8          1.9264   -2.5565    1.1827 C.ar      1 <0>         0.0000
      9 C9          2.4748   -0.4506    2.2592 C.ar      1 <0>         0.0000
     10 C10         6.4690   -4.8650    3.1659 C.ar      1 <0>         0.0000
     11 C11         1.3900    0.1736    1.6253 C.ar      1 <0>         0.0000
     12 C12         5.5551   -3.8767    3.5567 C.ar      1 <0>         0.0000
     13 C13         7.5869   -5.1736    3.9480 C.ar      1 <0>         0.0000
     14 C14         2.7484   -1.8096    2.0447 C.ar      1 <0>         0.0000
     15 C15         4.3873   -3.6237    2.6456 C.2       1 <0>         0.0000
     16 C16         8.5537   -6.2551    3.5239 C.3       1 <0>         0.0000
     17 N1          3.8515   -2.3548    2.7342 N.am      1 <0>         0.0000
     18 O1          3.9669   -4.4886    1.8789 O.2       1 <0>         0.0000
     19 H1          0.7058    3.7764    2.2228 H         1 <0>         0.0000
     20 H2          0.2152   -2.5089   -0.1084 H         1 <0>         0.0000
     21 H3          7.0014   -2.9890    6.5105 H         1 <0>         0.0000
     22 H4         -0.2725   -0.0973    0.2723 H         1 <0>         0.0000
     23 H5          5.0248   -2.4706    5.1288 H         1 <0>         0.0000
     24 H6          8.6340   -4.7002    5.7757 H         1 <0>         0.0000
     25 H7          2.1407   -3.6017    1.0103 H         1 <0>         0.0000
     26 H8          3.1046    0.1366    2.9237 H         1 <0>         0.0000
     27 H9          6.2853   -5.3904    2.2329 H         1 <0>         0.0000
     28 H10         8.2600   -7.2240    3.9453 H         1 <0>         0.0000
     29 H11         8.5783   -6.3644    2.4362 H         1 <0>         0.0000
     30 H12         9.5696   -6.0412    3.8690 H         1 <0>         0.0000
     31 H13         4.3644   -1.6963    3.3051 H         1 <0>         0.0000
@<TRIPOS>BOND
     1    1    2 3
     2    1   19 1
     3    2   11 1
     4    3    5 ar
     5    3    8 ar
     6    3   20 1
     7    4    6 ar
     8    4    7 ar
     9    4   21 1
    10    5   11 ar
    11    5   22 1
    12    6   12 ar
    13    6   23 1
    14    7   13 ar
    15    7   24 1
    16    8   14 ar
    17    8   25 1
    18    9   11 ar
    19    9   14 ar
    20    9   26 1
    21   10   12 ar
    22   10   13 ar
    23   10   27 1
    24   12   15 1
    25   13   16 1
    26   14   17 1
    27   15   17 am
    28   15   18 2
    29   16   28 1
    30   16   29 1
    31   16   30 1
    32   17   31 1
