@<TRIPOS>MOLECULE
*****
   20    20     0     0     0
SMALL
NO_CHARGES

@<TRIPOS>ATOM
      1 C1          5.7920    1.2730    0.8220 C.ar      1 <0>         0.0000
      2 C2          4.5770    1.8780    0.5370 C.ar      1 <0>         0.0000
      3 C3          5.9100   -0.0990    0.6580 C.ar      1 <0>         0.0000
      4 C4          3.7300   -0.1680    0.0140 C.ar      1 <0>         0.0000
      5 C5          1.6080   -1.1720    0.4220 C.2       1 <0>         0.0000
      6 C6          0.4200   -1.9540   -0.0820 C.3       1 <0>         0.0000
      7 C7          2.7450   -1.4850   -1.7890 C.3       1 <0>         0.0000
      8 N1          3.5540    1.1520    0.1230 N.ar      1 <0>         0.0000
      9 N2          4.8780   -0.8120    0.2440 N.ar      1 <0>         0.0000
     10 N3          2.6630   -0.9260   -0.4320 N.am      1 <0>         0.0000
     11 O1          1.6470   -0.7830    1.5700 O.2       1 <0>         0.0000
     12 H1          6.6140    1.8490    1.1570 H         1 <0>         0.0000
     13 H2          4.4500    2.9260    0.6440 H         1 <0>         0.0000
     14 H3          6.8260   -0.5950    0.8590 H         1 <0>         0.0000
     15 H4         -0.2850   -2.0170    0.7350 H         1 <0>         0.0000
     16 H5          0.7760   -2.9310   -0.3710 H         1 <0>         0.0000
     17 H6          0.0080   -1.4080   -0.9170 H         1 <0>         0.0000
     18 H7          1.8780   -1.1490   -2.3410 H         1 <0>         0.0000
     19 H8          2.7770   -2.5620   -1.6980 H         1 <0>         0.0000
     20 H9          3.6520   -1.1180   -2.2530 H         1 <0>         0.0000
@<TRIPOS>BOND
     1    1    2 ar
     2    1    3 ar
     3    1   12 1
     4    2    8 ar
     5    2   13 1
     6    3    9 ar
     7    3   14 1
     8    4    8 ar
     9    4    9 ar
    10    4   10 1
    11    5    6 1
    12    5   10 am
    13    5   11 2
    14    6   15 1
    15    6   16 1
    16    6   17 1
    17    7   10 1
    18    7   18 1
    19    7   19 1
    20    7   20 1
