@<TRIPOS>MOLECULE
*****
   48    51     0     0     0
SMALL
NO_CHARGES

@<TRIPOS>ATOM
      1 C1          5.2515   -2.9639   -0.0264 C.ar      1 <0>         0.0000
      2 C2          6.3772   -2.1624    1.9500 C.ar      1 <0>         0.0000
      3 C3          3.3633   -1.9438    2.8869 C.ar      1 <0>         0.0000
      4 C4          3.2391   -0.7839    0.7704 C.ar      1 <0>         0.0000
      5 C5          6.4412   -3.5120   -0.4991 C.ar      1 <0>         0.0000
      6 C6          7.5856   -2.6723    1.4690 C.ar      1 <0>         0.0000
      7 C7          2.1117   -1.4357    3.2439 C.ar      1 <0>         0.0000
      8 C8          2.0040   -0.2481    1.1287 C.ar      1 <0>         0.0000
      9 C9          7.1105   -1.8963   -3.4813 C.ar      1 <0>         0.0000
     10 C10         7.5450   -0.4884   -1.5502 C.ar      1 <0>         0.0000
     11 C11        -0.1443   -1.3359   -1.3212 C.ar      1 <0>         0.0000
     12 C12         0.3715   -3.0881    0.2779 C.ar      1 <0>         0.0000
     13 C13         5.8419   -1.3285   -3.6130 C.ar      1 <0>         0.0000
     14 C14         6.2803    0.0884   -1.6831 C.ar      1 <0>         0.0000
     15 C15         0.8179   -1.8409   -2.1967 C.ar      1 <0>         0.0000
     16 C16         1.3396   -3.5912   -0.5937 C.ar      1 <0>         0.0000
     17 C17         5.2007   -2.2704    1.1937 C.ar      1 <0>         0.0000
     18 C18         3.9262   -1.6530    1.6338 C.ar      1 <0>         0.0000
     19 C19         7.6123   -3.3231    0.2351 C.ar      1 <0>         0.0000
     20 C20         1.4326   -0.6129    2.3463 C.ar      1 <0>         0.0000
     21 C21         7.9427   -1.4864   -2.4387 C.ar      1 <0>         0.0000
     22 C22        -0.3484   -1.9487   -0.0833 C.ar      1 <0>         0.0000
     23 C23         5.4366   -0.3467   -2.7067 C.ar      1 <0>         0.0000
     24 C24         1.5616   -2.9594   -1.8186 C.ar      1 <0>         0.0000
     25 O1          8.8861   -3.7204   -0.2092 O.3       1 <0>         0.0000
     26 O2          0.1293   -0.1633    2.6296 O.3       1 <0>         0.0000
     27 O3          9.2020   -2.0732   -2.2399 O.3       1 <0>         0.0000
     28 O4         -1.2999   -1.3288    0.7400 O.3       1 <0>         0.0000
     29 S1          9.1905   -3.7197   -1.8612 S.3       1 <0>         0.0000
     30 S2         -1.0674   -1.3294    2.4086 S.3       1 <0>         0.0000
     31 Cl1         3.8269    0.3468   -2.8540 Cl        1 <0>         0.0000
     32 Cl2         2.8072   -3.5742   -2.8992 Cl        1 <0>         0.0000
     33 H1          4.3500   -3.0727   -0.6194 H         1 <0>         0.0000
     34 H2          6.3613   -1.6277    2.8962 H         1 <0>         0.0000
     35 H3          3.8860   -2.6115    3.5669 H         1 <0>         0.0000
     36 H4          3.6646   -0.5387   -0.1966 H         1 <0>         0.0000
     37 H5          6.4627   -4.0290   -1.4514 H         1 <0>         0.0000
     38 H6          8.5132   -2.5418    2.0181 H         1 <0>         0.0000
     39 H7          1.6492   -1.6987    4.1909 H         1 <0>         0.0000
     40 H8          1.4602    0.4069    0.4565 H         1 <0>         0.0000
     41 H9          7.4394   -2.6717   -4.1665 H         1 <0>         0.0000
     42 H10         8.2069   -0.1998   -0.7403 H         1 <0>         0.0000
     43 H11        -0.7192   -0.4503   -1.5741 H         1 <0>         0.0000
     44 H12         0.2178   -3.5527    1.2455 H         1 <0>         0.0000
     45 H13         5.1728   -1.6491   -4.4044 H         1 <0>         0.0000
     46 H14         5.9490    0.8500   -0.9848 H         1 <0>         0.0000
     47 H15         1.0020   -1.3586   -3.1508 H         1 <0>         0.0000
     48 H16         1.9217   -4.4635   -0.3146 H         1 <0>         0.0000
@<TRIPOS>BOND
     1    1    5 ar
     2    1   17 ar
     3    1   33 1
     4    2    6 ar
     5    2   17 ar
     6    2   34 1
     7    3    7 ar
     8    3   18 ar
     9    3   35 1
    10    4    8 ar
    11    4   18 ar
    12    4   36 1
    13    5   19 ar
    14    5   37 1
    15    6   19 ar
    16    6   38 1
    17    7   20 ar
    18    7   39 1
    19    8   20 ar
    20    8   40 1
    21    9   13 ar
    22    9   21 ar
    23    9   41 1
    24   10   14 ar
    25   10   21 ar
    26   10   42 1
    27   11   15 ar
    28   11   22 ar
    29   11   43 1
    30   12   16 ar
    31   12   22 ar
    32   12   44 1
    33   13   23 ar
    34   13   45 1
    35   14   23 ar
    36   14   46 1
    37   15   24 ar
    38   15   47 1
    39   16   24 ar
    40   16   48 1
    41   17   18 1
    42   19   25 1
    43   20   26 1
    44   21   27 1
    45   22   28 1
    46   23   31 1
    47   24   32 1
    48   25   29 1
    49   26   30 1
    50   27   29 1
    51   28   30 1
