@<TRIPOS>MOLECULE
*****
   48    51     0     0     0
SMALL
NO_CHARGES

@<TRIPOS>ATOM
      1 C1          4.9215   -2.1881   -1.6593 C.ar      1 <0>         0.0000
      2 C2          5.2452   -3.6204    0.2516 C.ar      1 <0>         0.0000
      3 C3          2.4528   -2.7426    1.0288 C.ar      1 <0>         0.0000
      4 C4          3.1137   -0.5791    0.1955 C.ar      1 <0>         0.0000
      5 C5          5.9612   -2.8371   -2.3259 C.ar      1 <0>         0.0000
      6 C6          6.2967   -4.2661   -0.3950 C.ar      1 <0>         0.0000
      7 C7          1.3320   -2.1801    1.6425 C.ar      1 <0>         0.0000
      8 C8          2.0048    0.0007    0.8099 C.ar      1 <0>         0.0000
      9 C9          4.9700   -7.5333   -1.1831 C.ar      1 <0>         0.0000
     10 C10         4.0680   -5.7556   -2.5702 C.ar      1 <0>         0.0000
     11 C11        -3.9986   -1.7049    3.0098 C.ar      1 <0>         0.0000
     12 C12        -2.7700   -1.5076    0.9209 C.ar      1 <0>         0.0000
     13 C13         3.8491   -7.4560   -0.3538 C.ar      1 <0>         0.0000
     14 C14         2.9476   -5.6717   -1.7417 C.ar      1 <0>         0.0000
     15 C15        -5.1952   -1.4603    2.3322 C.ar      1 <0>         0.0000
     16 C16        -3.9647   -1.2591    0.2413 C.ar      1 <0>         0.0000
     17 C17         4.5252   -2.5854   -0.3715 C.ar      1 <0>         0.0000
     18 C18         3.3605   -1.9598    0.2960 C.ar      1 <0>         0.0000
     19 C19         6.6252   -3.8903   -1.6982 C.ar      1 <0>         0.0000
     20 C20         1.1215   -0.8044    1.5328 C.ar      1 <0>         0.0000
     21 C21         5.0770   -6.6712   -2.2747 C.ar      1 <0>         0.0000
     22 C22        -2.7983   -1.7276    2.2993 C.ar      1 <0>         0.0000
     23 C23         2.8530   -6.5183   -0.6356 C.ar      1 <0>         0.0000
     24 C24        -5.1663   -1.2371    0.9533 C.ar      1 <0>         0.0000
     25 O1          7.5952   -4.5486   -2.4726 O.3       1 <0>         0.0000
     26 O2          0.0042   -0.1495    2.0672 O.3       1 <0>         0.0000
     27 O3          6.2073   -6.6947   -3.1072 O.3       1 <0>         0.0000
     28 O4         -1.6083   -2.0291    2.9704 O.3       1 <0>         0.0000
     29 S1          7.6567   -6.2269   -2.3777 S.3       1 <0>         0.0000
     30 S2         -0.6810   -0.7102    3.4881 S.3       1 <0>         0.0000
     31 Cl1         1.4569   -6.4007    0.4270 Cl        1 <0>         0.0000
     32 Cl2        -6.6689   -0.9262    0.0992 Cl        1 <0>         0.0000
     33 H1          4.3749   -1.4011   -2.1716 H         1 <0>         0.0000
     34 H2          4.9828   -3.9224    1.2614 H         1 <0>         0.0000
     35 H3          2.5948   -3.8170    1.0893 H         1 <0>         0.0000
     36 H4          3.8134    0.0558   -0.3411 H         1 <0>         0.0000
     37 H5          6.2360   -2.5698   -3.3419 H         1 <0>         0.0000
     38 H6          6.8238   -5.0808    0.0895 H         1 <0>         0.0000
     39 H7          0.6271   -2.8078    2.1762 H         1 <0>         0.0000
     40 H8          1.8188    1.0689    0.7484 H         1 <0>         0.0000
     41 H9          5.7623   -8.2453   -0.9731 H         1 <0>         0.0000
     42 H10         4.1827   -5.0900   -3.4189 H         1 <0>         0.0000
     43 H11        -3.9920   -1.8817    4.0812 H         1 <0>         0.0000
     44 H12        -1.8234   -1.5326    0.3911 H         1 <0>         0.0000
     45 H13         3.7513   -8.1149    0.5031 H         1 <0>         0.0000
     46 H14         2.1693   -4.9427   -1.9415 H         1 <0>         0.0000
     47 H15        -6.1391   -1.4427    2.8675 H         1 <0>         0.0000
     48 H16        -3.9631   -1.0856   -0.8300 H         1 <0>         0.0000
@<TRIPOS>BOND
     1    1    5 ar
     2    1   17 ar
     3    1   33 1
     4    2    6 ar
     5    2   17 ar
     6    2   34 1
     7    3    7 ar
     8    3   18 ar
     9    3   35 1
    10    4    8 ar
    11    4   18 ar
    12    4   36 1
    13    5   19 ar
    14    5   37 1
    15    6   19 ar
    16    6   38 1
    17    7   20 ar
    18    7   39 1
    19    8   20 ar
    20    8   40 1
    21    9   13 ar
    22    9   21 ar
    23    9   41 1
    24   10   14 ar
    25   10   21 ar
    26   10   42 1
    27   11   15 ar
    28   11   22 ar
    29   11   43 1
    30   12   16 ar
    31   12   22 ar
    32   12   44 1
    33   13   23 ar
    34   13   45 1
    35   14   23 ar
    36   14   46 1
    37   15   24 ar
    38   15   47 1
    39   16   24 ar
    40   16   48 1
    41   17   18 1
    42   19   25 1
    43   20   26 1
    44   21   27 1
    45   22   28 1
    46   23   31 1
    47   24   32 1
    48   25   29 1
    49   26   30 1
    50   27   29 1
    51   28   30 1
