@<TRIPOS>MOLECULE
*****
   48    51     0     0     0
SMALL
NO_CHARGES

@<TRIPOS>ATOM
      1 C1          4.1212   -3.6437   -0.9545 C.ar      1 <0>         0.0000
      2 C2          5.6874   -1.9339   -0.2919 C.ar      1 <0>         0.0000
      3 C3          3.5084   -1.0427    1.6204 C.ar      1 <0>         0.0000
      4 C4          1.9909   -1.6336   -0.1564 C.ar      1 <0>         0.0000
      5 C5          5.1467   -4.3398   -1.5961 C.ar      1 <0>         0.0000
      6 C6          6.7202   -2.6153   -0.9349 C.ar      1 <0>         0.0000
      7 C7          2.4916   -0.3473    2.2767 C.ar      1 <0>         0.0000
      8 C8          0.9654   -0.9364    0.4816 C.ar      1 <0>         0.0000
      9 C9          6.7232   -7.8202   -0.7534 C.ar      1 <0>         0.0000
     10 C10         8.9550   -8.1400   -1.6592 C.ar      1 <0>         0.0000
     11 C11         0.3693    1.3376    6.8869 C.ar      1 <0>         0.0000
     12 C12        -1.0533    0.1534    5.3103 C.ar      1 <0>         0.0000
     13 C13         6.3509   -9.0853   -1.2152 C.ar      1 <0>         0.0000
     14 C14         8.5837   -9.4011   -2.1288 C.ar      1 <0>         0.0000
     15 C15        -0.4513    0.9310    7.9406 C.ar      1 <0>         0.0000
     16 C16        -1.8793   -0.2450    6.3648 C.ar      1 <0>         0.0000
     17 C17         4.3715   -2.4318   -0.2881 C.ar      1 <0>         0.0000
     18 C18         3.2821   -1.6969    0.3971 C.ar      1 <0>         0.0000
     19 C19         6.4396   -3.8177   -1.5843 C.ar      1 <0>         0.0000
     20 C20         1.2244   -0.2950    1.6936 C.ar      1 <0>         0.0000
     21 C21         8.0211   -7.3607   -0.9750 C.ar      1 <0>         0.0000
     22 C22         0.0621    0.9487    5.5817 C.ar      1 <0>         0.0000
     23 C23         7.2843   -9.8635   -1.9025 C.ar      1 <0>         0.0000
     24 C24        -1.5734    0.1446    7.6699 C.ar      1 <0>         0.0000
     25 O1          7.4112   -4.5325   -2.2995 O.3       1 <0>         0.0000
     26 O2          0.1327    0.3410    2.3008 O.3       1 <0>         0.0000
     27 O3          8.3563   -6.1129   -0.4364 O.3       1 <0>         0.0000
     28 O4          0.9660    1.3533    4.5926 O.3       1 <0>         0.0000
     29 S1          8.8455   -4.9148   -1.5145 S.3       1 <0>         0.0000
     30 S2          0.3760    1.8060    3.0842 S.3       1 <0>         0.0000
     31 Cl1         6.8190  -11.4507   -2.4933 Cl        1 <0>         0.0000
     32 Cl2        -2.6122   -0.3648    8.9916 Cl        1 <0>         0.0000
     33 H1          3.1207   -4.0670   -0.9434 H         1 <0>         0.0000
     34 H2          5.9012   -0.9821    0.1862 H         1 <0>         0.0000
     35 H3          4.4861   -1.1072    2.0896 H         1 <0>         0.0000
     36 H4          1.7930   -2.1026   -1.1161 H         1 <0>         0.0000
     37 H5          4.9618   -5.2821   -2.1033 H         1 <0>         0.0000
     38 H6          7.7306   -2.2178   -0.9371 H         1 <0>         0.0000
     39 H7          2.6767    0.1287    3.2335 H         1 <0>         0.0000
     40 H8         -0.0276   -0.8705    0.0469 H         1 <0>         0.0000
     41 H9          6.0210   -7.1884   -0.2183 H         1 <0>         0.0000
     42 H10         9.9593   -7.7632   -1.8275 H         1 <0>         0.0000
     43 H11         1.2439    1.9553    7.0668 H         1 <0>         0.0000
     44 H12        -1.2731   -0.1607    4.2960 H         1 <0>         0.0000
     45 H13         5.3459   -9.4595   -1.0483 H         1 <0>         0.0000
     46 H14         9.2974  -10.0221   -2.6607 H         1 <0>         0.0000
     47 H15        -0.2256    1.2291    8.9594 H         1 <0>         0.0000
     48 H16        -2.7498   -0.8637    6.1717 H         1 <0>         0.0000
@<TRIPOS>BOND
     1    1    5 ar
     2    1   17 ar
     3    1   33 1
     4    2    6 ar
     5    2   17 ar
     6    2   34 1
     7    3    7 ar
     8    3   18 ar
     9    3   35 1
    10    4    8 ar
    11    4   18 ar
    12    4   36 1
    13    5   19 ar
    14    5   37 1
    15    6   19 ar
    16    6   38 1
    17    7   20 ar
    18    7   39 1
    19    8   20 ar
    20    8   40 1
    21    9   13 ar
    22    9   21 ar
    23    9   41 1
    24   10   14 ar
    25   10   21 ar
    26   10   42 1
    27   11   15 ar
    28   11   22 ar
    29   11   43 1
    30   12   16 ar
    31   12   22 ar
    32   12   44 1
    33   13   23 ar
    34   13   45 1
    35   14   23 ar
    36   14   46 1
    37   15   24 ar
    38   15   47 1
    39   16   24 ar
    40   16   48 1
    41   17   18 1
    42   19   25 1
    43   20   26 1
    44   21   27 1
    45   22   28 1
    46   23   31 1
    47   24   32 1
    48   25   29 1
    49   26   30 1
    50   27   29 1
    51   28   30 1
