@<TRIPOS>MOLECULE
*****
   48    51     0     0     0
SMALL
NO_CHARGES

@<TRIPOS>ATOM
      1 C1          5.1761   -4.4476   -1.5124 C.ar      1 <0>         0.0000
      2 C2          6.1666   -3.6166    0.5203 C.ar      1 <0>         0.0000
      3 C3          3.3155   -3.0658    1.4025 C.ar      1 <0>         0.0000
      4 C4          2.9546   -2.4783   -0.9059 C.ar      1 <0>         0.0000
      5 C5          6.4142   -4.9478   -1.9161 C.ar      1 <0>         0.0000
      6 C6          7.4053   -4.1270    0.1383 C.ar      1 <0>         0.0000
      7 C7          2.1224   -2.4357    1.7535 C.ar      1 <0>         0.0000
      8 C8          1.7619   -1.8357   -0.5721 C.ar      1 <0>         0.0000
      9 C9          7.5714   -1.7971   -2.4534 C.ar      1 <0>         0.0000
     10 C10         9.1258   -1.1949   -0.6883 C.ar      1 <0>         0.0000
     11 C11        -1.7819    2.0372   -1.6229 C.ar      1 <0>         0.0000
     12 C12        -0.8264    1.8547    0.6057 C.ar      1 <0>         0.0000
     13 C13         6.6033   -0.9646   -1.8907 C.ar      1 <0>         0.0000
     14 C14         8.1601   -0.3583   -0.1236 C.ar      1 <0>         0.0000
     15 C15        -2.0186    3.3975   -1.4154 C.ar      1 <0>         0.0000
     16 C16        -1.0724    3.2142    0.8158 C.ar      1 <0>         0.0000
     17 C17         5.0358   -3.7416   -0.3056 C.ar      1 <0>         0.0000
     18 C18         3.7535   -3.1022    0.0673 C.ar      1 <0>         0.0000
     19 C19         7.5298   -4.7530   -1.1023 C.ar      1 <0>         0.0000
     20 C20         1.3533   -1.8244    0.7624 C.ar      1 <0>         0.0000
     21 C21         8.8129   -1.9280   -1.8329 C.ar      1 <0>         0.0000
     22 C22        -1.1903    1.2769   -0.6126 C.ar      1 <0>         0.0000
     23 C23         6.8994   -0.2665   -0.7187 C.ar      1 <0>         0.0000
     24 C24        -1.6646    3.9749   -0.1940 C.ar      1 <0>         0.0000
     25 O1          8.7601   -5.1808   -1.6315 O.3       1 <0>         0.0000
     26 O2          0.1997   -1.1583    1.1989 O.3       1 <0>         0.0000
     27 O3          9.7240   -2.8435   -2.3867 O.3       1 <0>         0.0000
     28 O4         -0.9350   -0.0642   -0.9210 O.3       1 <0>         0.0000
     29 S1         10.0894   -4.1717   -1.4095 S.3       1 <0>         0.0000
     30 S2         -1.1904   -1.2343    0.2607 S.3       1 <0>         0.0000
     31 Cl1         5.6563    0.7195    0.0307 Cl        1 <0>         0.0000
     32 Cl2        -1.9654    5.6849    0.0732 Cl        1 <0>         0.0000
     33 H1          4.3104   -4.5995   -2.1509 H         1 <0>         0.0000
     34 H2          6.0926   -3.0616    1.4507 H         1 <0>         0.0000
     35 H3          3.8973   -3.5626    2.1737 H         1 <0>         0.0000
     36 H4          3.2871   -2.4604   -1.9401 H         1 <0>         0.0000
     37 H5          6.5358   -5.4570   -2.8675 H         1 <0>         0.0000
     38 H6          8.2783   -3.9732    0.7632 H         1 <0>         0.0000
     39 H7          1.7742   -2.4191    2.7820 H         1 <0>         0.0000
     40 H8          1.1734   -1.3327   -1.3316 H         1 <0>         0.0000
     41 H9          7.3554   -2.3827   -3.3405 H         1 <0>         0.0000
     42 H10        10.1020   -1.3007   -0.2249 H         1 <0>         0.0000
     43 H11        -2.0531    1.5599   -2.5596 H         1 <0>         0.0000
     44 H12        -0.3500    1.2595    1.3769 H         1 <0>         0.0000
     45 H13         5.6191   -0.8822   -2.3394 H         1 <0>         0.0000
     46 H14         8.3795    0.2059    0.7772 H         1 <0>         0.0000
     47 H15        -2.4804    3.9998   -2.1911 H         1 <0>         0.0000
     48 H16        -0.7949    3.6796    1.7562 H         1 <0>         0.0000
@<TRIPOS>BOND
     1    1    5 ar
     2    1   17 ar
     3    1   33 1
     4    2    6 ar
     5    2   17 ar
     6    2   34 1
     7    3    7 ar
     8    3   18 ar
     9    3   35 1
    10    4    8 ar
    11    4   18 ar
    12    4   36 1
    13    5   19 ar
    14    5   37 1
    15    6   19 ar
    16    6   38 1
    17    7   20 ar
    18    7   39 1
    19    8   20 ar
    20    8   40 1
    21    9   13 ar
    22    9   21 ar
    23    9   41 1
    24   10   14 ar
    25   10   21 ar
    26   10   42 1
    27   11   15 ar
    28   11   22 ar
    29   11   43 1
    30   12   16 ar
    31   12   22 ar
    32   12   44 1
    33   13   23 ar
    34   13   45 1
    35   14   23 ar
    36   14   46 1
    37   15   24 ar
    38   15   47 1
    39   16   24 ar
    40   16   48 1
    41   17   18 1
    42   19   25 1
    43   20   26 1
    44   21   27 1
    45   22   28 1
    46   23   31 1
    47   24   32 1
    48   25   29 1
    49   26   30 1
    50   27   29 1
    51   28   30 1
