@<TRIPOS>MOLECULE
*****
   48    51     0     0     0
SMALL
NO_CHARGES

@<TRIPOS>ATOM
      1 C1          3.8693   -2.9355   -1.1675 C.ar      1 <0>         0.0000
      2 C2          5.1480   -2.1323    0.7118 C.ar      1 <0>         0.0000
      3 C3          2.4534   -1.8284    2.0779 C.ar      1 <0>         0.0000
      4 C4          1.6651   -1.1435   -0.0950 C.ar      1 <0>         0.0000
      5 C5          5.0290   -3.4387   -1.7569 C.ar      1 <0>         0.0000
      6 C6          6.3174   -2.6240    0.1306 C.ar      1 <0>         0.0000
      7 C7          1.2909   -1.3333    2.6689 C.ar      1 <0>         0.0000
      8 C8          0.5006   -0.6371    0.4833 C.ar      1 <0>         0.0000
      9 C9          9.2395   -0.6560   -1.5104 C.ar      1 <0>         0.0000
     10 C10        10.6126   -1.8433   -3.1259 C.ar      1 <0>         0.0000
     11 C11        -0.5457    3.0680    1.0161 C.ar      1 <0>         0.0000
     12 C12        -2.1558    3.5341    2.7755 C.ar      1 <0>         0.0000
     13 C13        10.3903   -0.1647   -0.8886 C.ar      1 <0>         0.0000
     14 C14        11.7646   -1.3598   -2.5028 C.ar      1 <0>         0.0000
     15 C15        -1.2639    3.8843    0.1384 C.ar      1 <0>         0.0000
     16 C16        -2.8795    4.3448    1.8991 C.ar      1 <0>         0.0000
     17 C17         3.9038   -2.2745    0.0737 C.ar      1 <0>         0.0000
     18 C18         2.6644   -1.7445    0.6897 C.ar      1 <0>         0.0000
     19 C19         6.2489   -3.2779   -1.0996 C.ar      1 <0>         0.0000
     20 C20         0.3199   -0.7391    1.8626 C.ar      1 <0>         0.0000
     21 C21         9.3603   -1.4856   -2.6247 C.ar      1 <0>         0.0000
     22 C22        -0.9945    2.9043    2.3262 C.ar      1 <0>         0.0000
     23 C23        11.6432   -0.5239   -1.3892 C.ar      1 <0>         0.0000
     24 C24        -2.4266    4.5133    0.5876 C.ar      1 <0>         0.0000
     25 O1          7.4562   -3.7956   -1.5907 O.3       1 <0>         0.0000
     26 O2         -0.9006   -0.2610    2.3611 O.3       1 <0>         0.0000
     27 O3          8.1783   -1.9015   -3.2485 O.3       1 <0>         0.0000
     28 O4         -0.2077    2.1266    3.1838 O.3       1 <0>         0.0000
     29 S1          7.8336   -3.5507   -3.2076 S.3       1 <0>         0.0000
     30 S2         -0.8841    0.6886    3.7449 S.3       1 <0>         0.0000
     31 Cl1        13.0929    0.0850   -0.6068 Cl        1 <0>         0.0000
     32 Cl2        -3.3368    5.5344   -0.5139 Cl        1 <0>         0.0000
     33 H1          2.9163   -3.0890   -1.6662 H         1 <0>         0.0000
     34 H2          5.2102   -1.6009    1.6574 H         1 <0>         0.0000
     35 H3          3.1942   -2.3183    2.7036 H         1 <0>         0.0000
     36 H4          1.8127   -1.0383   -1.1662 H         1 <0>         0.0000
     37 H5          4.9870   -3.9515   -2.7127 H         1 <0>         0.0000
     38 H6          7.2831   -2.5068    0.6131 H         1 <0>         0.0000
     39 H7          1.1389   -1.4096    3.7410 H         1 <0>         0.0000
     40 H8         -0.2696   -0.1612   -0.1163 H         1 <0>         0.0000
     41 H9          8.2501   -0.3994   -1.1443 H         1 <0>         0.0000
     42 H10        10.6852   -2.4952   -3.9913 H         1 <0>         0.0000
     43 H11         0.3603    2.5614    0.6980 H         1 <0>         0.0000
     44 H12        -2.4915    3.3891    3.7980 H         1 <0>         0.0000
     45 H13        10.3148    0.4849   -0.0224 H         1 <0>         0.0000
     46 H14        12.7471   -1.6245   -2.8802 H         1 <0>         0.0000
     47 H15        -0.9272    4.0258   -0.8837 H         1 <0>         0.0000
     48 H16        -3.7833    4.8455    2.2313 H         1 <0>         0.0000
@<TRIPOS>BOND
     1    1    5 ar
     2    1   17 ar
     3    1   33 1
     4    2    6 ar
     5    2   17 ar
     6    2   34 1
     7    3    7 ar
     8    3   18 ar
     9    3   35 1
    10    4    8 ar
    11    4   18 ar
    12    4   36 1
    13    5   19 ar
    14    5   37 1
    15    6   19 ar
    16    6   38 1
    17    7   20 ar
    18    7   39 1
    19    8   20 ar
    20    8   40 1
    21    9   13 ar
    22    9   21 ar
    23    9   41 1
    24   10   14 ar
    25   10   21 ar
    26   10   42 1
    27   11   15 ar
    28   11   22 ar
    29   11   43 1
    30   12   16 ar
    31   12   22 ar
    32   12   44 1
    33   13   23 ar
    34   13   45 1
    35   14   23 ar
    36   14   46 1
    37   15   24 ar
    38   15   47 1
    39   16   24 ar
    40   16   48 1
    41   17   18 1
    42   19   25 1
    43   20   26 1
    44   21   27 1
    45   22   28 1
    46   23   31 1
    47   24   32 1
    48   25   29 1
    49   26   30 1
    50   27   29 1
    51   28   30 1
