@<TRIPOS>MOLECULE
*****
   48    51     0     0     0
SMALL
NO_CHARGES

@<TRIPOS>ATOM
      1 C1          5.0497   -1.5317   -1.3854 C.ar      1 <0>         0.0000
      2 C2          5.1630   -3.3209    0.2311 C.ar      1 <0>         0.0000
      3 C3          3.4258   -1.4984    1.9202 C.ar      1 <0>         0.0000
      4 C4          2.3023   -1.0000   -0.1587 C.ar      1 <0>         0.0000
      5 C5          6.1696   -2.0434   -2.0415 C.ar      1 <0>         0.0000
      6 C6          6.2787   -3.8452   -0.4194 C.ar      1 <0>         0.0000
      7 C7          2.3720   -0.9251    2.6327 C.ar      1 <0>         0.0000
      8 C8          1.2438   -0.4226    0.5427 C.ar      1 <0>         0.0000
      9 C9          8.9193   -3.4092    1.9161 C.ar      1 <0>         0.0000
     10 C10         8.3152   -1.3623    0.7592 C.ar      1 <0>         0.0000
     11 C11         0.2440   -2.4898    5.4060 C.ar      1 <0>         0.0000
     12 C12        -1.7148   -1.0867    5.7156 C.ar      1 <0>         0.0000
     13 C13         8.1424   -3.0259    3.0108 C.ar      1 <0>         0.0000
     14 C14         7.5252   -0.9846    1.8464 C.ar      1 <0>         0.0000
     15 C15         0.4655   -2.4924    6.7853 C.ar      1 <0>         0.0000
     16 C16        -1.4906   -1.0809    7.0938 C.ar      1 <0>         0.0000
     17 C17         4.5433   -2.1453   -0.2261 C.ar      1 <0>         0.0000
     18 C18         3.4078   -1.5485    0.5159 C.ar      1 <0>         0.0000
     19 C19         6.7908   -3.1837   -1.5341 C.ar      1 <0>         0.0000
     20 C20         1.2898   -0.3889    1.9367 C.ar      1 <0>         0.0000
     21 C21         8.9897   -2.5837    0.7926 C.ar      1 <0>         0.0000
     22 C22        -0.8445   -1.7916    4.8829 C.ar      1 <0>         0.0000
     23 C23         7.4400   -1.8208    2.9610 C.ar      1 <0>         0.0000
     24 C24        -0.4027   -1.7839    7.6179 C.ar      1 <0>         0.0000
     25 O1          7.9772   -3.6764   -2.1064 O.3       1 <0>         0.0000
     26 O2          0.2823    0.2296    2.6907 O.3       1 <0>         0.0000
     27 O3          9.7632   -3.0851   -0.2652 O.3       1 <0>         0.0000
     28 O4         -1.0361   -1.8851    3.4992 O.3       1 <0>         0.0000
     29 S1          9.3315   -2.7068   -1.8474 S.3       1 <0>         0.0000
     30 S2         -1.2504   -0.4588    2.6325 S.3       1 <0>         0.0000
     31 Cl1         6.4283   -1.3523    4.3219 Cl        1 <0>         0.0000
     32 Cl2        -0.1232   -1.7742    9.3520 Cl        1 <0>         0.0000
     33 H1          4.5904   -0.6182   -1.7530 H         1 <0>         0.0000
     34 H2          4.7725   -3.8277    1.1087 H         1 <0>         0.0000
     35 H3          4.2824   -1.8848    2.4633 H         1 <0>         0.0000
     36 H4          2.2584   -1.0457   -1.2434 H         1 <0>         0.0000
     37 H5          6.5834   -1.5444   -2.9130 H         1 <0>         0.0000
     38 H6          6.7791   -4.7353   -0.0522 H         1 <0>         0.0000
     39 H7          2.3865   -0.8699    3.7170 H         1 <0>         0.0000
     40 H8          0.3851   -0.0128    0.0189 H         1 <0>         0.0000
     41 H9          9.4558   -4.3530    1.9142 H         1 <0>         0.0000
     42 H10         8.3642   -0.7300   -0.1199 H         1 <0>         0.0000
     43 H11         0.9023   -3.0274    4.7307 H         1 <0>         0.0000
     44 H12        -2.5528   -0.5410    5.2935 H         1 <0>         0.0000
     45 H13         8.0731   -3.6646    3.8856 H         1 <0>         0.0000
     46 H14         6.9730   -0.0509    1.8206 H         1 <0>         0.0000
     47 H15         1.3074   -3.0324    7.2068 H         1 <0>         0.0000
     48 H16        -2.1584   -0.5391    7.7559 H         1 <0>         0.0000
@<TRIPOS>BOND
     1    1    5 ar
     2    1   17 ar
     3    1   33 1
     4    2    6 ar
     5    2   17 ar
     6    2   34 1
     7    3    7 ar
     8    3   18 ar
     9    3   35 1
    10    4    8 ar
    11    4   18 ar
    12    4   36 1
    13    5   19 ar
    14    5   37 1
    15    6   19 ar
    16    6   38 1
    17    7   20 ar
    18    7   39 1
    19    8   20 ar
    20    8   40 1
    21    9   13 ar
    22    9   21 ar
    23    9   41 1
    24   10   14 ar
    25   10   21 ar
    26   10   42 1
    27   11   15 ar
    28   11   22 ar
    29   11   43 1
    30   12   16 ar
    31   12   22 ar
    32   12   44 1
    33   13   23 ar
    34   13   45 1
    35   14   23 ar
    36   14   46 1
    37   15   24 ar
    38   15   47 1
    39   16   24 ar
    40   16   48 1
    41   17   18 1
    42   19   25 1
    43   20   26 1
    44   21   27 1
    45   22   28 1
    46   23   31 1
    47   24   32 1
    48   25   29 1
    49   26   30 1
    50   27   29 1
    51   28   30 1
