@<TRIPOS>MOLECULE
*****
   48    51     0     0     0
SMALL
NO_CHARGES

@<TRIPOS>ATOM
      1 C1          4.5228   -0.1073   -1.4800 C.ar      1 <0>         0.0000
      2 C2          5.1946   -2.0747   -0.2613 C.ar      1 <0>         0.0000
      3 C3          2.9566   -1.3409    1.6514 C.ar      1 <0>         0.0000
      4 C4          1.7674   -0.6547   -0.3312 C.ar      1 <0>         0.0000
      5 C5          5.7124   -0.1453   -2.2067 C.ar      1 <0>         0.0000
      6 C6          6.3867   -2.1329   -0.9849 C.ar      1 <0>         0.0000
      7 C7          1.7729   -1.3020    2.3879 C.ar      1 <0>         0.0000
      8 C8          0.5774   -0.6022    0.3960 C.ar      1 <0>         0.0000
      9 C9          9.1852   -3.5324   -4.4751 C.ar      1 <0>         0.0000
     10 C10        10.3333   -5.1055   -3.0192 C.ar      1 <0>         0.0000
     11 C11        -1.6576    2.4634    1.2595 C.ar      1 <0>         0.0000
     12 C12        -3.1240    2.0755    3.1573 C.ar      1 <0>         0.0000
     13 C13         9.5292   -4.3147   -5.5809 C.ar      1 <0>         0.0000
     14 C14        10.6681   -5.8911   -4.1236 C.ar      1 <0>         0.0000
     15 C15        -2.7289    2.9928    0.5352 C.ar      1 <0>         0.0000
     16 C16        -4.1982    2.5963    2.4333 C.ar      1 <0>         0.0000
     17 C17         4.2420   -1.0673   -0.4917 C.ar      1 <0>         0.0000
     18 C18         2.9784   -1.0199    0.2818 C.ar      1 <0>         0.0000
     19 C19         6.6380   -1.1580   -1.9518 C.ar      1 <0>         0.0000
     20 C20         0.5885   -0.9312    1.7509 C.ar      1 <0>         0.0000
     21 C21         9.5977   -3.9331   -3.2025 C.ar      1 <0>         0.0000
     22 C22        -1.8624    2.0144    2.5638 C.ar      1 <0>         0.0000
     23 C23        10.2659   -5.4864   -5.3985 C.ar      1 <0>         0.0000
     24 C24        -3.9915    3.0513    1.1281 C.ar      1 <0>         0.0000
     25 O1          7.7850   -1.1639   -2.7576 O.3       1 <0>         0.0000
     26 O2         -0.6491   -0.9222    2.4104 O.3       1 <0>         0.0000
     27 O3          9.2581   -3.2342   -2.0383 O.3       1 <0>         0.0000
     28 O4         -0.7393    1.5536    3.2606 O.3       1 <0>         0.0000
     29 S1          9.2641   -1.5527   -2.0642 S.3       1 <0>         0.0000
     30 S2         -0.7779   -0.0317    3.8282 S.3       1 <0>         0.0000
     31 Cl1        10.6900   -6.4685   -6.7917 Cl        1 <0>         0.0000
     32 Cl2        -5.3437    3.7078    0.2195 Cl        1 <0>         0.0000
     33 H1          3.8204    0.7018   -1.6595 H         1 <0>         0.0000
     34 H2          4.9876   -2.8510    0.4700 H         1 <0>         0.0000
     35 H3          3.8827   -1.6029    2.1553 H         1 <0>         0.0000
     36 H4          1.7486   -0.4304   -1.3940 H         1 <0>         0.0000
     37 H5          5.9392    0.6054   -2.9579 H         1 <0>         0.0000
     38 H6          7.0986   -2.9331   -0.8134 H         1 <0>         0.0000
     39 H7          1.7704   -1.5388    3.4475 H         1 <0>         0.0000
     40 H8         -0.3630   -0.3298   -0.0739 H         1 <0>         0.0000
     41 H9          8.5971   -2.6308   -4.6058 H         1 <0>         0.0000
     42 H10        10.6389   -5.3916   -2.0175 H         1 <0>         0.0000
     43 H11        -0.6637    2.4000    0.8272 H         1 <0>         0.0000
     44 H12        -3.2666    1.7152    4.1715 H         1 <0>         0.0000
     45 H13         9.2162   -4.0184   -6.5769 H         1 <0>         0.0000
     46 H14        11.2423   -6.8031   -3.9956 H         1 <0>         0.0000
     47 H15        -2.5857    3.3497   -0.4797 H         1 <0>         0.0000
     48 H16        -5.1857    2.6540    2.8797 H         1 <0>         0.0000
@<TRIPOS>BOND
     1    1    5 ar
     2    1   17 ar
     3    1   33 1
     4    2    6 ar
     5    2   17 ar
     6    2   34 1
     7    3    7 ar
     8    3   18 ar
     9    3   35 1
    10    4    8 ar
    11    4   18 ar
    12    4   36 1
    13    5   19 ar
    14    5   37 1
    15    6   19 ar
    16    6   38 1
    17    7   20 ar
    18    7   39 1
    19    8   20 ar
    20    8   40 1
    21    9   13 ar
    22    9   21 ar
    23    9   41 1
    24   10   14 ar
    25   10   21 ar
    26   10   42 1
    27   11   15 ar
    28   11   22 ar
    29   11   43 1
    30   12   16 ar
    31   12   22 ar
    32   12   44 1
    33   13   23 ar
    34   13   45 1
    35   14   23 ar
    36   14   46 1
    37   15   24 ar
    38   15   47 1
    39   16   24 ar
    40   16   48 1
    41   17   18 1
    42   19   25 1
    43   20   26 1
    44   21   27 1
    45   22   28 1
    46   23   31 1
    47   24   32 1
    48   25   29 1
    49   26   30 1
    50   27   29 1
    51   28   30 1
