@<TRIPOS>MOLECULE
*****
    8     7     0     0     0
SMALL
NO_CHARGES

@<TRIPOS>ATOM
      1 C1          0.4143    0.3104   -2.0495 C.1       1 <0>         0.0000
      2 C2          0.7536   -0.3940   -0.7978 C.3       1 <0>         0.0000
      3 N1          1.7211   -3.1231   -2.4770 N.1       1 <0>         0.0000
      4 N2          0.1601    0.8433   -3.0508 N.1       1 <0>         0.0000
      5 N3          0.5153   -1.8489   -0.8595 N.2       1 <0>         0.0000
      6 N4          1.1814   -2.4510   -1.7274 N.1       1 <0>         0.0000
      7 H1          1.7941   -0.1643   -0.5376 H         1 <0>         0.0000
      8 H2          0.1156   -0.0204    0.0045 H         1 <0>         0.0000
@<TRIPOS>BOND
     1    1    2 1
     2    1    4 3
     3    2    5 1
     4    2    7 1
     5    2    8 1
     6    3    6 2
     7    5    6 2
