@<TRIPOS>MOLECULE
*****
   48    51     0     0     0
SMALL
NO_CHARGES

@<TRIPOS>ATOM
      1 C1          3.9778   -2.9849   -0.5218 C.ar      1 <0>         0.0000
      2 C2          5.4356   -2.3328    1.2903 C.ar      1 <0>         0.0000
      3 C3          2.8306   -1.5442    2.6784 C.ar      1 <0>         0.0000
      4 C4          2.2202   -0.7265    0.4910 C.ar      1 <0>         0.0000
      5 C5          5.0320   -3.6590   -1.1377 C.ar      1 <0>         0.0000
      6 C6          6.4970   -3.0016    0.6822 C.ar      1 <0>         0.0000
      7 C7          1.7612   -0.8499    3.2441 C.ar      1 <0>         0.0000
      8 C8          1.1531   -0.0221    1.0451 C.ar      1 <0>         0.0000
      9 C9          8.4177   -0.3378   -0.3736 C.ar      1 <0>         0.0000
     10 C10         6.5845   -0.6788   -1.9265 C.ar      1 <0>         0.0000
     11 C11        -1.7391   -1.5970   -0.2519 C.ar      1 <0>         0.0000
     12 C12        -0.6852   -2.8560    1.5364 C.ar      1 <0>         0.0000
     13 C13         7.6741    0.6354    0.2975 C.ar      1 <0>         0.0000
     14 C14         5.8345    0.2810   -1.2466 C.ar      1 <0>         0.0000
     15 C15        -1.0875   -2.3878   -1.2000 C.ar      1 <0>         0.0000
     16 C16        -0.0203   -3.6374    0.5900 C.ar      1 <0>         0.0000
     17 C17         4.1686   -2.2902    0.6861 C.ar      1 <0>         0.0000
     18 C18         3.0633   -1.5142    1.2926 C.ar      1 <0>         0.0000
     19 C19         6.2934   -3.6322   -0.5436 C.ar      1 <0>         0.0000
     20 C20         0.9161   -0.1132    2.4153 C.ar      1 <0>         0.0000
     21 C21         7.8595   -1.0066   -1.4635 C.ar      1 <0>         0.0000
     22 C22        -1.5221   -1.8244    1.1081 C.ar      1 <0>         0.0000
     23 C23         6.3762    0.9206   -0.1301 C.ar      1 <0>         0.0000
     24 C24        -0.2204   -3.3932   -0.7698 C.ar      1 <0>         0.0000
     25 O1          7.4150   -4.1946   -1.1802 O.3       1 <0>         0.0000
     26 O2         -0.2242    0.5282    2.9320 O.3       1 <0>         0.0000
     27 O3          8.6520   -2.0236   -2.0212 O.3       1 <0>         0.0000
     28 O4         -2.1865   -0.9416    1.9722 O.3       1 <0>         0.0000
     29 S1          7.8830   -3.4079   -2.5965 S.3       1 <0>         0.0000
     30 S2         -1.4512   -0.5154    3.4260 S.3       1 <0>         0.0000
     31 Cl1         5.3994    2.0774    0.7576 Cl        1 <0>         0.0000
     32 Cl2         0.6390   -4.3617   -1.9613 Cl        1 <0>         0.0000
     33 H1          2.9941   -3.0085   -0.9806 H         1 <0>         0.0000
     34 H2          5.6116   -1.7830    2.2104 H         1 <0>         0.0000
     35 H3          3.4693   -2.1493    3.3160 H         1 <0>         0.0000
     36 H4          2.3981   -0.6678   -0.5788 H         1 <0>         0.0000
     37 H5          4.8864   -4.1763   -2.0815 H         1 <0>         0.0000
     38 H6          7.4927   -2.9886    1.1133 H         1 <0>         0.0000
     39 H7          1.5601   -0.9050    4.3101 H         1 <0>         0.0000
     40 H8          0.4829    0.5662    0.4269 H         1 <0>         0.0000
     41 H9          9.4145   -0.6088   -0.0393 H         1 <0>         0.0000
     42 H10         6.1554   -1.2034   -2.7726 H         1 <0>         0.0000
     43 H11        -2.3972   -0.7886   -0.5550 H         1 <0>         0.0000
     44 H12        -0.5119   -3.0215    2.5936 H         1 <0>         0.0000
     45 H13         8.0899    1.1463    1.1601 H         1 <0>         0.0000
     46 H14         4.8280    0.5194   -1.5741 H         1 <0>         0.0000
     47 H15        -1.2403   -2.2127   -2.2601 H         1 <0>         0.0000
     48 H16         0.6568   -4.4226    0.9102 H         1 <0>         0.0000
@<TRIPOS>BOND
     1    1    5 ar
     2    1   17 ar
     3    1   33 1
     4    2    6 ar
     5    2   17 ar
     6    2   34 1
     7    3    7 ar
     8    3   18 ar
     9    3   35 1
    10    4    8 ar
    11    4   18 ar
    12    4   36 1
    13    5   19 ar
    14    5   37 1
    15    6   19 ar
    16    6   38 1
    17    7   20 ar
    18    7   39 1
    19    8   20 ar
    20    8   40 1
    21    9   13 ar
    22    9   21 ar
    23    9   41 1
    24   10   14 ar
    25   10   21 ar
    26   10   42 1
    27   11   15 ar
    28   11   22 ar
    29   11   43 1
    30   12   16 ar
    31   12   22 ar
    32   12   44 1
    33   13   23 ar
    34   13   45 1
    35   14   23 ar
    36   14   46 1
    37   15   24 ar
    38   15   47 1
    39   16   24 ar
    40   16   48 1
    41   17   18 1
    42   19   25 1
    43   20   26 1
    44   21   27 1
    45   22   28 1
    46   23   31 1
    47   24   32 1
    48   25   29 1
    49   26   30 1
    50   27   29 1
    51   28   30 1
