@<TRIPOS>MOLECULE
*****
   48    51     0     0     0
SMALL
NO_CHARGES

@<TRIPOS>ATOM
      1 C1          3.6324   -4.1042   -1.5926 C.ar      1 <0>         0.0000
      2 C2          5.0765   -4.0285    0.3390 C.ar      1 <0>         0.0000
      3 C3          2.6288   -3.3063    1.9353 C.ar      1 <0>         0.0000
      4 C4          1.9698   -2.1138   -0.0565 C.ar      1 <0>         0.0000
      5 C5          4.6952   -4.5447   -2.3804 C.ar      1 <0>         0.0000
      6 C6          6.1443   -4.4756   -0.4363 C.ar      1 <0>         0.0000
      7 C7          1.7521   -2.5359    2.6967 C.ar      1 <0>         0.0000
      8 C8          1.0936   -1.3316    0.6945 C.ar      1 <0>         0.0000
      9 C9          7.7145   -1.4739   -0.3218 C.ar      1 <0>         0.0000
     10 C10         6.0217   -1.3411   -2.0535 C.ar      1 <0>         0.0000
     11 C11         1.9339    3.1658    1.2442 C.ar      1 <0>         0.0000
     12 C12        -0.2849    2.2599    1.6529 C.ar      1 <0>         0.0000
     13 C13         6.8684   -0.8024    0.5633 C.ar      1 <0>         0.0000
     14 C14         5.1727   -0.6777   -1.1659 C.ar      1 <0>         0.0000
     15 C15         1.3978    4.0892    0.3474 C.ar      1 <0>         0.0000
     16 C16        -0.8208    3.1907    0.7566 C.ar      1 <0>         0.0000
     17 C17         3.8166   -3.7882   -0.2337 C.ar      1 <0>         0.0000
     18 C18         2.7702   -3.0954    0.5514 C.ar      1 <0>         0.0000
     19 C19         5.9579   -4.6756   -1.8019 C.ar      1 <0>         0.0000
     20 C20         1.0031   -1.5409    2.0685 C.ar      1 <0>         0.0000
     21 C21         7.2757   -1.7661   -1.6145 C.ar      1 <0>         0.0000
     22 C22         1.0896    2.2621    1.8960 C.ar      1 <0>         0.0000
     23 C23         5.5896   -0.4291    0.1428 C.ar      1 <0>         0.0000
     24 C24         0.0204    4.0962    0.1106 C.ar      1 <0>         0.0000
     25 O1          7.0995   -4.9208   -2.5849 O.3       1 <0>         0.0000
     26 O2          0.1324   -0.7130    2.7915 O.3       1 <0>         0.0000
     27 O3          8.1719   -2.5098   -2.4033 O.3       1 <0>         0.0000
     28 O4          1.7411    1.3583    2.7399 O.3       1 <0>         0.0000
     29 S1          7.5590   -3.5975   -3.5325 S.3       1 <0>         0.0000
     30 S2          0.8770    0.4107    3.8142 S.3       1 <0>         0.0000
     31 Cl1         4.4766    0.3223    1.2727 Cl        1 <0>         0.0000
     32 Cl2        -0.6579    5.2555   -1.0227 Cl        1 <0>         0.0000
     33 H1          2.6520   -3.9827   -2.0447 H         1 <0>         0.0000
     34 H2          5.2530   -3.7724    1.3790 H         1 <0>         0.0000
     35 H3          3.2091   -4.0847    2.4224 H         1 <0>         0.0000
     36 H4          2.0787   -1.9136   -1.1181 H         1 <0>         0.0000
     37 H5          4.5636   -4.7371   -3.4412 H         1 <0>         0.0000
     38 H6          7.1388   -4.5835   -0.0157 H         1 <0>         0.0000
     39 H7          1.6586   -2.6885    3.7680 H         1 <0>         0.0000
     40 H8          0.5110   -0.5375    0.2375 H         1 <0>         0.0000
     41 H9          8.6991   -1.8069   -0.0083 H         1 <0>         0.0000
     42 H10         5.6855   -1.5673   -3.0590 H         1 <0>         0.0000
     43 H11         3.0006    3.1323    1.4412 H         1 <0>         0.0000
     44 H12        -0.9349    1.5447    2.1433 H         1 <0>         0.0000
     45 H13         7.1908   -0.5955    1.5789 H         1 <0>         0.0000
     46 H14         4.1830   -0.3696   -1.4857 H         1 <0>         0.0000
     47 H15         2.0438    4.7971   -0.1618 H         1 <0>         0.0000
     48 H16        -1.8878    3.2013    0.5581 H         1 <0>         0.0000
@<TRIPOS>BOND
     1    1    5 ar
     2    1   17 ar
     3    1   33 1
     4    2    6 ar
     5    2   17 ar
     6    2   34 1
     7    3    7 ar
     8    3   18 ar
     9    3   35 1
    10    4    8 ar
    11    4   18 ar
    12    4   36 1
    13    5   19 ar
    14    5   37 1
    15    6   19 ar
    16    6   38 1
    17    7   20 ar
    18    7   39 1
    19    8   20 ar
    20    8   40 1
    21    9   13 ar
    22    9   21 ar
    23    9   41 1
    24   10   14 ar
    25   10   21 ar
    26   10   42 1
    27   11   15 ar
    28   11   22 ar
    29   11   43 1
    30   12   16 ar
    31   12   22 ar
    32   12   44 1
    33   13   23 ar
    34   13   45 1
    35   14   23 ar
    36   14   46 1
    37   15   24 ar
    38   15   47 1
    39   16   24 ar
    40   16   48 1
    41   17   18 1
    42   19   25 1
    43   20   26 1
    44   21   27 1
    45   22   28 1
    46   23   31 1
    47   24   32 1
    48   25   29 1
    49   26   30 1
    50   27   29 1
    51   28   30 1
