@<TRIPOS>MOLECULE
*****
   48    50     0     0     0
SMALL
NO_CHARGES

@<TRIPOS>ATOM
      1 C1         -3.6722    1.6970   -0.5481 C.ar      1 <0>         0.0000
      2 C2          3.2297    1.7681    0.2419 C.ar      1 <0>         0.0000
      3 C3         -2.4655    1.3621   -1.1629 C.ar      1 <0>         0.0000
      4 C4          2.0564    1.6039   -0.5008 C.ar      1 <0>         0.0000
      5 C5         -2.9795    0.5059    1.4117 C.ar      1 <0>         0.0000
      6 C6          1.7586   -0.6029    0.4830 C.ar      1 <0>         0.0000
      7 C7         -1.7658    0.1449    0.8128 C.ar      1 <0>         0.0000
      8 C8         -3.9494    1.2759    0.7577 C.ar      1 <0>         0.0000
      9 C9          3.6784    0.7710    1.1037 C.ar      1 <0>         0.0000
     10 C10         2.9338   -0.4230    1.2316 C.ar      1 <0>         0.0000
     11 C11         1.3250    0.4253   -0.3801 C.ar      1 <0>         0.0000
     12 C12        -1.5040    0.5872   -0.5000 C.ar      1 <0>         0.0000
     13 C13         0.9692   -1.8830    0.4879 C.2       1 <0>         0.0000
     14 C14         8.3684    1.0497    1.6759 C.2       1 <0>         0.0000
     15 C15         7.3835    0.2075    2.0295 C.2       1 <0>         0.0000
     16 C16        -0.7893   -0.6490    1.6488 C.3       1 <0>         0.0000
     17 C17        -5.2627    1.6065    1.4270 C.3       1 <0>         0.0000
     18 C18         7.4667   -0.6569    3.2634 C.3       1 <0>         0.0000
     19 C19         2.6407   -2.2614    2.8179 C.3       1 <0>         0.0000
     20 C20         6.1054    0.1111    1.2295 C.3       1 <0>         0.0000
     21 C21         4.9630    0.9306    1.8853 C.3       1 <0>         0.0000
     22 O1          1.4035   -2.9326    0.0681 O.2       1 <0>         0.0000
     23 O2         -0.2925   -1.8372    0.9960 O.3       1 <0>         0.0000
     24 O3          5.2976    2.3165    1.9351 O.3       1 <0>         0.0000
     25 O4          3.4678   -1.3328    2.1055 O.3       1 <0>         0.0000
     26 S1         -0.0688    0.1374   -1.4770 S.3       1 <0>         0.0000
     27 H1         -4.3978    2.3003   -1.0895 H         1 <0>         0.0000
     28 H2          3.8051    2.6845    0.1716 H         1 <0>         0.0000
     29 H3         -2.2568    1.7130   -2.1698 H         1 <0>         0.0000
     30 H4          1.7151    2.3790   -1.1794 H         1 <0>         0.0000
     31 H5         -3.1792    0.1638    2.4260 H         1 <0>         0.0000
     32 H6          8.3070    1.6454    0.7675 H         1 <0>         0.0000
     33 H7          9.2787    1.1424    2.2642 H         1 <0>         0.0000
     34 H8          0.0456   -0.0204    1.9678 H         1 <0>         0.0000
     35 H9         -1.2964   -1.0148    2.5439 H         1 <0>         0.0000
     36 H10        -6.0103    0.8299    1.2250 H         1 <0>         0.0000
     37 H11        -5.1523    1.6810    2.5129 H         1 <0>         0.0000
     38 H12        -5.6682    2.5545    1.0617 H         1 <0>         0.0000
     39 H13         6.6175   -0.4776    3.9336 H         1 <0>         0.0000
     40 H14         8.3889   -0.4808    3.8233 H         1 <0>         0.0000
     41 H15         7.4265   -1.7174    2.9865 H         1 <0>         0.0000
     42 H16         3.2004   -2.5189    3.7192 H         1 <0>         0.0000
     43 H17         2.4530   -3.1591    2.2270 H         1 <0>         0.0000
     44 H18         1.6906   -1.7999    3.1081 H         1 <0>         0.0000
     45 H19         5.7812   -0.9309    1.1531 H         1 <0>         0.0000
     46 H20         6.2522    0.4988    0.2167 H         1 <0>         0.0000
     47 H21         4.7971    0.5506    2.9017 H         1 <0>         0.0000
     48 H22         6.2283    2.3727    2.2148 H         1 <0>         0.0000
@<TRIPOS>BOND
     1    1    3 ar
     2    1    8 ar
     3    1   27 1
     4    2    4 ar
     5    2    9 ar
     6    2   28 1
     7    3   12 ar
     8    3   29 1
     9    4   11 ar
    10    4   30 1
    11    5    7 ar
    12    5    8 ar
    13    5   31 1
    14    6   10 ar
    15    6   11 ar
    16    6   13 1
    17    7   12 ar
    18    7   16 1
    19    8   17 1
    20    9   10 ar
    21    9   21 1
    22   10   25 1
    23   11   26 1
    24   12   26 1
    25   13   22 2
    26   13   23 1
    27   14   15 2
    28   14   32 1
    29   14   33 1
    30   15   18 1
    31   15   20 1
    32   16   23 1
    33   16   34 1
    34   16   35 1
    35   17   36 1
    36   17   37 1
    37   17   38 1
    38   18   39 1
    39   18   40 1
    40   18   41 1
    41   19   25 1
    42   19   42 1
    43   19   43 1
    44   19   44 1
    45   20   21 1
    46   20   45 1
    47   20   46 1
    48   21   24 1
    49   21   47 1
    50   24   48 1
