@<TRIPOS>MOLECULE
*****
   53    55     0     0     0
SMALL
NO_CHARGES

@<TRIPOS>ATOM
      1 C1         -2.7691   -1.1292   -1.3064 C.2       1 <0>         0.0000
      2 C2         -1.7470   -0.1281   -1.1016 C.2       1 <0>         0.0000
      3 C3         -0.6473   -0.6465   -0.4737 C.2       1 <0>         0.0000
      4 C4         -4.0536   -0.9657   -1.9639 C.2       1 <0>         0.0000
      5 C5         -2.4168   -2.3758   -0.8281 C.2       1 <0>         0.0000
      6 C6         -4.4567   -3.4145   -1.5807 C.2       1 <0>         0.0000
      7 C7          2.0686    1.5541   -1.4848 C.2       1 <0>         0.0000
      8 C8          2.8024    0.1224   -3.1863 C.3       1 <0>         0.0000
      9 C9          2.0816   -0.7080   -2.1064 C.3       1 <0>         0.0000
     10 C10        -1.8700    1.3042   -1.5432 C.3       1 <0>         0.0000
     11 C11        -7.2576   -2.2595   -5.0647 C.3       1 <0>         0.0000
     12 C12        -4.8754   -1.3984   -5.0793 C.3       1 <0>         0.0000
     13 C13        -4.7020   -4.0781    2.9327 C.3       1 <0>         0.0000
     14 C14         0.6476    0.0417   -0.1358 C.3       1 <0>         0.0000
     15 C15        -2.8929   -4.7284   -0.2098 C.3       1 <0>         0.0000
     16 C16        -6.0370   -2.0938   -2.8923 C.3       1 <0>         0.0000
     17 C17        -3.0900   -4.6215    1.3000 C.3       1 <0>         0.0000
     18 C18        -5.8832   -2.3208   -4.4052 C.3       1 <0>         0.0000
     19 N1         -4.7760   -2.1692   -2.1431 N.am      1 <0>         0.0000
     20 N2         -3.2228   -3.4849   -0.9148 N.am      1 <0>         0.0000
     21 N3          3.0369    1.3817   -2.4752 N.am      1 <0>         0.0000
     22 N4          1.4382    0.3324   -1.3181 N.am      1 <0>         0.0000
     23 O1         -4.5037    0.1022   -2.3770 O.2       1 <0>         0.0000
     24 O2         -5.1950   -4.3826   -1.6637 O.2       1 <0>         0.0000
     25 O3          1.8235    2.5888   -0.8744 O.2       1 <0>         0.0000
     26 O4         -4.4389   -4.2860    1.5537 O.3       1 <0>         0.0000
     27 F1         -5.3951   -3.6438   -4.5861 F         1 <0>         0.0000
     28 S1         -0.8271   -2.3680   -0.1234 S.3       1 <0>         0.0000
     29 H1          3.7380   -0.3406   -3.5093 H         1 <0>         0.0000
     30 H2          2.1527    0.2620   -4.0609 H         1 <0>         0.0000
     31 H3          1.3504   -1.4020   -2.5296 H         1 <0>         0.0000
     32 H4          2.7969   -1.2806   -1.4959 H         1 <0>         0.0000
     33 H5         -2.7618    1.7645   -1.1101 H         1 <0>         0.0000
     34 H6         -0.9901    1.8861   -1.2634 H         1 <0>         0.0000
     35 H7         -1.9935    1.3593   -2.6291 H         1 <0>         0.0000
     36 H8         -7.9424   -2.9726   -4.5964 H         1 <0>         0.0000
     37 H9         -7.1716   -2.5092   -6.1257 H         1 <0>         0.0000
     38 H10        -7.6830   -1.2549   -4.9790 H         1 <0>         0.0000
     39 H11        -3.8778   -1.5462   -4.6589 H         1 <0>         0.0000
     40 H12        -5.1510   -0.3509   -4.9416 H         1 <0>         0.0000
     41 H13        -4.8331   -1.6268   -6.1483 H         1 <0>         0.0000
     42 H14        -5.7580   -3.8145    3.0194 H         1 <0>         0.0000
     43 H15        -4.0900   -3.2584    3.3382 H         1 <0>         0.0000
     44 H16        -4.5083   -4.9878    3.5206 H         1 <0>         0.0000
     45 H17         0.4582    1.0021    0.3501 H         1 <0>         0.0000
     46 H18         1.2292   -0.5683    0.5717 H         1 <0>         0.0000
     47 H19        -1.8541   -4.9973   -0.4309 H         1 <0>         0.0000
     48 H20        -3.5476   -5.4979   -0.6154 H         1 <0>         0.0000
     49 H21        -6.7037   -2.8545   -2.4888 H         1 <0>         0.0000
     50 H22        -6.4585   -1.1028   -2.7223 H         1 <0>         0.0000
     51 H23        -2.4194   -3.8649    1.7344 H         1 <0>         0.0000
     52 H24        -2.8296   -5.5936    1.7509 H         1 <0>         0.0000
     53 H25         3.2711    2.2181   -2.9960 H         1 <0>         0.0000
@<TRIPOS>BOND
     1    1    2 1
     2    1    5 2
     3    1    4 1
     4    2    3 2
     5    2   10 1
     6    3   14 1
     7    3   28 1
     8    4   19 am
     9    4   23 2
    10    5   20 1
    11    5   28 1
    12    6   20 am
    13    6   19 am
    14    6   24 2
    15    7   21 am
    16    7   22 am
    17    7   25 2
    18    8    9 1
    19    8   21 1
    20    8   29 1
    21    8   30 1
    22    9   22 1
    23    9   31 1
    24    9   32 1
    25   10   33 1
    26   10   34 1
    27   10   35 1
    28   11   18 1
    29   11   36 1
    30   11   37 1
    31   11   38 1
    32   12   18 1
    33   12   39 1
    34   12   40 1
    35   12   41 1
    36   13   26 1
    37   13   42 1
    38   13   43 1
    39   13   44 1
    40   14   22 1
    41   14   45 1
    42   14   46 1
    43   15   17 1
    44   15   20 1
    45   15   47 1
    46   15   48 1
    47   16   18 1
    48   16   19 1
    49   16   49 1
    50   16   50 1
    51   17   26 1
    52   17   51 1
    53   17   52 1
    54   18   27 1
    55   21   53 1
