@<TRIPOS>MOLECULE
*****
   64    69     0     0     0
SMALL
NO_CHARGES

@<TRIPOS>ATOM
      1 C1          1.3233   -2.9463   -8.4518 C.ar      1 <0>         0.0000
      2 C2          0.9458   -2.1761   -7.3469 C.ar      1 <0>         0.0000
      3 C3          1.5190   -4.3242   -8.2998 C.ar      1 <0>         0.0000
      4 C4          0.7619   -2.7804   -6.1005 C.ar      1 <0>         0.0000
      5 C5          1.3479   -4.9264   -7.0527 C.ar      1 <0>         0.0000
      6 C6         -1.1696   -8.0531   -4.5545 C.ar      1 <0>         0.0000
      7 C7         -1.5637   -6.2598   -6.1220 C.ar      1 <0>         0.0000
      8 C8         -2.0459   -8.8658   -5.2671 C.ar      1 <0>         0.0000
      9 C9         -2.4372   -7.0842   -6.8358 C.ar      1 <0>         0.0000
     10 C10         2.9193   -3.2486   -2.0370 C.2       1 <0>         0.0000
     11 C11         2.3864   -3.3995   -3.2839 C.2       1 <0>         0.0000
     12 C12        -0.9029   -6.7371   -4.9792 C.ar      1 <0>         0.0000
     13 C13         0.9616   -4.1633   -5.9361 C.ar      1 <0>         0.0000
     14 C14        -2.6842   -8.4002   -6.4286 C.ar      1 <0>         0.0000
     15 C15         0.0313   -5.9079   -4.2033 C.2       1 <0>         0.0000
     16 C16         0.7744   -4.8071   -4.6284 C.2       1 <0>         0.0000
     17 C17         2.4815   -4.1478   -1.0098 C.2       1 <0>         0.0000
     18 C18         1.1028   -5.2649   -2.4377 C.2       1 <0>         0.0000
     19 C19         3.6800   -1.8878    2.7601 C.2       1 <0>         0.0000
     20 C20         2.8309   -0.6355    2.9700 C.3       1 <0>         0.0000
     21 C21         1.5172   -1.1617    3.5685 C.3       1 <0>         0.0000
     22 C22        -3.8561  -10.4620   -9.0182 C.3       1 <0>         0.0000
     23 C23        -3.0576  -10.6659   -7.7020 C.3       1 <0>         0.0000
     24 C24        -4.0178   -8.9615   -8.6476 C.3       1 <0>         0.0000
     25 C25         1.4433   -2.6146    3.0576 C.3       1 <0>         0.0000
     26 C26        -3.6357   -9.3153   -7.1671 C.3       1 <0>         0.0000
     27 C27         3.2757   -4.3177    2.5460 C.3       1 <0>         0.0000
     28 C28         2.6432   -4.8403    1.2623 C.3       1 <0>         0.0000
     29 N1          0.2489   -6.1765   -2.8653 N.2       1 <0>         0.0000
     30 N2          1.6212   -5.1193   -1.1964 N.2       1 <0>         0.0000
     31 N3          1.4590   -4.3836   -3.4879 N.pl3     1 <0>         0.0000
     32 N4          2.8474   -2.9761    2.8874 N.am      1 <0>         0.0000
     33 N5         -4.7785   -9.5949   -6.2791 N.3       1 <0>         0.0000
     34 O1          4.8800   -1.9285    2.5129 O.2       1 <0>         0.0000
     35 O2          3.0259   -3.9391    0.2073 O.3       1 <0>         0.0000
     36 H1          1.4617   -2.4779   -9.4226 H         1 <0>         0.0000
     37 H2          0.7816   -1.1073   -7.4576 H         1 <0>         0.0000
     38 H3          1.8133   -4.9295   -9.1534 H         1 <0>         0.0000
     39 H4          0.4317   -2.1822   -5.2546 H         1 <0>         0.0000
     40 H5          1.5027   -5.9948   -6.9342 H         1 <0>         0.0000
     41 H6         -0.6834   -8.4168   -3.6547 H         1 <0>         0.0000
     42 H7         -1.4114   -5.2374   -6.4513 H         1 <0>         0.0000
     43 H8         -2.2548   -9.8742   -4.9202 H         1 <0>         0.0000
     44 H9         -2.9374   -6.6838   -7.7134 H         1 <0>         0.0000
     45 H10         3.6580   -2.4868   -1.8208 H         1 <0>         0.0000
     46 H11         2.6579   -2.7870   -4.1358 H         1 <0>         0.0000
     47 H12         3.3599    0.0840    3.5977 H         1 <0>         0.0000
     48 H13         2.6801   -0.1711    1.9884 H         1 <0>         0.0000
     49 H14         1.5771   -1.1617    4.6610 H         1 <0>         0.0000
     50 H15         0.6390   -0.5805    3.2781 H         1 <0>         0.0000
     51 H16        -4.8072  -11.0035   -9.0201 H         1 <0>         0.0000
     52 H17        -3.3357  -10.6829   -9.9537 H         1 <0>         0.0000
     53 H18        -3.2827  -11.5459   -7.0926 H         1 <0>         0.0000
     54 H19        -1.9779  -10.6054   -7.8612 H         1 <0>         0.0000
     55 H20        -3.2570   -8.3522   -9.1434 H         1 <0>         0.0000
     56 H21        -4.9979   -8.4974   -8.7986 H         1 <0>         0.0000
     57 H22         0.9518   -3.2898    3.7668 H         1 <0>         0.0000
     58 H23         0.9017   -2.6767    2.1029 H         1 <0>         0.0000
     59 H24         3.0223   -5.0125    3.3578 H         1 <0>         0.0000
     60 H25         4.3630   -4.2848    2.4462 H         1 <0>         0.0000
     61 H26         1.5526   -4.8882    1.3237 H         1 <0>         0.0000
     62 H27         3.0059   -5.8485    1.0368 H         1 <0>         0.0000
     63 H28        -5.4605  -10.1804   -6.7622 H         1 <0>         0.0000
     64 H29        -5.2503   -8.7193   -6.0528 H         1 <0>         0.0000
@<TRIPOS>BOND
     1    1    3 ar
     2    1    2 ar
     3    1   36 1
     4    2    4 ar
     5    2   37 1
     6    3    5 ar
     7    3   38 1
     8    4   13 ar
     9    4   39 1
    10    5   13 ar
    11    5   40 1
    12    6    8 ar
    13    6   12 ar
    14    6   41 1
    15    7    9 ar
    16    7   12 ar
    17    7   42 1
    18    8   14 ar
    19    8   43 1
    20    9   14 ar
    21    9   44 1
    22   10   11 2
    23   10   17 1
    24   10   45 1
    25   11   31 1
    26   11   46 1
    27   12   15 1
    28   13   16 1
    29   14   26 1
    30   15   16 2
    31   15   29 1
    32   16   31 1
    33   17   30 2
    34   17   35 1
    35   18   29 2
    36   18   30 1
    37   18   31 1
    38   19   20 1
    39   19   32 am
    40   19   34 2
    41   20   21 1
    42   20   47 1
    43   20   48 1
    44   21   25 1
    45   21   49 1
    46   21   50 1
    47   22   24 1
    48   22   23 1
    49   22   51 1
    50   22   52 1
    51   23   26 1
    52   23   53 1
    53   23   54 1
    54   24   26 1
    55   24   55 1
    56   24   56 1
    57   25   32 1
    58   25   57 1
    59   25   58 1
    60   26   33 1
    61   27   28 1
    62   27   32 1
    63   27   59 1
    64   27   60 1
    65   28   35 1
    66   28   61 1
    67   28   62 1
    68   33   63 1
    69   33   64 1
