@<TRIPOS>MOLECULE
*****
   28    29     0     0     0
SMALL
NO_CHARGES

@<TRIPOS>ATOM
      1 C1          0.5134    0.8756    0.1393 C.ar      1 <0>         0.0000
      2 C2         -0.4566    1.8707    0.3196 C.ar      1 <0>         0.0000
      3 C3          1.8799    1.1791    0.1708 C.ar      1 <0>         0.0000
      4 C4          1.3470    3.4955    0.5664 C.ar      1 <0>         0.0000
      5 C5         -0.0277    3.1766    0.5324 C.ar      1 <0>         0.0000
      6 C6          2.3146    2.4947    0.3851 C.ar      1 <0>         0.0000
      7 C7          1.4663    4.9323    0.8054 C.2       1 <0>         0.0000
      8 C8          0.2107    5.4929    0.9170 C.2       1 <0>         0.0000
      9 C9          0.0524    6.9021    1.1553 C.2       1 <0>         0.0000
     10 C10        -0.8483    4.4303    0.7540 C.3       1 <0>         0.0000
     11 C11        -2.9360    8.9629    1.5419 C.3       1 <0>         0.0000
     12 C12        -1.4381    8.7260    1.4818 C.3       1 <0>         0.0000
     13 O1          1.0093    7.6878    1.2734 O.2       1 <0>         0.0000
     14 O2          3.6364    2.8374    0.4238 O.3       1 <0>         0.0000
     15 O3          2.6326    5.5700    0.8958 O.3       1 <0>         0.0000
     16 O4         -1.2347    7.3103    1.2418 O.3       1 <0>         0.0000
     17 H1          0.2079   -0.1538   -0.0288 H         1 <0>         0.0000
     18 H2         -1.5144    1.6240    0.2932 H         1 <0>         0.0000
     19 H3          2.6131    0.3869    0.0278 H         1 <0>         0.0000
     20 H4         -1.5130    4.6287   -0.0958 H         1 <0>         0.0000
     21 H5         -1.4885    4.3380    1.6399 H         1 <0>         0.0000
     22 H6         -3.4150    8.6809    0.5995 H         1 <0>         0.0000
     23 H7         -3.3917    8.3821    2.3495 H         1 <0>         0.0000
     24 H8         -3.1343   10.0239    1.7258 H         1 <0>         0.0000
     25 H9         -0.9414    8.9994    2.4170 H         1 <0>         0.0000
     26 H10        -0.9651    9.2914    0.6739 H         1 <0>         0.0000
     27 H11         4.1716    2.0399    0.2827 H         1 <0>         0.0000
     28 H12         2.4027    6.5225    1.0585 H         1 <0>         0.0000
@<TRIPOS>BOND
     1    1    2 ar
     2    1    3 ar
     3    1   17 1
     4    2    5 ar
     5    2   18 1
     6    3    6 ar
     7    3   19 1
     8    4    5 ar
     9    4    6 ar
    10    4    7 1
    11    5   10 1
    12    6   14 1
    13    7    8 2
    14    7   15 1
    15    8    9 1
    16    8   10 1
    17    9   13 2
    18    9   16 1
    19   10   20 1
    20   10   21 1
    21   11   12 1
    22   11   22 1
    23   11   23 1
    24   11   24 1
    25   12   16 1
    26   12   25 1
    27   12   26 1
    28   14   27 1
    29   15   28 1
