@<TRIPOS>MOLECULE
*****
   36    36     0     0     0
SMALL
NO_CHARGES

@<TRIPOS>ATOM
      1 C1         -0.9635    0.5659    5.8002 C.ar      1 <0>         0.0000
      2 C2          0.8154    2.0711    6.2785 C.ar      1 <0>         0.0000
      3 C3          0.1691    0.8658    6.5600 C.ar      1 <0>         0.0000
      4 C4         -0.7256    2.5319    4.6438 C.ar      1 <0>         0.0000
      5 C5         -0.9201    0.6662    0.0838 C.3       1 <0>         0.0000
      6 C6         -1.9632    7.0663    6.1347 C.3       1 <0>         0.0000
      7 C7         -1.2252    1.1863    1.4927 C.3       1 <0>         0.0000
      8 C8         -1.2734    5.8286    5.5510 C.3       1 <0>         0.0000
      9 C9         -2.0172    2.4980    1.4739 C.3       1 <0>         0.0000
     10 C10        -1.2045    5.8638    4.0205 C.3       1 <0>         0.0000
     11 C11        -2.3580    3.0501    2.8665 C.3       1 <0>         0.0000
     12 C12        -0.5076    4.6477    3.3915 C.3       1 <0>         0.0000
     13 N1         -1.4126    1.3786    4.8483 N.ar      1 <0>         0.0000
     14 N2          0.3807    2.9042    5.3375 N.ar      1 <0>         0.0000
     15 N3         -1.1790    3.3762    3.6730 N.pl3     1 <0>         0.0000
     16 Br1         0.8042   -0.3170    7.9202 Br        1 <0>         0.0000
     17 H1         -1.5199   -0.3559    5.9636 H         1 <0>         0.0000
     18 H2          1.7054    2.3718    6.8295 H         1 <0>         0.0000
     19 H3         -0.3325    1.3936   -0.4888 H         1 <0>         0.0000
     20 H4         -0.3494   -0.2680    0.1193 H         1 <0>         0.0000
     21 H5         -1.8422    0.4722   -0.4767 H         1 <0>         0.0000
     22 H6         -2.9911    7.1593    5.7642 H         1 <0>         0.0000
     23 H7         -2.0071    7.0191    7.2281 H         1 <0>         0.0000
     24 H8         -1.4297    7.9845    5.8621 H         1 <0>         0.0000
     25 H9         -1.7846    0.4332    2.0591 H         1 <0>         0.0000
     26 H10        -0.2860    1.3385    2.0371 H         1 <0>         0.0000
     27 H11        -0.2600    5.7356    5.9575 H         1 <0>         0.0000
     28 H12        -1.8106    4.9274    5.8683 H         1 <0>         0.0000
     29 H13        -1.4605    3.2519    0.9013 H         1 <0>         0.0000
     30 H14        -2.9644    2.3502    0.9376 H         1 <0>         0.0000
     31 H15        -2.2191    5.9630    3.6121 H         1 <0>         0.0000
     32 H16        -0.6592    6.7602    3.6956 H         1 <0>         0.0000
     33 H17        -2.9588    2.3272    3.4175 H         1 <0>         0.0000
     34 H18        -2.9530    3.9640    2.7610 H         1 <0>         0.0000
     35 H19         0.5185    4.5785    3.7512 H         1 <0>         0.0000
     36 H20        -0.4700    4.7713    2.3035 H         1 <0>         0.0000
@<TRIPOS>BOND
     1    1    3 ar
     2    1   13 ar
     3    1   17 1
     4    2    3 ar
     5    2   14 ar
     6    2   18 1
     7    3   16 1
     8    4   13 ar
     9    4   14 ar
    10    4   15 1
    11    5    7 1
    12    5   19 1
    13    5   20 1
    14    5   21 1
    15    6    8 1
    16    6   22 1
    17    6   23 1
    18    6   24 1
    19    7    9 1
    20    7   25 1
    21    7   26 1
    22    8   10 1
    23    8   27 1
    24    8   28 1
    25    9   11 1
    26    9   29 1
    27    9   30 1
    28   10   12 1
    29   10   31 1
    30   10   32 1
    31   11   15 1
    32   11   33 1
    33   11   34 1
    34   12   15 1
    35   12   35 1
    36   12   36 1
