@<TRIPOS>MOLECULE
*****
   24    25     0     0     0
SMALL
NO_CHARGES

@<TRIPOS>ATOM
      1 C1          5.0263   -1.7589    4.5053 C.ar      1 <0>         0.0000
      2 C2          5.4951   -1.5644    3.2108 C.ar      1 <0>         0.0000
      3 C3          3.6576   -1.7052    4.7143 C.ar      1 <0>         0.0000
      4 C4          4.5937   -1.3254    2.1795 C.ar      1 <0>         0.0000
      5 C5          3.2444   -1.2913    2.4925 C.ar      1 <0>         0.0000
      6 C6         -0.1472   -1.5762    1.4696 C.3       1 <0>         0.0000
      7 C7          0.0152   -0.1151    1.0902 C.3       1 <0>         0.0000
      8 C8          1.2250   -2.1785    1.1898 C.3       1 <0>         0.0000
      9 C9          1.3913    0.2313    1.6381 C.3       1 <0>         0.0000
     10 C10         2.2363   -1.0335    1.4023 C.3       1 <0>         0.0000
     11 N1          2.7514   -1.4756    3.7378 N.ar      1 <0>         0.0000
     12 F1          5.0267   -1.1354    0.9273 F         1 <0>         0.0000
     13 H1          5.7106   -1.9469    5.3247 H         1 <0>         0.0000
     14 H2          6.5607   -1.5987    3.0059 H         1 <0>         0.0000
     15 H3          3.2408   -1.8502    5.7053 H         1 <0>         0.0000
     16 H4         -0.3848   -1.6650    2.5366 H         1 <0>         0.0000
     17 H5         -0.9408   -2.0701    0.9018 H         1 <0>         0.0000
     18 H6         -0.0000    0.0000    0.0002 H         1 <0>         0.0000
     19 H7         -0.7714    0.5154    1.5140 H         1 <0>         0.0000
     20 H8          1.4132   -3.0601    1.8117 H         1 <0>         0.0000
     21 H9          1.2682   -2.5022    0.1421 H         1 <0>         0.0000
     22 H10         1.8186    1.1058    1.1366 H         1 <0>         0.0000
     23 H11         1.3125    0.4707    2.7063 H         1 <0>         0.0000
     24 H12         2.8224   -0.9054    0.4518 H         1 <0>         0.0000
@<TRIPOS>BOND
     1    1    2 ar
     2    1    3 ar
     3    1   13 1
     4    2    4 ar
     5    2   14 1
     6    3   11 ar
     7    3   15 1
     8    4    5 ar
     9    4   12 1
    10    5   10 1
    11    5   11 ar
    12    6    7 1
    13    6    8 1
    14    6   16 1
    15    6   17 1
    16    7    9 1
    17    7   18 1
    18    7   19 1
    19    8   10 1
    20    8   20 1
    21    8   21 1
    22    9   10 1
    23    9   22 1
    24    9   23 1
    25   10   24 1
