@<TRIPOS>MOLECULE
*****
   28    29     0     0     0
SMALL
NO_CHARGES

@<TRIPOS>ATOM
      1 C1          0.8455    0.1831   -1.0201 C.2       1 <0>         0.0000
      2 C2          3.3576   -0.4530   -3.6491 C.3       1 <0>         0.0000
      3 C3          2.7086   -1.6204   -2.9422 C.3       1 <0>         0.0000
      4 C4         -0.4840    1.3934    1.6801 C.3       1 <0>         0.0000
      5 C5         -2.7628    1.9267    1.4258 C.3       1 <0>         0.0000
      6 C6          2.9304   -0.3221   -2.2072 C.3       1 <0>         0.0000
      7 C7         -1.4435    2.5611    1.8680 C.3       1 <0>         0.0000
      8 C8         -0.3276    1.1676   -0.8562 C.3       1 <0>         0.0000
      9 N1          1.7868    0.5200   -1.9166 N.am      1 <0>         0.0000
     10 N2         -1.0039    0.7502    0.4149 N.4       1 <0>         0.0000
     11 O1          0.8256   -0.8523   -0.3454 O.2       1 <0>         0.0000
     12 O2         -2.4100    1.0111    0.3423 O.3       1 <0>         0.0000
     13 O3         -1.0032    3.5951    0.9990 O.3       1 <0>         0.0000
     14 H1          4.4232   -0.4836   -3.8500 H         1 <0>         0.0000
     15 H2          2.7688    0.0670   -4.3997 H         1 <0>         0.0000
     16 H3          1.6883   -1.8703   -3.2128 H         1 <0>         0.0000
     17 H4          3.3225   -2.4645   -2.6472 H         1 <0>         0.0000
     18 H5          0.5518    1.6949    1.5359 H         1 <0>         0.0000
     19 H6         -0.5625    0.6589    2.4815 H         1 <0>         0.0000
     20 H7         -3.2332    1.3525    2.2292 H         1 <0>         0.0000
     21 H8         -3.4686    2.6410    1.0010 H         1 <0>         0.0000
     22 H9          3.6987   -0.2947   -1.4397 H         1 <0>         0.0000
     23 H10        -1.4768    2.8790    2.9151 H         1 <0>         0.0000
     24 H11        -1.0618    1.0267   -1.6522 H         1 <0>         0.0000
     25 H12        -0.0558    2.2200   -0.7855 H         1 <0>         0.0000
     26 H13         1.7385    1.4316   -2.3594 H         1 <0>         0.0000
     27 H14        -0.8582   -0.2790    0.4589 H         1 <0>         0.0000
     28 H15        -1.4816    4.4188    1.1894 H         1 <0>         0.0000
@<TRIPOS>BOND
     1    1    8 1
     2    1    9 am
     3    1   11 2
     4    2    3 1
     5    2    6 1
     6    2   14 1
     7    2   15 1
     8    3    6 1
     9    3   16 1
    10    3   17 1
    11    4    7 1
    12    4   10 1
    13    4   18 1
    14    4   19 1
    15    5    7 1
    16    5   12 1
    17    5   20 1
    18    5   21 1
    19    6    9 1
    20    6   22 1
    21    7   13 1
    22    7   23 1
    23    8   10 1
    24    8   24 1
    25    8   25 1
    26    9   26 1
    27   10   12 1
    28   10   27 1
    29   13   28 1
