@<TRIPOS>MOLECULE
*****
   33    35     0     0     0
SMALL
NO_CHARGES

@<TRIPOS>ATOM
      1 C1         -3.0925   -1.9381   -1.2170 C.ar      1 <0>         0.0000
      2 C2         -2.5265   -2.6129    0.9923 C.ar      1 <0>         0.0000
      3 C3         -1.9802   -1.1038   -1.2145 C.ar      1 <0>         0.0000
      4 C4         -3.3779   -2.7104   -0.0965 C.ar      1 <0>         0.0000
      5 C5         -1.1915   -1.0781   -0.0755 C.ar      1 <0>         0.0000
      6 C6          0.3409   -0.5699   -5.5627 C.3       1 <0>         0.0000
      7 C7          0.4373    0.6329   -4.6723 C.3       1 <0>         0.0000
      8 C8          1.3352   -0.8275    0.3654 C.3       1 <0>         0.0000
      9 C9          1.1014   -0.4318   -1.0590 C.3       1 <0>         0.0000
     10 C10        -0.8021   -0.2192   -4.6500 C.3       1 <0>         0.0000
     11 C11         0.0107   -0.1991   -0.0290 C.3       1 <0>         0.0000
     12 C12        -0.2522    1.2157    0.4069 C.3       1 <0>         0.0000
     13 C13        -1.6714   -0.2751   -2.4136 C.3       1 <0>         0.0000
     14 N1         -1.4368   -1.8138    1.0318 N.ar      1 <0>         0.0000
     15 N2         -1.1067   -1.0526   -3.4880 N.3       1 <0>         0.0000
     16 Br1        -4.8735   -3.8546   -0.0600 Br        1 <0>         0.0000
     17 H1         -3.7329   -1.9827   -2.0948 H         1 <0>         0.0000
     18 H2         -2.6937   -3.1878    1.8982 H         1 <0>         0.0000
     19 H3          0.2075   -0.4023   -6.6248 H         1 <0>         0.0000
     20 H4          0.9580   -1.4261   -5.3192 H         1 <0>         0.0000
     21 H5          1.1187    0.5835   -3.8317 H         1 <0>         0.0000
     22 H6          0.3684    1.6098   -5.1352 H         1 <0>         0.0000
     23 H7          1.3630   -1.8868    0.5939 H         1 <0>         0.0000
     24 H8          2.0361   -0.2371    0.9442 H         1 <0>         0.0000
     25 H9          1.6458    0.4247   -1.4394 H         1 <0>         0.0000
     26 H10         0.9711   -1.2248   -1.7864 H         1 <0>         0.0000
     27 H11        -1.6843    0.2020   -5.1217 H         1 <0>         0.0000
     28 H12         0.6749    1.8022    0.4175 H         1 <0>         0.0000
     29 H13        -0.6799    1.2425    1.4168 H         1 <0>         0.0000
     30 H14        -0.9574    1.7112   -0.2718 H         1 <0>         0.0000
     31 H15        -2.5760    0.2145   -2.8021 H         1 <0>         0.0000
     32 H16        -0.9554    0.5252   -2.1786 H         1 <0>         0.0000
     33 H17        -1.7650   -1.7834   -3.7755 H         1 <0>         0.0000
@<TRIPOS>BOND
     1    1    3 ar
     2    1    4 ar
     3    1   17 1
     4    2    4 ar
     5    2   14 ar
     6    2   18 1
     7    3    5 ar
     8    3   13 1
     9    4   16 1
    10    5   11 1
    11    5   14 ar
    12    6    7 1
    13    6   10 1
    14    6   19 1
    15    6   20 1
    16    7   10 1
    17    7   21 1
    18    7   22 1
    19    8    9 1
    20    8   11 1
    21    8   23 1
    22    8   24 1
    23    9   11 1
    24    9   25 1
    25    9   26 1
    26   10   15 1
    27   10   27 1
    28   11   12 1
    29   12   28 1
    30   12   29 1
    31   12   30 1
    32   13   15 1
    33   13   31 1
    34   13   32 1
    35   15   33 1
