@<TRIPOS>MOLECULE
*****
   25    26     0     0     0
SMALL
NO_CHARGES

@<TRIPOS>ATOM
      1 C1          2.9319   -1.0178    2.1060 C.ar      1 <0>         0.0000
      2 C2          1.9920   -0.1366    2.6272 C.ar      1 <0>         0.0000
      3 C3          0.6289   -0.4918    0.6528 C.ar      1 <0>         0.0000
      4 C4          4.7749   -5.5291   -4.0044 C.2       1 <0>         0.0000
      5 C5          2.7687   -1.6683    0.8631 C.ar      1 <0>         0.0000
      6 C6          0.8354    0.1198    1.8890 C.ar      1 <0>         0.0000
      7 C7          1.5860   -1.3736    0.1477 C.ar      1 <0>         0.0000
      8 C8          5.1272   -4.6249   -2.0653 C.2       1 <0>         0.0000
      9 C9          3.8521   -2.5679    0.4635 C.2       1 <0>         0.0000
     10 N1          6.0677   -5.3614   -3.8832 N.2       1 <0>         0.0000
     11 N2          6.2977   -4.7681   -2.6416 N.2       1 <0>         0.0000
     12 N3          3.8503   -3.3048   -0.5910 N.2       1 <0>         0.0000
     13 N4          4.1210   -5.0905   -2.8740 N.pl3     1 <0>         0.0000
     14 N5          2.7355   -5.1896   -2.6437 N.3       1 <0>         0.0000
     15 N6          4.9243   -4.1321   -0.7800 N.pl3     1 <0>         0.0000
     16 Cl1        -0.3715    1.2220    2.5117 Cl        1 <0>         0.0000
     17 Cl2         1.2269   -2.0617   -1.4242 Cl        1 <0>         0.0000
     18 H1          3.8329   -1.2197    2.6797 H         1 <0>         0.0000
     19 H2          2.1509    0.3433    3.5871 H         1 <0>         0.0000
     20 H3         -0.2685   -0.2838    0.0810 H         1 <0>         0.0000
     21 H4          4.2472   -5.9416   -4.8534 H         1 <0>         0.0000
     22 H5          4.7068   -2.5899    1.1524 H         1 <0>         0.0000
     23 H6          2.4268   -4.2898   -2.2747 H         1 <0>         0.0000
     24 H7          2.5919   -5.8781   -1.9036 H         1 <0>         0.0000
     25 H8          5.8013   -3.9023   -0.3085 H         1 <0>         0.0000
@<TRIPOS>BOND
     1    1    2 ar
     2    1    5 ar
     3    1   18 1
     4    2    6 ar
     5    2   19 1
     6    3    6 ar
     7    3    7 ar
     8    3   20 1
     9    4   10 2
    10    4   13 1
    11    4   21 1
    12    5    7 ar
    13    5    9 1
    14    6   16 1
    15    7   17 1
    16    8   11 2
    17    8   13 1
    18    8   15 1
    19    9   12 2
    20    9   22 1
    21   10   11 1
    22   12   15 1
    23   13   14 1
    24   14   23 1
    25   14   24 1
    26   15   25 1
