@<TRIPOS>MOLECULE
*****
   45    47     0     0     0
SMALL
NO_CHARGES

@<TRIPOS>ATOM
      1 C1          4.3685   -7.1991   -6.5867 C.ar      1 <0>         0.0000
      2 C2          4.5994   -7.3175   -5.2121 C.ar      1 <0>         0.0000
      3 C3          3.1250   -6.7445   -7.0386 C.ar      1 <0>         0.0000
      4 C4          3.5961   -6.9844   -4.2997 C.ar      1 <0>         0.0000
      5 C5          2.1229   -6.4124   -6.1246 C.ar      1 <0>         0.0000
      6 C6          0.4184   -5.0865   -3.9885 C.ar      1 <0>         0.0000
      7 C7          1.0874   -6.9171   -2.5922 C.ar      1 <0>         0.0000
      8 C8         -0.5800   -4.7542   -3.0707 C.ar      1 <0>         0.0000
      9 C9          0.0884   -6.5804   -1.6797 C.ar      1 <0>         0.0000
     10 C10         2.3413   -6.5269   -4.7400 C.ar      1 <0>         0.0000
     11 C11         1.2772   -6.1747   -3.7697 C.ar      1 <0>         0.0000
     12 C12        -0.7695   -5.4866   -1.8876 C.ar      1 <0>         0.0000
     13 C13        -4.7253   -5.5254   -2.9624 C.2       1 <0>         0.0000
     14 C14        -0.9807   -2.9593    0.8757 C.3       1 <0>         0.0000
     15 C15        -1.4371   -2.6934   -0.5654 C.3       1 <0>         0.0000
     16 C16        -0.4678   -4.3965    1.0386 C.3       1 <0>         0.0000
     17 C17        -2.4551   -3.7440   -1.0321 C.3       1 <0>         0.0000
     18 C18        -1.5129   -5.4119    0.5589 C.3       1 <0>         0.0000
     19 C19        -1.9231   -5.1915   -0.9178 C.3       1 <0>         0.0000
     20 C20        -3.0683   -6.1915   -1.2364 C.3       1 <0>         0.0000
     21 N1         -3.5518   -6.1205   -2.6076 N.am      1 <0>         0.0000
     22 O1         -5.5392   -5.0337   -2.1889 O.2       1 <0>         0.0000
     23 H1          5.1487   -7.4578   -7.2977 H         1 <0>         0.0000
     24 H2          5.5654   -7.6601   -4.8496 H         1 <0>         0.0000
     25 H3          2.9320   -6.6572   -8.1049 H         1 <0>         0.0000
     26 H4          3.7969   -7.0531   -3.2339 H         1 <0>         0.0000
     27 H5          1.1523   -6.0861   -6.4889 H         1 <0>         0.0000
     28 H6          0.5488   -4.4697   -4.8739 H         1 <0>         0.0000
     29 H7          1.7108   -7.7863   -2.3995 H         1 <0>         0.0000
     30 H8         -1.2072   -3.8963   -3.2857 H         1 <0>         0.0000
     31 H9         -0.0222   -7.1973   -0.7933 H         1 <0>         0.0000
     32 H10        -4.8810   -5.5398   -4.0586 H         1 <0>         0.0000
     33 H11        -1.8277   -2.8011    1.5574 H         1 <0>         0.0000
     34 H12        -0.2038   -2.2428    1.1669 H         1 <0>         0.0000
     35 H13        -1.8836   -1.6952   -0.6422 H         1 <0>         0.0000
     36 H14        -0.5625   -2.6978   -1.2265 H         1 <0>         0.0000
     37 H15         0.4580   -4.5248    0.4644 H         1 <0>         0.0000
     38 H16        -0.2184   -4.5935    2.0879 H         1 <0>         0.0000
     39 H17        -3.3537   -3.6740   -0.4080 H         1 <0>         0.0000
     40 H18        -2.7961   -3.5287   -2.0483 H         1 <0>         0.0000
     41 H19        -1.1556   -6.4337    0.7216 H         1 <0>         0.0000
     42 H20        -2.4168   -5.3095    1.1739 H         1 <0>         0.0000
     43 H21        -3.9246   -5.9898   -0.5897 H         1 <0>         0.0000
     44 H22        -2.7233   -7.2126   -1.0386 H         1 <0>         0.0000
     45 H23        -2.9283   -6.4150   -3.3491 H         1 <0>         0.0000
@<TRIPOS>BOND
     1    1    3 ar
     2    1    2 ar
     3    1   23 1
     4    2    4 ar
     5    2   24 1
     6    3    5 ar
     7    3   25 1
     8    4   10 ar
     9    4   26 1
    10    5   10 ar
    11    5   27 1
    12    6    8 ar
    13    6   11 ar
    14    6   28 1
    15    7    9 ar
    16    7   11 ar
    17    7   29 1
    18    8   12 ar
    19    8   30 1
    20    9   12 ar
    21    9   31 1
    22   10   11 1
    23   12   19 1
    24   13   21 am
    25   13   22 2
    26   13   32 1
    27   14   16 1
    28   14   15 1
    29   14   33 1
    30   14   34 1
    31   15   17 1
    32   15   35 1
    33   15   36 1
    34   16   18 1
    35   16   37 1
    36   16   38 1
    37   17   19 1
    38   17   39 1
    39   17   40 1
    40   18   19 1
    41   18   41 1
    42   18   42 1
    43   19   20 1
    44   20   21 1
    45   20   43 1
    46   20   44 1
    47   21   45 1
