@<TRIPOS>MOLECULE
*****
   22    22     0     0     0
SMALL
NO_CHARGES

@<TRIPOS>ATOM
      1 C1          2.0852   -0.9029    0.0413 C.ar      1 <0>         0.0000
      2 C2          0.9167   -0.4624    0.6171 C.ar      1 <0>         0.0000
      3 C3          1.8046   -0.9304    2.8429 C.ar      1 <0>         0.0000
      4 C4          3.2061   -1.3924    0.8198 C.ar      1 <0>         0.0000
      5 C5          0.7694   -0.4629    2.0256 C.ar      1 <0>         0.0000
      6 C6          2.9697   -1.4002    2.2563 C.ar      1 <0>         0.0000
      7 N1         -1.7757   -1.2762    2.4373 N.pl3     1 <0>         0.0000
      8 N2          5.5989   -1.3748    2.7289 N.pl3     1 <0>         0.0000
      9 O1          4.2965   -1.7536    0.2843 O.3       1 <0>         0.0000
     10 O2         -0.5615    0.2290    4.1937 O.2       1 <0>         0.0000
     11 O3         -1.3596    1.1541    1.9611 O.2       1 <0>         0.0000
     12 O4          3.9832   -1.6447    4.7134 O.2       1 <0>         0.0000
     13 O5          4.2661   -3.5787    3.1333 O.2       1 <0>         0.0000
     14 S1         -0.7366    0.0694    2.7381 S.o2      1 <0>         0.0000
     15 S2          4.1918   -2.1156    3.3329 S.o2      1 <0>         0.0000
     16 H1          2.2154   -0.8898   -1.0378 H         1 <0>         0.0000
     17 H2          0.0999   -0.0951    0.0012 H         1 <0>         0.0000
     18 H3          1.7045   -0.9195    3.9243 H         1 <0>         0.0000
     19 H4         -1.5122   -2.0277    3.0771 H         1 <0>         0.0000
     20 H5         -2.7244   -0.9690    2.6633 H         1 <0>         0.0000
     21 H6          6.3879   -1.9056    3.1043 H         1 <0>         0.0000
     22 H7          5.5409   -1.5254    1.7041 H         1 <0>         0.0000
@<TRIPOS>BOND
     1    1    2 ar
     2    1    4 ar
     3    1   16 1
     4    2    5 ar
     5    2   17 1
     6    3    5 ar
     7    3    6 ar
     8    3   18 1
     9    4    6 ar
    10    4    9 1
    11    5   14 1
    12    6   15 1
    13    7   14 1
    14    7   19 1
    15    7   20 1
    16    8   15 1
    17    8   21 1
    18    8   22 1
    19   10   14 2
    20   11   14 2
    21   12   15 2
    22   13   15 2
