@<TRIPOS>MOLECULE
*****
   58    62     0     0     0
SMALL
NO_CHARGES

@<TRIPOS>ATOM
      1 C1         -4.3576    3.7608   -0.8482 C.ar      1 <0>         0.0000
      2 C2         -3.6661    2.8650   -1.6711 C.ar      1 <0>         0.0000
      3 C3         -3.7556    4.2175    0.3279 C.ar      1 <0>         0.0000
      4 C4         -2.3859    2.4304   -1.3208 C.ar      1 <0>         0.0000
      5 C5         -2.4718    3.7829    0.6707 C.ar      1 <0>         0.0000
      6 C6         -1.6225    0.5613    3.2755 C.ar      1 <0>         0.0000
      7 C7          0.1911    2.1347    3.3007 C.ar      1 <0>         0.0000
      8 C8         -1.7864    0.7183    4.6564 C.ar      1 <0>         0.0000
      9 C9          0.0495    2.2936    4.6754 C.ar      1 <0>         0.0000
     10 C10        -1.7790   -1.7197   -0.8170 C.ar      1 <0>         0.0000
     11 C11         0.3054   -2.8358   -1.4680 C.ar      1 <0>         0.0000
     12 C12        -1.7687    2.8871   -0.1472 C.ar      1 <0>         0.0000
     13 C13        -0.6423    1.2638    2.5728 C.ar      1 <0>         0.0000
     14 C14         0.4032   -0.8231   -0.1281 C.ar      1 <0>         0.0000
     15 C15        -0.9811   -0.7908   -0.1453 C.ar      1 <0>         0.0000
     16 C16        -0.9465    1.5856    5.3660 C.ar      1 <0>         0.0000
     17 C17        -1.1010   -2.7462   -1.4846 C.ar      1 <0>         0.0000
     18 C18         1.0561   -1.8777   -0.7826 C.ar      1 <0>         0.0000
     19 C19         0.6528    2.1804   -0.8118 C.3       1 <0>         0.0000
     20 C20        -0.4014    2.4088    0.2804 C.3       1 <0>         0.0000
     21 C21         1.7263    1.3813   -0.0811 C.3       1 <0>         0.0000
     22 C22        -0.4370    1.0660    1.0900 C.3       1 <0>         0.0000
     23 C23         0.9265    0.3147    0.7100 C.3       1 <0>         0.0000
     24 C24        -2.0069    1.1064    7.4555 C.3       1 <0>         0.0000
     25 C25        -3.1510   -3.7126   -2.2485 C.3       1 <0>         0.0000
     26 C26         3.1231   -2.9541   -1.3687 C.3       1 <0>         0.0000
     27 O1         -1.5126    0.2353    0.5776 O.3       1 <0>         0.0000
     28 O2          2.7107    0.8861   -0.9685 O.3       1 <0>         0.0000
     29 O3          1.6679   -0.2307    1.7964 O.3       1 <0>         0.0000
     30 O4         -1.0152    1.8109    6.7138 O.3       1 <0>         0.0000
     31 O5         -1.7277   -3.7353   -2.1923 O.3       1 <0>         0.0000
     32 O6          2.4238   -1.9065   -0.6970 O.3       1 <0>         0.0000
     33 H1         -5.3536    4.0999   -1.1221 H         1 <0>         0.0000
     34 H2         -4.1264    2.5030   -2.5873 H         1 <0>         0.0000
     35 H3         -4.2824    4.9135    0.9762 H         1 <0>         0.0000
     36 H4         -1.8705    1.7238   -1.9645 H         1 <0>         0.0000
     37 H5         -2.0111    4.1385    1.5898 H         1 <0>         0.0000
     38 H6         -2.2749   -0.1141    2.7344 H         1 <0>         0.0000
     39 H7          0.9635    2.7107    2.7957 H         1 <0>         0.0000
     40 H8         -2.5672    0.1590    5.1596 H         1 <0>         0.0000
     41 H9          0.6963    2.9648    5.2329 H         1 <0>         0.0000
     42 H10        -2.8571   -1.6266   -0.7977 H         1 <0>         0.0000
     43 H11         0.7621   -3.6624   -1.9973 H         1 <0>         0.0000
     44 H12         0.2729    1.5748   -1.6390 H         1 <0>         0.0000
     45 H13         1.0316    3.1183   -1.2259 H         1 <0>         0.0000
     46 H14         0.0031    3.1654    0.9576 H         1 <0>         0.0000
     47 H15         2.2102    2.0292    0.6713 H         1 <0>         0.0000
     48 H16        -1.8858    1.4244    8.4919 H         1 <0>         0.0000
     49 H17        -1.8599    0.0214    7.3885 H         1 <0>         0.0000
     50 H18        -3.0176    1.3606    7.1132 H         1 <0>         0.0000
     51 H19        -3.4392   -4.5720   -2.8553 H         1 <0>         0.0000
     52 H20        -3.5167   -2.7933   -2.7218 H         1 <0>         0.0000
     53 H21        -3.5911   -3.8088   -1.2485 H         1 <0>         0.0000
     54 H22         4.1810   -2.7789   -1.1703 H         1 <0>         0.0000
     55 H23         2.9410   -2.9213   -2.4488 H         1 <0>         0.0000
     56 H24         2.8344   -3.9336   -0.9718 H         1 <0>         0.0000
     57 H25         2.9556   -0.0148   -0.6907 H         1 <0>         0.0000
     58 H26         1.6874    0.4203    2.5188 H         1 <0>         0.0000
@<TRIPOS>BOND
     1    1    3 ar
     2    1    2 ar
     3    1   33 1
     4    2    4 ar
     5    2   34 1
     6    3    5 ar
     7    3   35 1
     8    4   12 ar
     9    4   36 1
    10    5   12 ar
    11    5   37 1
    12    6    8 ar
    13    6   13 ar
    14    6   38 1
    15    7    9 ar
    16    7   13 ar
    17    7   39 1
    18    8   16 ar
    19    8   40 1
    20    9   16 ar
    21    9   41 1
    22   10   15 ar
    23   10   17 ar
    24   10   42 1
    25   11   17 ar
    26   11   18 ar
    27   11   43 1
    28   12   20 1
    29   13   22 1
    30   14   15 ar
    31   14   18 ar
    32   14   23 1
    33   15   27 1
    34   16   30 1
    35   17   31 1
    36   18   32 1
    37   19   20 1
    38   19   21 1
    39   19   44 1
    40   19   45 1
    41   20   22 1
    42   20   46 1
    43   21   23 1
    44   21   28 1
    45   21   47 1
    46   22   23 1
    47   22   27 1
    48   23   29 1
    49   24   30 1
    50   24   48 1
    51   24   49 1
    52   24   50 1
    53   25   31 1
    54   25   51 1
    55   25   52 1
    56   25   53 1
    57   26   32 1
    58   26   54 1
    59   26   55 1
    60   26   56 1
    61   28   57 1
    62   29   58 1
