@<TRIPOS>MOLECULE
*****
   35    36     0     0     0
SMALL
NO_CHARGES

@<TRIPOS>ATOM
      1 C1         -2.2908   -3.1291    5.4965 C.ar      1 <0>         0.0000
      2 C2         -2.1025   -4.3350    4.8327 C.ar      1 <0>         0.0000
      3 C3         -2.2412   -1.9007    4.8193 C.ar      1 <0>         0.0000
      4 C4         -1.8518   -3.1318    2.7092 C.ar      1 <0>         0.0000
      5 C5         -1.8783   -4.3343    3.4496 C.ar      1 <0>         0.0000
      6 C6         -2.0379   -1.9422    3.4327 C.ar      1 <0>         0.0000
      7 C7         -2.3879   -0.6004    5.6322 C.2       1 <0>         0.0000
      8 C8         -4.2489   -2.3541   -1.3183 C.3       1 <0>         0.0000
      9 C9         -4.8524   -3.6916   -1.7505 C.3       1 <0>         0.0000
     10 C10        -2.6001   -4.1181   -1.5390 C.3       1 <0>         0.0000
     11 C11        -2.8594   -2.7680   -0.8112 C.3       1 <0>         0.0000
     12 C12         0.2716   -5.9313    2.5598 C.3       1 <0>         0.0000
     13 C13        -1.6579   -3.0850    1.2126 C.3       1 <0>         0.0000
     14 O1         -1.2906   -0.0620    5.9158 O.co2     1 <0>         0.0000
     15 O2         -3.5696   -0.3019    5.9235 O.co2     1 <0>         0.0000
     16 O3         -1.8493   -6.9790    3.7307 O.2       1 <0>         0.0000
     17 O4         -2.0944   -6.0694    1.3682 O.2       1 <0>         0.0000
     18 O5         -3.7568   -4.3918   -2.3501 O.3       1 <0>         0.0000
     19 O6         -2.9362   -2.9213    0.6007 O.3       1 <0>         0.0000
     20 S1         -1.5351   -5.9428    2.7283 S.o2      1 <0>         0.0000
     21 Cl1        -2.0211   -0.4049    2.5621 Cl        1 <0>         0.0000
     22 H1         -2.4793   -3.1214    6.5668 H         1 <0>         0.0000
     23 H2         -2.1344   -5.2800    5.3646 H         1 <0>         0.0000
     24 H3         -4.1529   -1.6913   -2.1842 H         1 <0>         0.0000
     25 H4         -4.8058   -1.8411   -0.5315 H         1 <0>         0.0000
     26 H5         -5.2357   -4.2460   -0.8817 H         1 <0>         0.0000
     27 H6         -5.6427   -3.6081   -2.5019 H         1 <0>         0.0000
     28 H7         -1.7347   -4.0916   -2.2092 H         1 <0>         0.0000
     29 H8         -2.4653   -4.9094   -0.7925 H         1 <0>         0.0000
     30 H9         -2.0944   -2.0165   -1.0528 H         1 <0>         0.0000
     31 H10         0.5493   -6.9010    2.1403 H         1 <0>         0.0000
     32 H11         0.5679   -5.1224    1.8906 H         1 <0>         0.0000
     33 H12         0.7075   -5.7948    3.5503 H         1 <0>         0.0000
     34 H13        -1.0171   -2.2319    0.9523 H         1 <0>         0.0000
     35 H14        -1.1825   -3.9965    0.8419 H         1 <0>         0.0000
@<TRIPOS>BOND
     1    1    2 ar
     2    1    3 ar
     3    1   22 1
     4    2    5 ar
     5    2   23 1
     6    3    6 ar
     7    3    7 1
     8    4    5 ar
     9    4    6 ar
    10    4   13 1
    11    5   20 1
    12    6   21 1
    13    7   14 1
    14    7   15 2
    15    8    9 1
    16    8   11 1
    17    8   24 1
    18    8   25 1
    19    9   18 1
    20    9   26 1
    21    9   27 1
    22   10   11 1
    23   10   18 1
    24   10   28 1
    25   10   29 1
    26   11   19 1
    27   11   30 1
    28   12   20 1
    29   12   31 1
    30   12   32 1
    31   12   33 1
    32   13   19 1
    33   13   34 1
    34   13   35 1
    35   16   20 2
    36   17   20 2
