@<TRIPOS>MOLECULE
*****
   66    69     0     0     0
SMALL
NO_CHARGES

@<TRIPOS>ATOM
      1 C1          1.4490    8.1426    1.7556 C.ar      1 <0>         0.0000
      2 C2          3.6807    3.2599    1.4077 C.ar      1 <0>         0.0000
      3 C3          4.3929    3.2541    3.7295 C.ar      1 <0>         0.0000
      4 C4          4.0116    1.9135    1.3138 C.ar      1 <0>         0.0000
      5 C5          4.7198    1.9046    3.6351 C.ar      1 <0>         0.0000
      6 C6          2.4963    7.4361    2.3551 C.ar      1 <0>         0.0000
      7 C7          0.5345    7.4823    0.9387 C.ar      1 <0>         0.0000
      8 C8          3.8516    3.9468    2.6270 C.ar      1 <0>         0.0000
      9 C9          4.5135    1.2310    2.4272 C.ar      1 <0>         0.0000
     10 C10         0.7364    6.0918    0.7233 C.ar      1 <0>         0.0000
     11 C11         2.5735    6.0558    2.1244 C.ar      1 <0>         0.0000
     12 C12        -1.3668    7.5015   -0.5795 C.2       1 <0>         0.0000
     13 C13         0.2057    0.8385   -1.4856 C.3       1 <0>         0.0000
     14 C14        -1.2950    1.1480   -1.3278 C.3       1 <0>         0.0000
     15 C15         1.1787    1.9241   -0.9902 C.3       1 <0>         0.0000
     16 C16        -1.6972    1.8739   -0.0315 C.3       1 <0>         0.0000
     17 C17         0.7619    3.3829   -1.2473 C.3       1 <0>         0.0000
     18 C18        -1.5766    3.4053   -0.1111 C.3       1 <0>         0.0000
     19 C19        -0.7748    6.2137   -1.1482 C.3       1 <0>         0.0000
     20 C20        -0.1400    3.9469   -0.1291 C.3       1 <0>         0.0000
     21 C21         0.1777    6.5756   -2.3072 C.3       1 <0>         0.0000
     22 C22        -1.0432    9.4023    0.9253 C.3       1 <0>         0.0000
     23 C23         2.8158   -1.0486    4.0455 C.3       1 <0>         0.0000
     24 C24         2.2466   -1.0134    1.6523 C.3       1 <0>         0.0000
     25 N1          1.7256    5.4138    1.3147 N.ar      1 <0>         0.0000
     26 N2         -0.6181    8.1047    0.4076 N.am      1 <0>         0.0000
     27 N3         -0.1525    5.4217   -0.0863 N.pl3     1 <0>         0.0000
     28 N4          3.5627    5.3053    2.7725 N.pl3     1 <0>         0.0000
     29 N5          3.2812   -1.2398    2.6674 N.pl3     1 <0>         0.0000
     30 O1         -2.4065    7.9806   -1.0265 O.2       1 <0>         0.0000
     31 O2          5.0804   -0.8644    0.9296 O.2       1 <0>         0.0000
     32 O3          5.6770   -0.9148    3.4219 O.2       1 <0>         0.0000
     33 S1          4.7874   -0.5297    2.3245 S.o2      1 <0>         0.0000
     34 H1          1.3465    9.2048    1.9496 H         1 <0>         0.0000
     35 H2          3.2901    3.7842    0.5479 H         1 <0>         0.0000
     36 H3          4.5449    3.7776    4.6712 H         1 <0>         0.0000
     37 H4          3.9031    1.3916    0.3692 H         1 <0>         0.0000
     38 H5          5.1360    1.3737    4.4852 H         1 <0>         0.0000
     39 H6          3.2188    7.9439    2.9869 H         1 <0>         0.0000
     40 H7          0.4401   -0.0914   -0.9522 H         1 <0>         0.0000
     41 H8          0.4014    0.6317   -2.5448 H         1 <0>         0.0000
     42 H9         -1.6366    1.7540   -2.1766 H         1 <0>         0.0000
     43 H10        -1.8446    0.2026   -1.4030 H         1 <0>         0.0000
     44 H11         1.3428    1.8075    0.0866 H         1 <0>         0.0000
     45 H12         2.1539    1.7413   -1.4557 H         1 <0>         0.0000
     46 H13        -2.7461    1.6439    0.1874 H         1 <0>         0.0000
     47 H14        -1.1196    1.4896    0.8199 H         1 <0>         0.0000
     48 H15         1.6603    4.0070   -1.2809 H         1 <0>         0.0000
     49 H16         0.2764    3.4775   -2.2267 H         1 <0>         0.0000
     50 H17        -2.1237    3.7337   -1.0034 H         1 <0>         0.0000
     51 H18        -2.0847    3.8576    0.7483 H         1 <0>         0.0000
     52 H19        -1.6240    5.6584   -1.5418 H         1 <0>         0.0000
     53 H20         0.3290    3.6581    0.8135 H         1 <0>         0.0000
     54 H21         1.0534    7.1164   -1.9349 H         1 <0>         0.0000
     55 H22        -0.3442    7.2116   -3.0284 H         1 <0>         0.0000
     56 H23         0.5227    5.6770   -2.8219 H         1 <0>         0.0000
     57 H24        -0.3394   10.1903    0.6346 H         1 <0>         0.0000
     58 H25        -1.1122    9.3674    2.0169 H         1 <0>         0.0000
     59 H26        -2.0201    9.6266    0.5007 H         1 <0>         0.0000
     60 H27         3.6259   -1.2783    4.7373 H         1 <0>         0.0000
     61 H28         1.9963   -1.7505    4.2240 H         1 <0>         0.0000
     62 H29         2.4505   -0.0262    4.2281 H         1 <0>         0.0000
     63 H30         2.6636   -1.1906    0.6612 H         1 <0>         0.0000
     64 H31         1.8253    0.0025    1.6998 H         1 <0>         0.0000
     65 H32         1.4421   -1.7338    1.8252 H         1 <0>         0.0000
     66 H33         3.9530    5.7448    3.5953 H         1 <0>         0.0000
@<TRIPOS>BOND
     1    1    6 ar
     2    1    7 ar
     3    1   34 1
     4    2    4 ar
     5    2    8 ar
     6    2   35 1
     7    3    5 ar
     8    3    8 ar
     9    3   36 1
    10    4    9 ar
    11    4   37 1
    12    5    9 ar
    13    5   38 1
    14    6   11 ar
    15    6   39 1
    16    7   10 ar
    17    7   26 1
    18    8   28 1
    19    9   33 1
    20   10   25 ar
    21   10   27 1
    22   11   25 ar
    23   11   28 1
    24   12   19 1
    25   12   26 am
    26   12   30 2
    27   13   14 1
    28   13   15 1
    29   13   40 1
    30   13   41 1
    31   14   16 1
    32   14   42 1
    33   14   43 1
    34   15   17 1
    35   15   44 1
    36   15   45 1
    37   16   18 1
    38   16   46 1
    39   16   47 1
    40   17   20 1
    41   17   48 1
    42   17   49 1
    43   18   20 1
    44   18   50 1
    45   18   51 1
    46   19   21 1
    47   19   27 1
    48   19   52 1
    49   20   27 1
    50   20   53 1
    51   21   54 1
    52   21   55 1
    53   21   56 1
    54   22   26 1
    55   22   57 1
    56   22   58 1
    57   22   59 1
    58   23   29 1
    59   23   60 1
    60   23   61 1
    61   23   62 1
    62   24   29 1
    63   24   63 1
    64   24   64 1
    65   24   65 1
    66   28   66 1
    67   29   33 1
    68   31   33 2
    69   32   33 2
