@<TRIPOS>MOLECULE
*****
   52    55     0     0     0
SMALL
NO_CHARGES

@<TRIPOS>ATOM
      1 C1         -1.3392   -5.0388    3.1759 C.ar      1 <0>         0.0000
      2 C2         -2.6091   -4.7095    2.6884 C.ar      1 <0>         0.0000
      3 C3         -0.2127   -4.8739    2.3635 C.ar      1 <0>         0.0000
      4 C4         -2.7508   -4.2092    1.3923 C.ar      1 <0>         0.0000
      5 C5         -0.3535   -4.3668    1.0692 C.ar      1 <0>         0.0000
      6 C6         -2.6269    0.5287    0.8481 C.ar      1 <0>         0.0000
      7 C7         -2.4175    2.9020    0.4221 C.ar      1 <0>         0.0000
      8 C8         -1.4198    0.3065    0.1622 C.ar      1 <0>         0.0000
      9 C9         -1.6219   -4.0273    0.5783 C.ar      1 <0>         0.0000
     10 C10        -1.1947    2.7118   -0.2192 C.ar      1 <0>         0.0000
     11 C11        -0.6926    1.3971   -0.3334 C.ar      1 <0>         0.0000
     12 C12        -3.1222    1.8201    0.9672 C.ar      1 <0>         0.0000
     13 C13         3.9514   -1.0342    0.1056 C.3       1 <0>         0.0000
     14 C14         3.4645   -1.0602   -1.3494 C.3       1 <0>         0.0000
     15 C15         2.7772   -1.0534    1.0932 C.3       1 <0>         0.0000
     16 C16         2.4501    0.0597   -1.6271 C.3       1 <0>         0.0000
     17 C17         1.7838    0.0815    0.7995 C.3       1 <0>         0.0000
     18 C18         0.3368   -1.1441   -0.9339 C.3       1 <0>         0.0000
     19 C19        -0.9000   -1.0950   -0.0372 C.3       1 <0>         0.0000
     20 C20         1.2701    0.0412   -0.6511 C.3       1 <0>         0.0000
     21 C21        -0.3991    3.8652   -0.7719 C.3       1 <0>         0.0000
     22 C22        -1.7776   -3.4306   -0.7916 C.3       1 <0>         0.0000
     23 N1         -2.0133   -1.9232   -0.6918 N.4       1 <0>         0.0000
     24 O1          0.5229    1.2575   -0.9376 O.3       1 <0>         0.0000
     25 Cl1        -4.6242    2.0990    1.8170 Cl        1 <0>         0.0000
     26 H1         -1.2303   -5.4347    4.1814 H         1 <0>         0.0000
     27 H2         -3.4865   -4.8547    3.3116 H         1 <0>         0.0000
     28 H3          0.7715   -5.1437    2.7349 H         1 <0>         0.0000
     29 H4         -3.7463   -3.9858    1.0104 H         1 <0>         0.0000
     30 H5          0.5246   -4.2500    0.4380 H         1 <0>         0.0000
     31 H6         -3.1659   -0.2890    1.3244 H         1 <0>         0.0000
     32 H7         -2.8202    3.9052    0.5238 H         1 <0>         0.0000
     33 H8          4.5409   -0.1237    0.2718 H         1 <0>         0.0000
     34 H9          4.6209   -1.8795    0.2955 H         1 <0>         0.0000
     35 H10         4.3108   -0.9508   -2.0346 H         1 <0>         0.0000
     36 H11         3.0210   -2.0395   -1.5741 H         1 <0>         0.0000
     37 H12         2.2664   -2.0257    1.0475 H         1 <0>         0.0000
     38 H13         3.1415   -0.9523    2.1205 H         1 <0>         0.0000
     39 H14         2.9397    1.0338   -1.5197 H         1 <0>         0.0000
     40 H15         2.0751    0.0076   -2.6551 H         1 <0>         0.0000
     41 H16         0.9549    0.0655    1.5144 H         1 <0>         0.0000
     42 H17         2.2850    1.0466    0.9312 H         1 <0>         0.0000
     43 H18         0.8696   -2.0863   -0.8040 H         1 <0>         0.0000
     44 H19         0.0379   -1.0738   -1.9877 H         1 <0>         0.0000
     45 H20        -0.7196   -1.5932    0.9177 H         1 <0>         0.0000
     46 H21         0.5854    3.9190   -0.2966 H         1 <0>         0.0000
     47 H22        -0.2245    3.7436   -1.8454 H         1 <0>         0.0000
     48 H23        -0.9174    4.8119   -0.6084 H         1 <0>         0.0000
     49 H24        -0.8954   -3.5707   -1.4152 H         1 <0>         0.0000
     50 H25        -2.6474   -3.8262   -1.3222 H         1 <0>         0.0000
     51 H26        -2.8747   -1.7682   -0.1568 H         1 <0>         0.0000
     52 H27        -2.1906   -1.5285   -1.6239 H         1 <0>         0.0000
@<TRIPOS>BOND
     1    1    3 ar
     2    1    2 ar
     3    1   26 1
     4    2    4 ar
     5    2   27 1
     6    3    5 ar
     7    3   28 1
     8    4    9 ar
     9    4   29 1
    10    5    9 ar
    11    5   30 1
    12    6    8 ar
    13    6   12 ar
    14    6   31 1
    15    7   10 ar
    16    7   12 ar
    17    7   32 1
    18    8   11 ar
    19    8   19 1
    20    9   22 1
    21   10   11 ar
    22   10   21 1
    23   11   24 1
    24   12   25 1
    25   13   15 1
    26   13   14 1
    27   13   33 1
    28   13   34 1
    29   14   16 1
    30   14   35 1
    31   14   36 1
    32   15   17 1
    33   15   37 1
    34   15   38 1
    35   16   20 1
    36   16   39 1
    37   16   40 1
    38   17   20 1
    39   17   41 1
    40   17   42 1
    41   18   19 1
    42   18   20 1
    43   18   43 1
    44   18   44 1
    45   19   23 1
    46   19   45 1
    47   20   24 1
    48   21   46 1
    49   21   47 1
    50   21   48 1
    51   22   23 1
    52   22   49 1
    53   22   50 1
    54   23   51 1
    55   23   52 1
