@<TRIPOS>MOLECULE
*****
   33    35     0     0     0
SMALL
NO_CHARGES

@<TRIPOS>ATOM
      1 C1          0.0959    0.5225   -2.1350 C.ar      1 <0>         0.0000
      2 C2         -0.2061   -0.0975   -0.9159 C.ar      1 <0>         0.0000
      3 C3         -0.1798   -0.1293   -3.3360 C.ar      1 <0>         0.0000
      4 C4         -0.7859   -1.3639   -0.9220 C.ar      1 <0>         0.0000
      5 C5         -0.7641   -1.4056   -3.3588 C.ar      1 <0>         0.0000
      6 C6         -1.0677   -2.0201   -2.1314 C.ar      1 <0>         0.0000
      7 C7         -3.9644   -4.0452   -1.1258 C.cat     1 <0>         0.0000
      8 C8         -1.0050   -2.0994   -4.6851 C.3       1 <0>         0.0000
      9 C9         -1.9986   -3.2592   -4.5872 C.3       1 <0>         0.0000
     10 C10        -1.6476   -4.1572   -3.3984 C.3       1 <0>         0.0000
     11 C11        -4.5753   -6.0796   -0.0490 C.3       1 <0>         0.0000
     12 C12        -5.9398   -5.4228   -0.2713 C.3       1 <0>         0.0000
     13 C13        -1.7376   -3.3797   -2.0780 C.3       1 <0>         0.0000
     14 N1         -3.6414   -5.3255   -0.9027 N.pl3     1 <0>         0.0000
     15 N2         -3.1690   -3.1572   -1.6920 N.pl3     1 <0>         0.0000
     16 S1         -5.5718   -3.6360   -0.5629 S.3       1 <0>         0.0000
     17 H1          0.5482    1.5102   -2.1463 H         1 <0>         0.0000
     18 H2          0.0139    0.3999    0.0241 H         1 <0>         0.0000
     19 H3          0.0619    0.3566   -4.2785 H         1 <0>         0.0000
     20 H4         -1.0168   -1.8550    0.0218 H         1 <0>         0.0000
     21 H5         -1.3441   -1.3694   -5.4262 H         1 <0>         0.0000
     22 H6         -0.0437   -2.4816   -5.0531 H         1 <0>         0.0000
     23 H7         -3.0204   -2.8757   -4.4728 H         1 <0>         0.0000
     24 H8         -1.9863   -3.8431   -5.5117 H         1 <0>         0.0000
     25 H9         -2.3003   -5.0370   -3.3712 H         1 <0>         0.0000
     26 H10        -0.6195   -4.5237   -3.4994 H         1 <0>         0.0000
     27 H11        -4.2607   -6.0090    0.9974 H         1 <0>         0.0000
     28 H12        -4.5859   -7.1282   -0.3521 H         1 <0>         0.0000
     29 H13        -6.4502   -5.8173   -1.1512 H         1 <0>         0.0000
     30 H14        -6.5854   -5.5077    0.6023 H         1 <0>         0.0000
     31 H15        -1.2912   -3.9597   -1.2612 H         1 <0>         0.0000
     32 H16        -2.7098   -5.6759   -1.0970 H         1 <0>         0.0000
     33 H17        -3.5357   -2.2230   -1.8480 H         1 <0>         0.0000
@<TRIPOS>BOND
     1    1    2 ar
     2    1    3 ar
     3    1   17 1
     4    2    4 ar
     5    2   18 1
     6    3    5 ar
     7    3   19 1
     8    4    6 ar
     9    4   20 1
    10    5    6 ar
    11    5    8 1
    12    6   13 1
    13    7   14 2
    14    7   15 1
    15    7   16 1
    16    8    9 1
    17    8   21 1
    18    8   22 1
    19    9   10 1
    20    9   23 1
    21    9   24 1
    22   10   13 1
    23   10   25 1
    24   10   26 1
    25   11   12 1
    26   11   14 1
    27   11   27 1
    28   11   28 1
    29   12   16 1
    30   12   29 1
    31   12   30 1
    32   13   15 1
    33   13   31 1
    34   14   32 1
    35   15   33 1
