@<TRIPOS>MOLECULE
*****
   33    35     0     0     0
SMALL
NO_CHARGES

@<TRIPOS>ATOM
      1 C1         -0.0607   -1.4584   -0.0170 C.ar      1 <0>         0.0000
      2 C2          0.9871    1.1295    0.0248 C.ar      1 <0>         0.0000
      3 C3          1.2121   -1.2453    0.5261 C.ar      1 <0>         0.0000
      4 C4          1.7417    0.0644    0.5430 C.ar      1 <0>         0.0000
      5 C5         -0.7899   -0.3914   -0.5339 C.ar      1 <0>         0.0000
      6 C6         -0.2727    0.9068   -0.5069 C.ar      1 <0>         0.0000
      7 C7         -2.8538    0.4494   -1.4252 C.cat     1 <0>         0.0000
      8 C8          2.0020   -2.4292    1.0545 C.3       1 <0>         0.0000
      9 C9          3.1016    0.3573    1.1466 C.3       1 <0>         0.0000
     10 C10         3.1615   -2.0185    1.9679 C.3       1 <0>         0.0000
     11 C11         3.9714   -0.8916    1.3214 C.3       1 <0>         0.0000
     12 C12        -2.4104    1.8154   -0.9211 C.3       1 <0>         0.0000
     13 C13        -2.8744    2.0367    0.5229 C.3       1 <0>         0.0000
     14 N1         -2.0626   -0.5719   -1.1546 N.pl3     1 <0>         0.0000
     15 N2         -4.0078    0.3227   -2.0789 N.pl3     1 <0>         0.0000
     16 O1         -0.9988    1.9370   -1.0778 O.3       1 <0>         0.0000
     17 H1         -0.4778   -2.4641   -0.0369 H         1 <0>         0.0000
     18 H2          1.3809    2.1424    0.0290 H         1 <0>         0.0000
     19 H3          1.3265   -3.1161    1.5758 H         1 <0>         0.0000
     20 H4          2.4015   -2.9855    0.1960 H         1 <0>         0.0000
     21 H5          3.6155    1.1059    0.5344 H         1 <0>         0.0000
     22 H6          2.9415    0.8260    2.1270 H         1 <0>         0.0000
     23 H7          2.7716   -1.6812    2.9365 H         1 <0>         0.0000
     24 H8          3.7955   -2.8880    2.1657 H         1 <0>         0.0000
     25 H9          4.3464   -1.2238    0.3453 H         1 <0>         0.0000
     26 H10         4.8462   -0.6440    1.9298 H         1 <0>         0.0000
     27 H11        -2.8309    2.5812   -1.5770 H         1 <0>         0.0000
     28 H12        -2.4672    1.2771    1.1947 H         1 <0>         0.0000
     29 H13        -3.9663    2.0158    0.5882 H         1 <0>         0.0000
     30 H14        -2.5245    3.0182    0.8510 H         1 <0>         0.0000
     31 H15        -2.3165   -1.5148   -1.4412 H         1 <0>         0.0000
     32 H16        -4.3601   -0.5680   -2.4159 H         1 <0>         0.0000
     33 H17        -4.5719    1.1409   -2.2775 H         1 <0>         0.0000
@<TRIPOS>BOND
     1    1    3 ar
     2    1    5 ar
     3    1   17 1
     4    2    4 ar
     5    2    6 ar
     6    2   18 1
     7    3    4 ar
     8    3    8 1
     9    4    9 1
    10    5    6 ar
    11    5   14 1
    12    6   16 1
    13    7   12 1
    14    7   14 1
    15    7   15 2
    16    8   10 1
    17    8   19 1
    18    8   20 1
    19    9   11 1
    20    9   21 1
    21    9   22 1
    22   10   11 1
    23   10   23 1
    24   10   24 1
    25   11   25 1
    26   11   26 1
    27   12   13 1
    28   12   16 1
    29   12   27 1
    30   13   28 1
    31   13   29 1
    32   13   30 1
    33   14   31 1
    34   15   32 1
    35   15   33 1
