@<TRIPOS>MOLECULE
*****
   31    31     0     0     0
SMALL
NO_CHARGES

@<TRIPOS>ATOM
      1 C1         -1.0995    2.3178    2.9039 C.ar      1 <0>         0.0000
      2 C2          0.3123    1.5693    4.6908 C.ar      1 <0>         0.0000
      3 C3         -2.1144    2.6037    3.8113 C.ar      1 <0>         0.0000
      4 C4         -0.6960    1.8496    5.6230 C.ar      1 <0>         0.0000
      5 C5          0.1365    1.7934    3.3227 C.ar      1 <0>         0.0000
      6 C6         -1.9196    2.3692    5.1822 C.ar      1 <0>         0.0000
      7 C7          0.9228   -1.0791    2.4756 C.3       1 <0>         0.0000
      8 C8          1.2115    1.4476    2.3197 C.3       1 <0>         0.0000
      9 C9         -4.0808    2.9536    8.0930 C.3       1 <0>         0.0000
     10 C10        -2.8153    2.4933    7.4012 C.3       1 <0>         0.0000
     11 C11         0.9416    0.1380    1.5508 C.3       1 <0>         0.0000
     12 N1          2.0133   -0.0366    0.5524 N.3       1 <0>         0.0000
     13 O1         -4.1182    4.3807    8.0758 O.3       1 <0>         0.0000
     14 O2         -2.9765    2.6774    5.9973 O.3       1 <0>         0.0000
     15 H1         -1.2669    2.5125    1.8461 H         1 <0>         0.0000
     16 H2          1.2571    1.1647    5.0474 H         1 <0>         0.0000
     17 H3         -3.0647    3.0167    3.4850 H         1 <0>         0.0000
     18 H4         -0.5113    1.6619    6.6747 H         1 <0>         0.0000
     19 H5          1.8903   -1.1870    2.9779 H         1 <0>         0.0000
     20 H6          0.7322   -1.9973    1.9071 H         1 <0>         0.0000
     21 H7          0.1403   -0.9841    3.2331 H         1 <0>         0.0000
     22 H8          1.3063    2.2616    1.5886 H         1 <0>         0.0000
     23 H9          2.1850    1.3557    2.8131 H         1 <0>         0.0000
     24 H10        -4.0667    2.5743    9.1262 H         1 <0>         0.0000
     25 H11        -4.9482    2.5209    7.5762 H         1 <0>         0.0000
     26 H12        -2.6402    1.4319    7.6265 H         1 <0>         0.0000
     27 H13        -1.9636    3.0786    7.7713 H         1 <0>         0.0000
     28 H14        -0.0548    0.2260    1.0834 H         1 <0>         0.0000
     29 H15         1.9858    0.7303   -0.1190 H         1 <0>         0.0000
     30 H16         1.8487   -0.8903    0.0201 H         1 <0>         0.0000
     31 H17        -5.0066    4.6688    8.3333 H         1 <0>         0.0000
@<TRIPOS>BOND
     1    1    3 ar
     2    1    5 ar
     3    1   15 1
     4    2    4 ar
     5    2    5 ar
     6    2   16 1
     7    3    6 ar
     8    3   17 1
     9    4    6 ar
    10    4   18 1
    11    5    8 1
    12    6   14 1
    13    7   11 1
    14    7   19 1
    15    7   20 1
    16    7   21 1
    17    8   11 1
    18    8   22 1
    19    8   23 1
    20    9   10 1
    21    9   13 1
    22    9   24 1
    23    9   25 1
    24   10   14 1
    25   10   26 1
    26   10   27 1
    27   11   12 1
    28   11   28 1
    29   12   29 1
    30   12   30 1
    31   13   31 1
