@<TRIPOS>MOLECULE
*****
   42    44     0     0     0
SMALL
NO_CHARGES

@<TRIPOS>ATOM
      1 C1        -10.2835    0.8759   -0.9410 C.ar      1 <0>         0.0000
      2 C2         -9.2530    1.5071   -0.2362 C.ar      1 <0>         0.0000
      3 C3         -9.9652   -0.0492   -1.9409 C.ar      1 <0>         0.0000
      4 C4         -7.9190    1.2158   -0.5291 C.ar      1 <0>         0.0000
      5 C5         -8.6306   -0.3398   -2.2320 C.ar      1 <0>         0.0000
      6 C6         -5.7408   -0.2356   -3.1612 C.ar      1 <0>         0.0000
      7 C7         -5.2007   -0.1076   -0.8269 C.ar      1 <0>         0.0000
      8 C8         -4.4066   -0.5271   -3.4535 C.ar      1 <0>         0.0000
      9 C9         -3.8717   -0.4019   -1.1245 C.ar      1 <0>         0.0000
     10 C10        -7.5850    0.2877   -1.5316 C.ar      1 <0>         0.0000
     11 C11        -6.1684   -0.0204   -1.8424 C.ar      1 <0>         0.0000
     12 C12        -3.4389   -0.6230   -2.4441 C.ar      1 <0>         0.0000
     13 C13         0.9293    0.7860   -3.6813 C.2       1 <0>         0.0000
     14 C14        -2.1363   -2.9212   -4.1224 C.3       1 <0>         0.0000
     15 C15        -2.0633   -3.3448   -2.6259 C.3       1 <0>         0.0000
     16 C16        -1.6933   -1.4411   -4.1494 C.3       1 <0>         0.0000
     17 C17        -1.4775   -2.1237   -1.8890 C.3       1 <0>         0.0000
     18 C18        -1.9590   -0.9105   -2.7246 C.3       1 <0>         0.0000
     19 C19        -1.1826    0.3981   -2.4280 C.3       1 <0>         0.0000
     20 N1          0.2642    0.3058   -2.5909 N.am      1 <0>         0.0000
     21 O1          0.4042    1.2899   -4.6660 O.2       1 <0>         0.0000
     22 H1        -11.3220    1.1025   -0.7140 H         1 <0>         0.0000
     23 H2         -9.4883    2.2352    0.5361 H         1 <0>         0.0000
     24 H3        -10.7578   -0.5525   -2.4889 H         1 <0>         0.0000
     25 H4         -7.1273    1.7340    0.0055 H         1 <0>         0.0000
     26 H5         -8.3965   -1.0806   -2.9918 H         1 <0>         0.0000
     27 H6         -6.4538   -0.1470   -3.9767 H         1 <0>         0.0000
     28 H7         -5.4970    0.0278    0.2099 H         1 <0>         0.0000
     29 H8         -4.1290   -0.6722   -4.4916 H         1 <0>         0.0000
     30 H9         -3.1629   -0.4717   -0.3033 H         1 <0>         0.0000
     31 H10         2.0261    0.6666   -3.5854 H         1 <0>         0.0000
     32 H11        -1.4918   -3.5371   -4.7564 H         1 <0>         0.0000
     33 H12        -3.1563   -3.0350   -4.5004 H         1 <0>         0.0000
     34 H13        -3.0650   -3.5622   -2.2434 H         1 <0>         0.0000
     35 H14        -1.4575   -4.2426   -2.4720 H         1 <0>         0.0000
     36 H15        -0.6171   -1.3825   -4.3318 H         1 <0>         0.0000
     37 H16        -2.1626   -0.8487   -4.9371 H         1 <0>         0.0000
     38 H17        -1.7716   -2.0820   -0.8369 H         1 <0>         0.0000
     39 H18        -0.3819   -2.1616   -1.9247 H         1 <0>         0.0000
     40 H19        -1.3916    0.7282   -1.4057 H         1 <0>         0.0000
     41 H20        -1.5307    1.1813   -3.1046 H         1 <0>         0.0000
     42 H21         0.8204   -0.0679   -1.8334 H         1 <0>         0.0000
@<TRIPOS>BOND
     1    1    3 ar
     2    1    2 ar
     3    1   22 1
     4    2    4 ar
     5    2   23 1
     6    3    5 ar
     7    3   24 1
     8    4   10 ar
     9    4   25 1
    10    5   10 ar
    11    5   26 1
    12    6    8 ar
    13    6   11 ar
    14    6   27 1
    15    7    9 ar
    16    7   11 ar
    17    7   28 1
    18    8   12 ar
    19    8   29 1
    20    9   12 ar
    21    9   30 1
    22   10   11 1
    23   12   18 1
    24   13   20 am
    25   13   21 2
    26   13   31 1
    27   14   15 1
    28   14   16 1
    29   14   32 1
    30   14   33 1
    31   15   17 1
    32   15   34 1
    33   15   35 1
    34   16   18 1
    35   16   36 1
    36   16   37 1
    37   17   18 1
    38   17   38 1
    39   17   39 1
    40   18   19 1
    41   19   20 1
    42   19   40 1
    43   19   41 1
    44   20   42 1
