@<TRIPOS>MOLECULE
*****
   33    35     0     0     0
SMALL
NO_CHARGES

@<TRIPOS>ATOM
      1 C1         -1.8363   -1.8243    1.3145 C.ar      1 <0>         0.0000
      2 C2         -1.1151   -0.6289    1.3676 C.ar      1 <0>         0.0000
      3 C3         -2.4511   -2.2192    0.1215 C.ar      1 <0>         0.0000
      4 C4         -1.0116    0.1730    0.2257 C.ar      1 <0>         0.0000
      5 C5         -2.3563   -1.4251   -1.0241 C.ar      1 <0>         0.0000
      6 C6         -1.6294   -0.2215   -0.9633 C.ar      1 <0>         0.0000
      7 C7         -0.9877    2.9203   -1.7306 C.cat     1 <0>         0.0000
      8 C8         -2.9874   -1.7888   -2.3445 C.3       1 <0>         0.0000
      9 C9         -1.9784   -1.6438   -3.5053 C.3       1 <0>         0.0000
     10 C10        -1.1426   -0.3373   -3.4327 C.3       1 <0>         0.0000
     11 C11        -0.6955    5.2412   -1.2907 C.3       1 <0>         0.0000
     12 C12        -2.0473    4.9663   -0.6294 C.3       1 <0>         0.0000
     13 C13        -1.5752    0.5626   -2.2589 C.3       1 <0>         0.0000
     14 N1         -0.1062    3.9098   -1.5184 N.pl3     1 <0>         0.0000
     15 N2         -0.6624    1.7233   -2.1873 N.pl3     1 <0>         0.0000
     16 S1         -2.6316    3.3678   -1.3488 S.3       1 <0>         0.0000
     17 H1         -1.9166   -2.4502    2.1987 H         1 <0>         0.0000
     18 H2         -0.6326   -0.3227    2.2913 H         1 <0>         0.0000
     19 H3         -3.0068   -3.1527    0.0810 H         1 <0>         0.0000
     20 H4         -0.4439    1.0983    0.2800 H         1 <0>         0.0000
     21 H5         -3.3808   -2.8081   -2.3203 H         1 <0>         0.0000
     22 H6         -3.8496   -1.1328   -2.5291 H         1 <0>         0.0000
     23 H7         -1.2992   -2.4995   -3.4871 H         1 <0>         0.0000
     24 H8         -2.5161   -1.6883   -4.4558 H         1 <0>         0.0000
     25 H9         -0.0845   -0.5867   -3.2884 H         1 <0>         0.0000
     26 H10        -1.2177    0.2316   -4.3644 H         1 <0>         0.0000
     27 H11        -0.8138    5.7642   -2.2456 H         1 <0>         0.0000
     28 H12        -0.0443    5.8243   -0.6373 H         1 <0>         0.0000
     29 H13        -1.9603    4.8383    0.4507 H         1 <0>         0.0000
     30 H14        -2.7818    5.7392   -0.8539 H         1 <0>         0.0000
     31 H15        -2.5679    0.9680   -2.4903 H         1 <0>         0.0000
     32 H16         0.8612    3.8201   -1.8139 H         1 <0>         0.0000
     33 H17         0.3176    1.5334   -2.3813 H         1 <0>         0.0000
@<TRIPOS>BOND
     1    1    2 ar
     2    1    3 ar
     3    1   17 1
     4    2    4 ar
     5    2   18 1
     6    3    5 ar
     7    3   19 1
     8    4    6 ar
     9    4   20 1
    10    5    6 ar
    11    5    8 1
    12    6   13 1
    13    7   14 1
    14    7   15 2
    15    7   16 1
    16    8    9 1
    17    8   21 1
    18    8   22 1
    19    9   10 1
    20    9   23 1
    21    9   24 1
    22   10   13 1
    23   10   25 1
    24   10   26 1
    25   11   12 1
    26   11   14 1
    27   11   27 1
    28   11   28 1
    29   12   16 1
    30   12   29 1
    31   12   30 1
    32   13   15 1
    33   13   31 1
    34   14   32 1
    35   15   33 1
