@<TRIPOS>MOLECULE
*****
   33    35     0     0     0
SMALL
NO_CHARGES

@<TRIPOS>ATOM
      1 C1         -1.6936    1.8590    0.0386 C.ar      1 <0>         0.0000
      2 C2         -1.0534    0.6160    0.1287 C.ar      1 <0>         0.0000
      3 C3         -3.0690    1.9157   -0.1781 C.ar      1 <0>         0.0000
      4 C4         -1.8055   -0.5504    0.0167 C.ar      1 <0>         0.0000
      5 C5         -3.8422    0.7483   -0.2968 C.ar      1 <0>         0.0000
      6 C6         -3.1971   -0.4974   -0.1773 C.ar      1 <0>         0.0000
      7 C7         -3.5157   -2.5652    2.0529 C.cat     1 <0>         0.0000
      8 C8         -5.3308    0.8573   -0.5678 C.3       1 <0>         0.0000
      9 C9         -5.9182   -0.4370   -1.1344 C.3       1 <0>         0.0000
     10 C10        -5.5049   -1.6205   -0.2583 C.3       1 <0>         0.0000
     11 C11        -3.6585   -1.3567    4.0974 C.3       1 <0>         0.0000
     12 C12        -3.0003   -2.6638    4.5517 C.3       1 <0>         0.0000
     13 C13        -3.9800   -1.8006   -0.2947 C.3       1 <0>         0.0000
     14 N1         -3.5867   -1.3670    2.6291 N.pl3     1 <0>         0.0000
     15 N2         -3.5594   -2.7865    0.7452 N.pl3     1 <0>         0.0000
     16 S1         -3.3622   -3.8763    3.2056 S.3       1 <0>         0.0000
     17 H1         -1.1184    2.7769    0.1206 H         1 <0>         0.0000
     18 H2          0.0212    0.5603    0.2768 H         1 <0>         0.0000
     19 H3         -3.5590    2.8819   -0.2730 H         1 <0>         0.0000
     20 H4         -1.3095   -1.5160    0.0843 H         1 <0>         0.0000
     21 H5         -5.8540    1.1163    0.3631 H         1 <0>         0.0000
     22 H6         -5.5096    1.6904   -1.2540 H         1 <0>         0.0000
     23 H7         -7.0087   -0.3709   -1.1806 H         1 <0>         0.0000
     24 H8         -5.5640   -0.5922   -2.1606 H         1 <0>         0.0000
     25 H9         -5.8279   -1.4370    0.7743 H         1 <0>         0.0000
     26 H10        -5.9851   -2.5482   -0.5841 H         1 <0>         0.0000
     27 H11        -4.7055   -1.3036    4.4128 H         1 <0>         0.0000
     28 H12        -3.1241   -0.4870    4.4839 H         1 <0>         0.0000
     29 H13        -1.9177   -2.5709    4.6493 H         1 <0>         0.0000
     30 H14        -3.4263   -3.0399    5.4815 H         1 <0>         0.0000
     31 H15        -3.7033   -2.2805   -1.2388 H         1 <0>         0.0000
     32 H16        -3.5993   -0.5182    2.0667 H         1 <0>         0.0000
     33 H17        -3.4496   -3.7499    0.4480 H         1 <0>         0.0000
@<TRIPOS>BOND
     1    1    2 ar
     2    1    3 ar
     3    1   17 1
     4    2    4 ar
     5    2   18 1
     6    3    5 ar
     7    3   19 1
     8    4    6 ar
     9    4   20 1
    10    5    6 ar
    11    5    8 1
    12    6   13 1
    13    7   14 2
    14    7   15 1
    15    7   16 1
    16    8    9 1
    17    8   21 1
    18    8   22 1
    19    9   10 1
    20    9   23 1
    21    9   24 1
    22   10   13 1
    23   10   25 1
    24   10   26 1
    25   11   12 1
    26   11   14 1
    27   11   27 1
    28   11   28 1
    29   12   16 1
    30   12   29 1
    31   12   30 1
    32   13   15 1
    33   13   31 1
    34   14   32 1
    35   15   33 1
