@<TRIPOS>MOLECULE
*****
   32    32     0     0     0
SMALL
NO_CHARGES

@<TRIPOS>ATOM
      1 C1          3.4775   -2.4596   -4.2267 C.ar      1 <0>         0.0000
      2 C2          1.8519   -1.0814   -5.3491 C.ar      1 <0>         0.0000
      3 C3          3.8481   -3.0264   -5.4422 C.ar      1 <0>         0.0000
      4 C4          2.2125   -1.6378   -6.5784 C.ar      1 <0>         0.0000
      5 C5          2.4711   -1.4757   -4.1550 C.ar      1 <0>         0.0000
      6 C6          3.2185   -2.6203   -6.6341 C.ar      1 <0>         0.0000
      7 C7          0.2923   -1.1553   -0.9251 C.3       1 <0>         0.0000
      8 C8          2.0274   -0.9133   -2.8222 C.3       1 <0>         0.0000
      9 C9          3.9588   -3.4426  -10.1215 C.3       1 <0>         0.0000
     10 C10         3.1635   -2.7554   -9.0331 C.3       1 <0>         0.0000
     11 C11         0.7132   -1.5474   -2.3340 C.3       1 <0>         0.0000
     12 N1          0.8841   -3.0693   -2.4096 N.4       1 <0>         0.0000
     13 O1          5.2757   -2.9035  -10.1049 O.3       1 <0>         0.0000
     14 O2          3.6481   -3.2234   -7.7621 O.3       1 <0>         0.0000
     15 H1          4.0149   -2.7549   -3.3261 H         1 <0>         0.0000
     16 H2          1.0843   -0.3098   -5.3311 H         1 <0>         0.0000
     17 H3          4.6413   -3.7653   -5.5012 H         1 <0>         0.0000
     18 H4          1.7177   -1.2953   -7.4796 H         1 <0>         0.0000
     19 H5          1.0679   -1.4029   -0.1922 H         1 <0>         0.0000
     20 H6          0.1393   -0.0739   -0.8895 H         1 <0>         0.0000
     21 H7         -0.6464   -1.6313   -0.6243 H         1 <0>         0.0000
     22 H8          1.8497    0.1648   -2.8837 H         1 <0>         0.0000
     23 H9          2.8039   -1.0582   -2.0615 H         1 <0>         0.0000
     24 H10         3.4545   -3.2486  -11.0796 H         1 <0>         0.0000
     25 H11         3.9589   -4.5270   -9.9436 H         1 <0>         0.0000
     26 H12         2.0980   -2.9975   -9.1337 H         1 <0>         0.0000
     27 H13         3.3032   -1.6712   -9.1079 H         1 <0>         0.0000
     28 H14        -0.0816   -1.3359   -3.0540 H         1 <0>         0.0000
     29 H15        -0.0071   -3.5695   -2.3178 H         1 <0>         0.0000
     30 H16         1.5120   -3.4069   -1.6703 H         1 <0>         0.0000
     31 H17         1.3227   -3.3077   -3.3175 H         1 <0>         0.0000
     32 H18         5.8115   -3.3628  -10.7698 H         1 <0>         0.0000
@<TRIPOS>BOND
     1    1    3 ar
     2    1    5 ar
     3    1   15 1
     4    2    4 ar
     5    2    5 ar
     6    2   16 1
     7    3    6 ar
     8    3   17 1
     9    4    6 ar
    10    4   18 1
    11    5    8 1
    12    6   14 1
    13    7   11 1
    14    7   19 1
    15    7   20 1
    16    7   21 1
    17    8   11 1
    18    8   22 1
    19    8   23 1
    20    9   10 1
    21    9   13 1
    22    9   24 1
    23    9   25 1
    24   10   14 1
    25   10   26 1
    26   10   27 1
    27   11   12 1
    28   11   28 1
    29   12   29 1
    30   12   30 1
    31   12   31 1
    32   13   32 1
