@<TRIPOS>MOLECULE
*****
   32    34     0     0     0
SMALL
NO_CHARGES

@<TRIPOS>ATOM
      1 C1         -0.1386    0.6038   -1.7615 C.ar      1 <0>         0.0000
      2 C2         -0.5875   -0.0902   -0.6303 C.ar      1 <0>         0.0000
      3 C3         -0.2478    0.0165   -3.0210 C.ar      1 <0>         0.0000
      4 C4         -1.1400   -1.3602   -0.7836 C.ar      1 <0>         0.0000
      5 C5         -0.8014   -1.2639   -3.1871 C.ar      1 <0>         0.0000
      6 C6         -1.2502   -1.9572   -2.0497 C.ar      1 <0>         0.0000
      7 C7         -4.1444   -4.0523   -1.2720 C.2       1 <0>         0.0000
      8 C8         -0.8694   -1.8779   -4.5728 C.3       1 <0>         0.0000
      9 C9         -1.8344   -3.0637   -4.6581 C.3       1 <0>         0.0000
     10 C10        -1.5938   -4.0196   -3.4894 C.3       1 <0>         0.0000
     11 C11        -5.9725   -4.9186   -0.2390 C.3       1 <0>         0.0000
     12 C12        -4.9669   -6.0613    0.0281 C.3       1 <0>         0.0000
     13 C13        -1.8994   -3.3289   -2.1525 C.3       1 <0>         0.0000
     14 N1         -5.2589   -3.7416   -0.7178 N.2       1 <0>         0.0000
     15 N2         -3.3561   -3.1672   -1.9571 N.pl3     1 <0>         0.0000
     16 S1         -3.6314   -5.7899   -1.1997 S.3       1 <0>         0.0000
     17 H1          0.2915    1.5970   -1.6595 H         1 <0>         0.0000
     18 H2         -0.5068    0.3563    0.3573 H         1 <0>         0.0000
     19 H3          0.0990    0.5583   -3.8989 H         1 <0>         0.0000
     20 H4         -1.4977   -1.9047    0.0882 H         1 <0>         0.0000
     21 H5         -1.1398   -1.1058   -5.3018 H         1 <0>         0.0000
     22 H6          0.1389   -2.2173   -4.8489 H         1 <0>         0.0000
     23 H7         -2.8721   -2.7113   -4.6228 H         1 <0>         0.0000
     24 H8         -1.7049   -3.5824   -5.6137 H         1 <0>         0.0000
     25 H9         -2.2136   -4.9164   -3.5807 H         1 <0>         0.0000
     26 H10        -0.5461   -4.3485   -3.4845 H         1 <0>         0.0000
     27 H11        -6.7064   -5.2329   -0.9954 H         1 <0>         0.0000
     28 H12        -6.5258   -4.6778    0.6747 H         1 <0>         0.0000
     29 H13        -4.5393   -5.9987    1.0324 H         1 <0>         0.0000
     30 H14        -5.4029   -7.0515   -0.1180 H         1 <0>         0.0000
     31 H15        -1.5172   -3.9520   -1.3368 H         1 <0>         0.0000
     32 H16        -3.6980   -2.2147   -1.8940 H         1 <0>         0.0000
@<TRIPOS>BOND
     1    1    2 ar
     2    1    3 ar
     3    1   17 1
     4    2    4 ar
     5    2   18 1
     6    3    5 ar
     7    3   19 1
     8    4    6 ar
     9    4   20 1
    10    5    6 ar
    11    5    8 1
    12    6   13 1
    13    7   14 2
    14    7   15 1
    15    7   16 1
    16    8    9 1
    17    8   21 1
    18    8   22 1
    19    9   10 1
    20    9   23 1
    21    9   24 1
    22   10   13 1
    23   10   25 1
    24   10   26 1
    25   11   12 1
    26   11   14 1
    27   11   27 1
    28   11   28 1
    29   12   16 1
    30   12   29 1
    31   12   30 1
    32   13   15 1
    33   13   31 1
    34   15   32 1
