@<TRIPOS>MOLECULE
*****
   32    34     0     0     0
SMALL
NO_CHARGES

@<TRIPOS>ATOM
      1 C1         -1.6488    1.5431   -0.3507 C.ar      1 <0>         0.0000
      2 C2         -1.0839    0.2821   -0.1302 C.ar      1 <0>         0.0000
      3 C3         -3.0167    1.6456   -0.6020 C.ar      1 <0>         0.0000
      4 C4         -1.8969   -0.8498   -0.1671 C.ar      1 <0>         0.0000
      5 C5         -3.8432    0.5121   -0.6357 C.ar      1 <0>         0.0000
      6 C6         -3.2734   -0.7535   -0.4140 C.ar      1 <0>         0.0000
      7 C7         -3.7166   -2.7435    1.8531 C.2       1 <0>         0.0000
      8 C8         -5.3302    0.6783   -0.8762 C.3       1 <0>         0.0000
      9 C9         -5.9898   -0.6077   -1.3807 C.3       1 <0>         0.0000
     10 C10        -5.6239   -1.7735   -0.4610 C.3       1 <0>         0.0000
     11 C11        -4.1413   -1.7552    3.8503 C.3       1 <0>         0.0000
     12 C12        -3.0394   -2.7492    4.2876 C.3       1 <0>         0.0000
     13 C13        -4.1121   -2.0321   -0.4919 C.3       1 <0>         0.0000
     14 N1         -4.1938   -1.6884    2.3955 N.2       1 <0>         0.0000
     15 N2         -3.7326   -3.0393    0.5138 N.pl3     1 <0>         0.0000
     16 S1         -2.9966   -3.9996    2.9467 S.3       1 <0>         0.0000
     17 H1         -1.0284    2.4356   -0.3287 H         1 <0>         0.0000
     18 H2         -0.0197    0.1829    0.0685 H         1 <0>         0.0000
     19 H3         -3.4601    2.6248   -0.7742 H         1 <0>         0.0000
     20 H4         -1.4535   -1.8256    0.0177 H         1 <0>         0.0000
     21 H5         -5.8053    0.9719    0.0699 H         1 <0>         0.0000
     22 H6         -5.5001    1.5026   -1.5779 H         1 <0>         0.0000
     23 H7         -7.0776   -0.4832   -1.4180 H         1 <0>         0.0000
     24 H8         -5.6576   -0.8183   -2.4063 H         1 <0>         0.0000
     25 H9         -5.9201   -1.5387    0.5646 H         1 <0>         0.0000
     26 H10        -6.1407   -2.6929   -0.7554 H         1 <0>         0.0000
     27 H11        -5.1186   -2.0824    4.2331 H         1 <0>         0.0000
     28 H12        -3.9417   -0.7612    4.2634 H         1 <0>         0.0000
     29 H13        -2.0616   -2.2646    4.3504 H         1 <0>         0.0000
     30 H14        -3.2647   -3.2366    5.2381 H         1 <0>         0.0000
     31 H15        -3.8825   -2.5087   -1.4535 H         1 <0>         0.0000
     32 H16        -3.0376   -3.7134    0.2230 H         1 <0>         0.0000
@<TRIPOS>BOND
     1    1    2 ar
     2    1    3 ar
     3    1   17 1
     4    2    4 ar
     5    2   18 1
     6    3    5 ar
     7    3   19 1
     8    4    6 ar
     9    4   20 1
    10    5    6 ar
    11    5    8 1
    12    6   13 1
    13    7   14 2
    14    7   15 1
    15    7   16 1
    16    8    9 1
    17    8   21 1
    18    8   22 1
    19    9   10 1
    20    9   23 1
    21    9   24 1
    22   10   13 1
    23   10   25 1
    24   10   26 1
    25   11   12 1
    26   11   14 1
    27   11   27 1
    28   11   28 1
    29   12   16 1
    30   12   29 1
    31   12   30 1
    32   13   15 1
    33   13   31 1
    34   15   32 1
