@<TRIPOS>MOLECULE
*****
   35    36     0     0     0
SMALL
NO_CHARGES

@<TRIPOS>ATOM
      1 C1         -1.3730   -3.9857    4.3305 C.ar      1 <0>         0.0000
      2 C2         -3.5427   -3.7687    2.7662 C.ar      1 <0>         0.0000
      3 C3         -1.3114   -3.3737    3.0747 C.ar      1 <0>         0.0000
      4 C4         -3.5811   -4.3806    4.0312 C.ar      1 <0>         0.0000
      5 C5         -0.0003   -2.8238    2.5718 C.2       1 <0>         0.0000
      6 C6          2.0409   -2.7476    0.1402 C.3       1 <0>         0.0000
      7 C7          0.6498   -0.7431   -0.4501 C.3       1 <0>         0.0000
      8 C8          1.4162   -3.4685   -1.0526 C.3       1 <0>         0.0000
      9 C9          0.0849   -1.5308   -1.6364 C.3       1 <0>         0.0000
     10 C10         1.1025   -1.6608    0.6905 C.3       1 <0>         0.0000
     11 C11         0.6179   -3.1931   -3.3281 C.3       1 <0>         0.0000
     12 C12         1.8021   -3.5504   -4.2119 C.3       1 <0>         0.0000
     13 N1         -2.4026   -3.2688    2.2965 N.ar      1 <0>         0.0000
     14 N2         -2.5183   -4.4921    4.8091 N.ar      1 <0>         0.0000
     15 N3          1.0552   -2.5182   -2.1128 N.3       1 <0>         0.0000
     16 N4         -0.0683   -2.2461    1.3493 N.am      1 <0>         0.0000
     17 O1          1.0271   -2.9128    3.2496 O.2       1 <0>         0.0000
     18 F1          2.3286   -2.4178   -4.7838 F         1 <0>         0.0000
     19 F2          1.3747   -4.3654   -5.2400 F         1 <0>         0.0000
     20 Cl1        -5.0966   -5.0293    4.6130 Cl        1 <0>         0.0000
     21 H1         -0.4834   -4.0633    4.9478 H         1 <0>         0.0000
     22 H2         -4.4337   -3.6911    2.1488 H         1 <0>         0.0000
     23 H3          2.2813   -3.4593    0.9340 H         1 <0>         0.0000
     24 H4          2.9746   -2.2702   -0.1771 H         1 <0>         0.0000
     25 H5          1.5189   -0.1750   -0.7958 H         1 <0>         0.0000
     26 H6         -0.0948   -0.0246   -0.0894 H         1 <0>         0.0000
     27 H7          2.1316   -4.1934   -1.4531 H         1 <0>         0.0000
     28 H8          0.5304   -4.0455   -0.7227 H         1 <0>         0.0000
     29 H9         -0.8764   -2.0101   -1.3591 H         1 <0>         0.0000
     30 H10        -0.1356   -0.8387   -2.4546 H         1 <0>         0.0000
     31 H11         1.6376   -1.0822    1.4489 H         1 <0>         0.0000
     32 H12        -0.0231   -2.5297   -3.9159 H         1 <0>         0.0000
     33 H13         0.0439   -4.1134   -3.1269 H         1 <0>         0.0000
     34 H14         2.6163   -4.0654   -3.6954 H         1 <0>         0.0000
     35 H15        -0.9753   -2.2441    0.8968 H         1 <0>         0.0000
@<TRIPOS>BOND
     1    1    3 ar
     2    1   14 ar
     3    1   21 1
     4    2    4 ar
     5    2   13 ar
     6    2   22 1
     7    3    5 1
     8    3   13 ar
     9    4   14 ar
    10    4   20 1
    11    5   16 am
    12    5   17 2
    13    6    8 1
    14    6   10 1
    15    6   23 1
    16    6   24 1
    17    7    9 1
    18    7   10 1
    19    7   25 1
    20    7   26 1
    21    8   15 1
    22    8   27 1
    23    8   28 1
    24    9   15 1
    25    9   29 1
    26    9   30 1
    27   10   16 1
    28   10   31 1
    29   11   12 1
    30   11   15 1
    31   11   32 1
    32   11   33 1
    33   12   18 1
    34   12   19 1
    35   12   34 1
    36   16   35 1
