@<TRIPOS>MOLECULE
*****
   55    58     0     0     0
SMALL
NO_CHARGES

@<TRIPOS>ATOM
      1 C1          2.2312    2.2899    1.4121 C.ar      1 <0>         0.0000
      2 C2          1.6422    1.7398    0.2484 C.ar      1 <0>         0.0000
      3 C3          2.0835    1.7120    2.6780 C.ar      1 <0>         0.0000
      4 C4          0.7738   -0.0246    1.5766 C.ar      1 <0>         0.0000
      5 C5          0.8934    0.5634    0.3158 C.ar      1 <0>         0.0000
      6 C6          0.1004   -1.2371    1.9140 C.2       1 <0>         0.0000
      7 C7          1.3284    0.5343    2.7496 C.ar      1 <0>         0.0000
      8 C8          0.2331   -1.3915    3.2737 C.2       1 <0>         0.0000
      9 C9         -0.4797   -2.0535    0.7972 C.3       1 <0>         0.0000
     10 C10        -0.4871    0.9295   -1.7797 C.3       1 <0>         0.0000
     11 C11        -1.6911   -1.0625   -2.6972 C.3       1 <0>         0.0000
     12 C12         0.1669   -0.1156   -0.8349 C.3       1 <0>         0.0000
     13 C13        -1.8062    0.4294   -2.3994 C.3       1 <0>         0.0000
     14 C14        -0.9319   -1.1141   -0.3456 C.3       1 <0>         0.0000
     15 C15        -3.2654   -4.1998   -2.2669 C.3       1 <0>         0.0000
     16 C16         0.2746   -3.7055    6.1129 C.3       1 <0>         0.0000
     17 C17        -3.8708    2.0765   -5.6538 C.3       1 <0>         0.0000
     18 C18        -0.2915   -2.4335    4.2009 C.3       1 <0>         0.0000
     19 C19        -2.1390    1.2471   -3.6499 C.3       1 <0>         0.0000
     20 C20        -1.8356   -3.9790   -2.7710 C.3       1 <0>         0.0000
     21 C21        -0.9679   -3.1714   -1.7934 C.3       1 <0>         0.0000
     22 N1          0.9432   -0.2970    3.7918 N.pl3     1 <0>         0.0000
     23 N2         -1.5401   -1.8625   -1.4726 N.3       1 <0>         0.0000
     24 O1          0.7270   -2.7705    5.1449 O.3       1 <0>         0.0000
     25 S1         -3.8393    0.9067   -4.2546 S.3       1 <0>         0.0000
     26 H1          2.8124    3.2040    1.3203 H         1 <0>         0.0000
     27 H2          1.7781    2.2549   -0.6993 H         1 <0>         0.0000
     28 H3          2.5337    2.1689    3.5556 H         1 <0>         0.0000
     29 H4          0.2971   -2.7374    0.4370 H         1 <0>         0.0000
     30 H5         -1.3314   -2.6654    1.1122 H         1 <0>         0.0000
     31 H6         -0.6807    1.8533   -1.2257 H         1 <0>         0.0000
     32 H7          0.2158    1.1863   -2.5817 H         1 <0>         0.0000
     33 H8         -2.5723   -1.4074   -3.2459 H         1 <0>         0.0000
     34 H9         -0.8249   -1.2044   -3.3751 H         1 <0>         0.0000
     35 H10         0.8974   -0.7014   -1.4102 H         1 <0>         0.0000
     36 H11        -2.6183    0.5754   -1.6779 H         1 <0>         0.0000
     37 H12        -1.7283   -0.4982    0.0923 H         1 <0>         0.0000
     38 H13        -3.2642   -4.7241   -1.3038 H         1 <0>         0.0000
     39 H14        -3.7819   -3.2474   -2.1193 H         1 <0>         0.0000
     40 H15        -3.8447   -4.8006   -2.9764 H         1 <0>         0.0000
     41 H16         1.1084   -3.8938    6.7926 H         1 <0>         0.0000
     42 H17        -0.0273   -4.6533    5.6431 H         1 <0>         0.0000
     43 H18        -0.5776   -3.3103    6.6863 H         1 <0>         0.0000
     44 H19        -4.8525    1.9921   -6.1264 H         1 <0>         0.0000
     45 H20        -3.1025    1.8299   -6.3927 H         1 <0>         0.0000
     46 H21        -3.7326    3.1064   -5.3111 H         1 <0>         0.0000
     47 H22        -1.1776   -2.0645    4.7456 H         1 <0>         0.0000
     48 H23        -0.5998   -3.3179    3.6254 H         1 <0>         0.0000
     49 H24        -1.4239    1.0224   -4.4506 H         1 <0>         0.0000
     50 H25        -2.0646    2.3161   -3.4200 H         1 <0>         0.0000
     51 H26        -1.8569   -3.4993   -3.7553 H         1 <0>         0.0000
     52 H27        -1.3394   -4.9463   -2.9200 H         1 <0>         0.0000
     53 H28        -0.8887   -3.7600   -0.8781 H         1 <0>         0.0000
     54 H29         0.0541   -3.0847   -2.2150 H         1 <0>         0.0000
     55 H30         1.3562   -0.3174    4.7146 H         1 <0>         0.0000
@<TRIPOS>BOND
     1    1    2 ar
     2    1    3 ar
     3    1   26 1
     4    2    5 ar
     5    2   27 1
     6    3    7 ar
     7    3   28 1
     8    4    5 ar
     9    4    6 1
    10    4    7 ar
    11    5   12 1
    12    6    8 2
    13    6    9 1
    14    7   22 1
    15    8   18 1
    16    8   22 1
    17    9   14 1
    18    9   29 1
    19    9   30 1
    20   10   12 1
    21   10   13 1
    22   10   31 1
    23   10   32 1
    24   11   13 1
    25   11   23 1
    26   11   33 1
    27   11   34 1
    28   12   14 1
    29   12   35 1
    30   13   19 1
    31   13   36 1
    32   14   23 1
    33   14   37 1
    34   15   20 1
    35   15   38 1
    36   15   39 1
    37   15   40 1
    38   16   24 1
    39   16   41 1
    40   16   42 1
    41   16   43 1
    42   17   25 1
    43   17   44 1
    44   17   45 1
    45   17   46 1
    46   18   24 1
    47   18   47 1
    48   18   48 1
    49   19   25 1
    50   19   49 1
    51   19   50 1
    52   20   21 1
    53   20   51 1
    54   20   52 1
    55   21   23 1
    56   21   53 1
    57   21   54 1
    58   22   55 1
