@<TRIPOS>MOLECULE
*****
   40    41     0     0     0
SMALL
NO_CHARGES

@<TRIPOS>ATOM
      1 C1          0.1590   -7.6516   -3.0060 C.ar      1 <0>         0.0000
      2 C2          0.5630   -7.4892   -1.6770 C.ar      1 <0>         0.0000
      3 C3          1.1147   -7.6327   -4.0268 C.ar      1 <0>         0.0000
      4 C4          1.9136   -7.3004   -1.3733 C.ar      1 <0>         0.0000
      5 C5          2.4653   -7.4416   -3.7240 C.ar      1 <0>         0.0000
      6 C6          2.8721   -7.2730   -2.3938 C.ar      1 <0>         0.0000
      7 C7          5.3014   -7.8724   -2.8112 C.2       1 <0>         0.0000
      8 C8          4.4965   -5.4616   -2.2907 C.2       1 <0>         0.0000
      9 C9          0.0887   -1.7382   -2.9583 C.3       1 <0>         0.0000
     10 C10         0.2941   -3.2587   -2.9651 C.3       1 <0>         0.0000
     11 C11         0.7079   -1.1003   -1.7069 C.3       1 <0>         0.0000
     12 C12         1.7760   -3.6297   -2.8208 C.3       1 <0>         0.0000
     13 C13         2.1904   -1.4729   -1.5596 C.3       1 <0>         0.0000
     14 C14         2.3930   -2.9989   -1.5611 C.3       1 <0>         0.0000
     15 C15         3.8779   -3.3153   -1.4110 C.3       1 <0>         0.0000
     16 C16         4.3283   -6.9558   -2.0458 C.3       1 <0>         0.0000
     17 O1          5.5600   -8.9780   -2.3927 O.2       1 <0>         0.0000
     18 O2          4.9108   -4.9778   -3.3396 O.2       1 <0>         0.0000
     19 O3          5.8051   -7.4086   -3.9699 O.3       1 <0>         0.0000
     20 O4          4.0676   -4.7547   -1.2464 O.3       1 <0>         0.0000
     21 H1         -0.8915   -7.7960   -3.2438 H         1 <0>         0.0000
     22 H2         -0.1720   -7.5087   -0.8767 H         1 <0>         0.0000
     23 H3          0.8097   -7.7644   -5.0615 H         1 <0>         0.0000
     24 H4          2.2235   -7.1618   -0.3410 H         1 <0>         0.0000
     25 H5          3.1970   -7.4232   -4.5267 H         1 <0>         0.0000
     26 H6         -0.9791   -1.4968   -3.0161 H         1 <0>         0.0000
     27 H7          0.5579   -1.3063   -3.8531 H         1 <0>         0.0000
     28 H8         -0.2702   -3.7075   -2.1361 H         1 <0>         0.0000
     29 H9         -0.1071   -3.6961   -3.8862 H         1 <0>         0.0000
     30 H10         0.6006   -0.0100   -1.7406 H         1 <0>         0.0000
     31 H11         0.1613   -1.4426   -0.8174 H         1 <0>         0.0000
     32 H12         1.8750   -4.7177   -2.7911 H         1 <0>         0.0000
     33 H13         2.3310   -3.2833   -3.7032 H         1 <0>         0.0000
     34 H14         2.7572   -1.0346   -2.3933 H         1 <0>         0.0000
     35 H15         2.5980   -1.0378   -0.6384 H         1 <0>         0.0000
     36 H16         1.8775   -3.4136   -0.6831 H         1 <0>         0.0000
     37 H17         4.2875   -2.8755   -0.4989 H         1 <0>         0.0000
     38 H18         4.4575   -2.9777   -2.2717 H         1 <0>         0.0000
     39 H19         4.4836   -7.1562   -0.9857 H         1 <0>         0.0000
     40 H20         5.5572   -6.4561   -4.0685 H         1 <0>         0.0000
@<TRIPOS>BOND
     1    1    3 ar
     2    1    2 ar
     3    1   21 1
     4    2    4 ar
     5    2   22 1
     6    3    5 ar
     7    3   23 1
     8    4    6 ar
     9    4   24 1
    10    5    6 ar
    11    5   25 1
    12    6   16 1
    13    7   16 1
    14    7   17 2
    15    7   19 1
    16    8   16 1
    17    8   18 2
    18    8   20 1
    19    9   11 1
    20    9   10 1
    21    9   26 1
    22    9   27 1
    23   10   12 1
    24   10   28 1
    25   10   29 1
    26   11   13 1
    27   11   30 1
    28   11   31 1
    29   12   14 1
    30   12   32 1
    31   12   33 1
    32   13   14 1
    33   13   34 1
    34   13   35 1
    35   14   15 1
    36   14   36 1
    37   15   20 1
    38   15   37 1
    39   15   38 1
    40   16   39 1
    41   19   40 1
