@<TRIPOS>MOLECULE
*****
   39    41     0     0     0
SMALL
NO_CHARGES

@<TRIPOS>ATOM
      1 C1         -0.6178    2.1805   -0.0613 C.1       1 <0>         0.0000
      2 C2          3.3259   -2.0689   -4.6366 C.ar      1 <0>         0.0000
      3 C3          2.2896   -1.1864   -4.9571 C.ar      1 <0>         0.0000
      4 C4          3.7007   -2.2372   -3.2984 C.ar      1 <0>         0.0000
      5 C5          1.6324   -0.4795   -3.9443 C.ar      1 <0>         0.0000
      6 C6          3.0414   -1.5297   -2.2899 C.ar      1 <0>         0.0000
      7 C7          2.6406   -2.6697    1.9646 C.2       1 <0>         0.0000
      8 C8          0.7497   -2.2290    2.7724 C.2       1 <0>         0.0000
      9 C9          1.9997   -0.6422   -2.6018 C.ar      1 <0>         0.0000
     10 C10        -2.6512    0.8636   -0.7642 C.3       1 <0>         0.0000
     11 C11        -2.7633    1.1394    0.7072 C.3       1 <0>         0.0000
     12 C12        -1.3825    0.9608    0.0732 C.3       1 <0>         0.0000
     13 C13         1.2627    0.0817   -1.4964 C.3       1 <0>         0.0000
     14 C14         0.1805   -0.8289   -0.8882 C.3       1 <0>         0.0000
     15 C15         0.3719   -0.0395    1.5568 C.3       1 <0>         0.0000
     16 C16        -0.5641   -0.3155    0.3559 C.3       1 <0>         0.0000
     17 N1         -0.0189    3.1756   -0.1502 N.1       1 <0>         0.0000
     18 N2          1.6887   -3.1663    2.8086 N.2       1 <0>         0.0000
     19 N3          2.3473   -1.4948    1.4165 N.2       1 <0>         0.0000
     20 N4          1.1227   -1.2172    1.9523 N.pl3     1 <0>         0.0000
     21 O1         -1.5196   -1.3093    0.7610 O.3       1 <0>         0.0000
     22 H1          3.8405   -2.6165   -5.4221 H         1 <0>         0.0000
     23 H2          1.9968   -1.0445   -5.9945 H         1 <0>         0.0000
     24 H3          4.5102   -2.9166   -3.0427 H         1 <0>         0.0000
     25 H4          0.8317    0.2119   -4.2004 H         1 <0>         0.0000
     26 H5          3.3324   -1.6569   -1.2495 H         1 <0>         0.0000
     27 H6          3.5722   -3.1784    1.7521 H         1 <0>         0.0000
     28 H7         -0.1878   -2.2310    3.3130 H         1 <0>         0.0000
     29 H8         -2.9096   -0.1340   -1.1024 H         1 <0>         0.0000
     30 H9         -2.8470    1.6671   -1.4660 H         1 <0>         0.0000
     31 H10        -3.0250    2.1417    1.0290 H         1 <0>         0.0000
     32 H11        -3.0976    0.3298    1.3443 H         1 <0>         0.0000
     33 H12         1.9745    0.3767   -0.7215 H         1 <0>         0.0000
     34 H13         0.8112    0.9960   -1.8888 H         1 <0>         0.0000
     35 H14         0.6564   -1.7802   -0.6212 H         1 <0>         0.0000
     36 H15        -0.5716   -1.0541   -1.6526 H         1 <0>         0.0000
     37 H16        -0.2430    0.2731    2.4040 H         1 <0>         0.0000
     38 H17         1.0867    0.7533    1.3375 H         1 <0>         0.0000
     39 H18        -1.1839   -2.1779    0.4886 H         1 <0>         0.0000
@<TRIPOS>BOND
     1    1   12 1
     2    1   17 3
     3    2    4 ar
     4    2    3 ar
     5    2   22 1
     6    3    5 ar
     7    3   23 1
     8    4    6 ar
     9    4   24 1
    10    5    9 ar
    11    5   25 1
    12    6    9 ar
    13    6   26 1
    14    7   18 1
    15    7   19 2
    16    7   27 1
    17    8   18 2
    18    8   20 1
    19    8   28 1
    20    9   13 1
    21   10   11 1
    22   10   12 1
    23   10   29 1
    24   10   30 1
    25   11   12 1
    26   11   31 1
    27   11   32 1
    28   12   16 1
    29   13   14 1
    30   13   33 1
    31   13   34 1
    32   14   16 1
    33   14   35 1
    34   14   36 1
    35   15   16 1
    36   15   20 1
    37   15   37 1
    38   15   38 1
    39   16   21 1
    40   19   20 1
    41   21   39 1
