@<TRIPOS>MOLECULE
*****
   33    33     0     0     0
SMALL
NO_CHARGES

@<TRIPOS>ATOM
      1 C1         -1.1525   -1.8213    0.3439 C.3       1 <0>         0.0000
      2 C2         -1.8079   -2.1685    1.6940 C.3       1 <0>         0.0000
      3 C3          0.2871   -2.3790    0.4296 C.3       1 <0>         0.0000
      4 C4         -1.1333   -3.4786    2.0948 C.3       1 <0>         0.0000
      5 C5         -1.3114   -3.9183    3.5504 C.3       1 <0>         0.0000
      6 C6          0.6845   -8.9539    2.7301 C.3       1 <0>         0.0000
      7 C7         -0.4272   -5.0721    4.0665 C.3       1 <0>         0.0000
      8 C8          0.4321   -7.8123    3.7181 C.3       1 <0>         0.0000
      9 C9          1.3218  -10.1346    3.4448 C.3       1 <0>         0.0000
     10 N1          0.3151   -3.2213    1.7026 N.4       1 <0>         0.0000
     11 O1          0.7465   -5.9255    1.8545 O.2       1 <0>         0.0000
     12 O2         -1.6199   -6.7392    2.3372 O.2       1 <0>         0.0000
     13 F1          2.5084   -9.7858    4.0032 F         1 <0>         0.0000
     14 F2          0.5284  -10.5941    4.4427 F         1 <0>         0.0000
     15 F3          1.5462  -11.1468    2.5903 F         1 <0>         0.0000
     16 S1         -0.2781   -6.4048    2.8305 S.o2      1 <0>         0.0000
     17 H1         -1.6890   -2.3056   -0.4746 H         1 <0>         0.0000
     18 H2         -1.1525   -0.7479    0.1497 H         1 <0>         0.0000
     19 H3         -1.6087   -1.3954    2.4454 H         1 <0>         0.0000
     20 H4         -2.8903   -2.2858    1.6165 H         1 <0>         0.0000
     21 H5          0.5433   -3.0355   -0.4013 H         1 <0>         0.0000
     22 H6          1.0547   -1.6106    0.5193 H         1 <0>         0.0000
     23 H7         -1.4588   -4.2781    1.4243 H         1 <0>         0.0000
     24 H8         -2.3600   -4.2090    3.6485 H         1 <0>         0.0000
     25 H9         -1.1564   -3.0657    4.2215 H         1 <0>         0.0000
     26 H10         1.3641   -8.6411    1.9346 H         1 <0>         0.0000
     27 H11        -0.2498   -9.2975    2.2813 H         1 <0>         0.0000
     28 H12         0.5956   -4.7611    4.2962 H         1 <0>         0.0000
     29 H13        -0.8706   -5.5015    4.9685 H         1 <0>         0.0000
     30 H14        -0.2920   -8.0928    4.4868 H         1 <0>         0.0000
     31 H15         1.3583   -7.4613    4.1800 H         1 <0>         0.0000
     32 H16         0.7890   -4.1429    1.5857 H         1 <0>         0.0000
     33 H17         0.7959   -2.7116    2.4493 H         1 <0>         0.0000
@<TRIPOS>BOND
     1    1    2 1
     2    1    3 1
     3    1   17 1
     4    1   18 1
     5    2    4 1
     6    2   19 1
     7    2   20 1
     8    3   10 1
     9    3   21 1
    10    3   22 1
    11    4    5 1
    12    4   10 1
    13    4   23 1
    14    5    7 1
    15    5   24 1
    16    5   25 1
    17    6    8 1
    18    6    9 1
    19    6   26 1
    20    6   27 1
    21    7   16 1
    22    7   28 1
    23    7   29 1
    24    8   16 1
    25    8   30 1
    26    8   31 1
    27    9   13 1
    28    9   14 1
    29    9   15 1
    30   10   32 1
    31   10   33 1
    32   11   16 2
    33   12   16 2
