@<TRIPOS>MOLECULE
*****
   29    31     0     0     0
SMALL
NO_CHARGES

@<TRIPOS>ATOM
      1 C1          1.0717    2.2234    0.2178 C.ar      1 <0>         0.0000
      2 C2         -0.2352    1.8631   -0.1337 C.ar      1 <0>         0.0000
      3 C3          1.4964    2.1391    1.5511 C.ar      1 <0>         0.0000
      4 C4         -1.1338    1.4145    0.8443 C.ar      1 <0>         0.0000
      5 C5          0.6008    1.6920    2.5220 C.ar      1 <0>         0.0000
      6 C6         -0.7109    1.3313    2.1705 C.ar      1 <0>         0.0000
      7 C7         -0.4509   -0.5219    6.0501 C.2       1 <0>         0.0000
      8 C8          0.8197    1.4976    4.0051 C.3       1 <0>         0.0000
      9 C9         -1.4772    0.8687    3.3884 C.3       1 <0>         0.0000
     10 C10         0.1009   -2.6531    5.9252 C.3       1 <0>         0.0000
     11 C11        -0.0383   -2.2588    7.4186 C.3       1 <0>         0.0000
     12 C12        -0.6335    1.4499    4.5519 C.3       1 <0>         0.0000
     13 N1         -0.0777   -1.3959    5.1866 N.2       1 <0>         0.0000
     14 N2         -0.8221    0.7725    5.8324 N.pl3     1 <0>         0.0000
     15 O1         -0.5384   -0.8955    7.3729 O.3       1 <0>         0.0000
     16 H1          1.7590    2.5746   -0.5480 H         1 <0>         0.0000
     17 H2         -0.5552    1.9367   -1.1702 H         1 <0>         0.0000
     18 H3          2.5114    2.4230    1.8212 H         1 <0>         0.0000
     19 H4         -2.1497    1.1394    0.5685 H         1 <0>         0.0000
     20 H5          1.3137    0.5389    4.1964 H         1 <0>         0.0000
     21 H6          1.4150    2.2905    4.4700 H         1 <0>         0.0000
     22 H7         -2.5142    1.2175    3.4174 H         1 <0>         0.0000
     23 H8         -1.4800   -0.2242    3.4483 H         1 <0>         0.0000
     24 H9          1.0797   -3.0928    5.7075 H         1 <0>         0.0000
     25 H10        -0.6620   -3.3809    5.6212 H         1 <0>         0.0000
     26 H11        -0.7575   -2.8615    7.9773 H         1 <0>         0.0000
     27 H12         0.9184   -2.2480    7.9503 H         1 <0>         0.0000
     28 H13        -0.9647    2.4801    4.7167 H         1 <0>         0.0000
     29 H14        -0.8262    1.3451    6.6655 H         1 <0>         0.0000
@<TRIPOS>BOND
     1    1    2 ar
     2    1    3 ar
     3    1   16 1
     4    2    4 ar
     5    2   17 1
     6    3    5 ar
     7    3   18 1
     8    4    6 ar
     9    4   19 1
    10    5    6 ar
    11    5    8 1
    12    6    9 1
    13    7   13 2
    14    7   14 1
    15    7   15 1
    16    8   12 1
    17    8   20 1
    18    8   21 1
    19    9   12 1
    20    9   22 1
    21    9   23 1
    22   10   11 1
    23   10   13 1
    24   10   24 1
    25   10   25 1
    26   11   15 1
    27   11   26 1
    28   11   27 1
    29   12   14 1
    30   12   28 1
    31   14   29 1
