@<TRIPOS>MOLECULE
*****
   30    32     0     0     0
SMALL
NO_CHARGES

@<TRIPOS>ATOM
      1 C1          1.6785    0.8062    1.3374 C.ar      1 <0>         0.0000
      2 C2          0.4130    0.3833    0.9105 C.ar      1 <0>         0.0000
      3 C3          1.8338    1.4651    2.5643 C.ar      1 <0>         0.0000
      4 C4         -0.7203    0.6108    1.7029 C.ar      1 <0>         0.0000
      5 C5          0.7054    1.6874    3.3525 C.ar      1 <0>         0.0000
      6 C6         -0.5630    1.2628    2.9250 C.ar      1 <0>         0.0000
      7 C7         -1.0546    0.1786    7.0283 C.cat     1 <0>         0.0000
      8 C8          0.5917    2.3936    4.6907 C.3       1 <0>         0.0000
      9 C9         -1.6127    1.6509    3.9494 C.3       1 <0>         0.0000
     10 C10        -1.4809   -0.9895    8.9793 C.3       1 <0>         0.0000
     11 C11        -2.3248    0.2948    8.9073 C.3       1 <0>         0.0000
     12 C12        -0.7633    1.8758    5.2222 C.3       1 <0>         0.0000
     13 N1         -0.9488   -1.0291    7.6053 N.pl3     1 <0>         0.0000
     14 N2         -0.5282    0.5625    5.8877 N.pl3     1 <0>         0.0000
     15 O1         -1.7826    1.0197    7.7443 O.3       1 <0>         0.0000
     16 H1          2.5467    0.6216    0.7111 H         1 <0>         0.0000
     17 H2          0.3099   -0.1260   -0.0435 H         1 <0>         0.0000
     18 H3          2.8174    1.7963    2.8887 H         1 <0>         0.0000
     19 H4         -1.7006    0.2840    1.3647 H         1 <0>         0.0000
     20 H5          1.4176    2.2017    5.3819 H         1 <0>         0.0000
     21 H6          0.5266    3.4798    4.5537 H         1 <0>         0.0000
     22 H7         -2.0975    2.5958    3.6737 H         1 <0>         0.0000
     23 H8         -2.4029    0.9087    4.0955 H         1 <0>         0.0000
     24 H9         -0.6685   -0.9207    9.7084 H         1 <0>         0.0000
     25 H10        -2.0874   -1.8718    9.1874 H         1 <0>         0.0000
     26 H11        -3.3777    0.1037    8.6964 H         1 <0>         0.0000
     27 H12        -2.2191    0.9503    9.7692 H         1 <0>         0.0000
     28 H13        -1.2288    2.5298    5.9571 H         1 <0>         0.0000
     29 H14        -0.3042   -1.7410    7.2816 H         1 <0>         0.0000
     30 H15         0.0129   -0.1137    5.3542 H         1 <0>         0.0000
@<TRIPOS>BOND
     1    1    2 ar
     2    1    3 ar
     3    1   16 1
     4    2    4 ar
     5    2   17 1
     6    3    5 ar
     7    3   18 1
     8    4    6 ar
     9    4   19 1
    10    5    6 ar
    11    5    8 1
    12    6    9 1
    13    7   13 2
    14    7   14 1
    15    7   15 1
    16    8   12 1
    17    8   20 1
    18    8   21 1
    19    9   12 1
    20    9   22 1
    21    9   23 1
    22   10   11 1
    23   10   13 1
    24   10   24 1
    25   10   25 1
    26   11   15 1
    27   11   26 1
    28   11   27 1
    29   12   14 1
    30   12   28 1
    31   13   29 1
    32   14   30 1
