@<TRIPOS>MOLECULE
*****
   30    32     0     0     0
SMALL
NO_CHARGES

@<TRIPOS>ATOM
      1 C1          0.2227   -2.4281   -1.0562 C.ar      1 <0>         0.0000
      2 C2          1.5464   -1.9896   -0.9221 C.ar      1 <0>         0.0000
      3 C3         -0.8443   -1.5958   -0.6943 C.ar      1 <0>         0.0000
      4 C4          1.8262   -0.7108   -0.4238 C.ar      1 <0>         0.0000
      5 C5         -0.5632   -0.3233   -0.1995 C.ar      1 <0>         0.0000
      6 C6          0.7622    0.1150   -0.0654 C.ar      1 <0>         0.0000
      7 C7         -1.8032    3.6125    2.0696 C.cat     1 <0>         0.0000
      8 C8         -1.5268    0.7613    0.2343 C.3       1 <0>         0.0000
      9 C9          0.8016    1.5308    0.4702 C.3       1 <0>         0.0000
     10 C10        -3.1871    5.0280    3.2679 C.3       1 <0>         0.0000
     11 C11        -2.9199    3.7257    4.0427 C.3       1 <0>         0.0000
     12 C12        -0.6089    1.6739    1.0822 C.3       1 <0>         0.0000
     13 N1         -2.2095    4.8859    2.1738 N.pl3     1 <0>         0.0000
     14 N2         -1.0475    3.0890    1.1267 N.pl3     1 <0>         0.0000
     15 O1         -2.2316    2.8597    3.0679 O.3       1 <0>         0.0000
     16 H1          0.0226   -3.4248   -1.4391 H         1 <0>         0.0000
     17 H2          2.3627   -2.6494   -1.2020 H         1 <0>         0.0000
     18 H3         -1.8696   -1.9430   -0.7952 H         1 <0>         0.0000
     19 H4          2.8552   -0.3767   -0.3163 H         1 <0>         0.0000
     20 H5         -1.9140    1.3112   -0.6349 H         1 <0>         0.0000
     21 H6         -2.3857    0.3948    0.8037 H         1 <0>         0.0000
     22 H7          1.5940    1.7125    1.2013 H         1 <0>         0.0000
     23 H8          0.9416    2.2486   -0.3527 H         1 <0>         0.0000
     24 H9         -4.2052    5.0844    2.8726 H         1 <0>         0.0000
     25 H10        -2.9754    5.9153    3.8659 H         1 <0>         0.0000
     26 H11        -2.2374    3.8592    4.8830 H         1 <0>         0.0000
     27 H12        -3.8177    3.1981    4.3576 H         1 <0>         0.0000
     28 H13        -0.5938    1.3176    2.1128 H         1 <0>         0.0000
     29 H14        -2.0881    5.5743    1.4405 H         1 <0>         0.0000
     30 H15        -0.7944    3.6793    0.3405 H         1 <0>         0.0000
@<TRIPOS>BOND
     1    1    2 ar
     2    1    3 ar
     3    1   16 1
     4    2    4 ar
     5    2   17 1
     6    3    5 ar
     7    3   18 1
     8    4    6 ar
     9    4   19 1
    10    5    6 ar
    11    5    8 1
    12    6    9 1
    13    7   13 1
    14    7   14 2
    15    7   15 1
    16    8   12 1
    17    8   20 1
    18    8   21 1
    19    9   12 1
    20    9   22 1
    21    9   23 1
    22   10   11 1
    23   10   13 1
    24   10   24 1
    25   10   25 1
    26   11   15 1
    27   11   26 1
    28   11   27 1
    29   12   14 1
    30   12   28 1
    31   13   29 1
    32   14   30 1
