@<TRIPOS>MOLECULE
*****
   68    70     0     0     0
SMALL
NO_CHARGES

@<TRIPOS>ATOM
      1 C1          8.6829    0.7515   -3.0841 C.ar      1 <0>         0.0000
      2 C2          6.2784    7.5230    0.3881 C.ar      1 <0>         0.0000
      3 C3          8.1167    0.5565   -1.8187 C.ar      1 <0>         0.0000
      4 C4          7.9174    1.3021   -4.1163 C.ar      1 <0>         0.0000
      5 C5          7.1036    6.4211    0.1336 C.ar      1 <0>         0.0000
      6 C6          5.0347    7.6272   -0.2423 C.ar      1 <0>         0.0000
      7 C7          6.7880    0.9168   -1.5876 C.ar      1 <0>         0.0000
      8 C8          6.5893    1.6707   -3.8825 C.ar      1 <0>         0.0000
      9 C9          6.6818    5.4234   -0.7469 C.ar      1 <0>         0.0000
     10 C10         4.6082    6.6242   -1.1178 C.ar      1 <0>         0.0000
     11 C11         6.0184    1.4834   -2.6168 C.ar      1 <0>         0.0000
     12 C12         5.4273    5.5160   -1.3716 C.ar      1 <0>         0.0000
     13 C13         0.7101    0.9812    2.5976 C.2       1 <0>         0.0000
     14 C14         0.4480   -1.3974    5.2960 C.3       1 <0>         0.0000
     15 C15        -0.3025   -0.5978    4.2183 C.3       1 <0>         0.0000
     16 C16         1.9971    0.1895    4.6462 C.3       1 <0>         0.0000
     17 C17        -0.8931   -1.5300    3.1571 C.3       1 <0>         0.0000
     18 C18        -1.3753    0.3082    4.8393 C.3       1 <0>         0.0000
     19 C19         2.3949    1.5685    5.1694 C.3       1 <0>         0.0000
     20 C20         3.1812   -0.5738    4.0422 C.3       1 <0>         0.0000
     21 C21         1.4542    3.9148    1.7143 C.3       1 <0>         0.0000
     22 C22         4.6040    1.9071   -2.3331 C.3       1 <0>         0.0000
     23 C23         4.9781    4.4087   -2.2829 C.3       1 <0>         0.0000
     24 C24         3.2036    2.4743    0.5035 C.3       1 <0>         0.0000
     25 C25         3.2741    3.3582   -0.7372 C.3       1 <0>         0.0000
     26 C26         1.8258    2.5374    1.1738 C.3       1 <0>         0.0000
     27 N1          0.8345    0.2177    3.7037 N.am      1 <0>         0.0000
     28 N2          4.5814    3.1721   -1.4768 N.4       1 <0>         0.0000
     29 O1         -0.3063    1.1323    1.9299 O.2       1 <0>         0.0000
     30 O2          1.4693   -0.5220    5.7645 O.3       1 <0>         0.0000
     31 O3          1.9076    1.5898    2.2543 O.3       1 <0>         0.0000
     32 H1          9.7143    0.4639   -3.2668 H         1 <0>         0.0000
     33 H2          6.6098    8.3034    1.0669 H         1 <0>         0.0000
     34 H3          8.7045    0.1116   -1.0211 H         1 <0>         0.0000
     35 H4          8.3514    1.4417   -5.1020 H         1 <0>         0.0000
     36 H5          8.0775    6.3486    0.6088 H         1 <0>         0.0000
     37 H6          4.3999    8.4886   -0.0565 H         1 <0>         0.0000
     38 H7          6.3446    0.7311   -0.6097 H         1 <0>         0.0000
     39 H8          5.9956    2.0908   -4.6915 H         1 <0>         0.0000
     40 H9          7.3410    4.5841   -0.9666 H         1 <0>         0.0000
     41 H10         3.6446    6.7154   -1.6147 H         1 <0>         0.0000
     42 H11        -0.1846   -1.6582    6.1459 H         1 <0>         0.0000
     43 H12         0.8802   -2.3152    4.8744 H         1 <0>         0.0000
     44 H13        -1.4609   -0.9738    2.4111 H         1 <0>         0.0000
     45 H14        -1.5642   -2.2469    3.6420 H         1 <0>         0.0000
     46 H15        -0.1023   -2.0925    2.6503 H         1 <0>         0.0000
     47 H16        -1.7731    0.9955    4.0894 H         1 <0>         0.0000
     48 H17        -0.9576    0.8860    5.6690 H         1 <0>         0.0000
     49 H18        -2.2025   -0.2973    5.2235 H         1 <0>         0.0000
     50 H19         1.5080    2.1091    5.5085 H         1 <0>         0.0000
     51 H20         2.9071    2.1541    4.4061 H         1 <0>         0.0000
     52 H21         3.0639    1.4323    6.0231 H         1 <0>         0.0000
     53 H22         2.8807   -1.5856    3.7579 H         1 <0>         0.0000
     54 H23         3.9825   -0.6438    4.7829 H         1 <0>         0.0000
     55 H24         3.5578   -0.0602    3.1550 H         1 <0>         0.0000
     56 H25         2.2183    4.2833    2.4066 H         1 <0>         0.0000
     57 H26         0.5009    3.8537    2.2433 H         1 <0>         0.0000
     58 H27         1.3316    4.6427    0.9049 H         1 <0>         0.0000
     59 H28         4.0434    2.1405   -3.2401 H         1 <0>         0.0000
     60 H29         4.0590    1.1456   -1.7745 H         1 <0>         0.0000
     61 H30         4.1052    4.6771   -2.8809 H         1 <0>         0.0000
     62 H31         5.7804    4.0859   -2.9473 H         1 <0>         0.0000
     63 H32         3.9700    2.7895    1.2227 H         1 <0>         0.0000
     64 H33         3.3978    1.4264    0.2531 H         1 <0>         0.0000
     65 H34         2.4766    3.1378   -1.4521 H         1 <0>         0.0000
     66 H35         3.2174    4.4114   -0.4655 H         1 <0>         0.0000
     67 H36         1.0569    2.1956    0.4754 H         1 <0>         0.0000
     68 H37         5.3144    3.0577   -0.7677 H         1 <0>         0.0000
@<TRIPOS>BOND
     1    1    4 ar
     2    1    3 ar
     3    1   32 1
     4    2    6 ar
     5    2    5 ar
     6    2   33 1
     7    3    7 ar
     8    3   34 1
     9    4    8 ar
    10    4   35 1
    11    5    9 ar
    12    5   36 1
    13    6   10 ar
    14    6   37 1
    15    7   11 ar
    16    7   38 1
    17    8   11 ar
    18    8   39 1
    19    9   12 ar
    20    9   40 1
    21   10   12 ar
    22   10   41 1
    23   11   22 1
    24   12   23 1
    25   13   27 am
    26   13   29 2
    27   13   31 1
    28   14   15 1
    29   14   30 1
    30   14   42 1
    31   14   43 1
    32   15   17 1
    33   15   18 1
    34   15   27 1
    35   16   19 1
    36   16   20 1
    37   16   27 1
    38   16   30 1
    39   17   44 1
    40   17   45 1
    41   17   46 1
    42   18   47 1
    43   18   48 1
    44   18   49 1
    45   19   50 1
    46   19   51 1
    47   19   52 1
    48   20   53 1
    49   20   54 1
    50   20   55 1
    51   21   26 1
    52   21   56 1
    53   21   57 1
    54   21   58 1
    55   22   28 1
    56   22   59 1
    57   22   60 1
    58   23   28 1
    59   23   61 1
    60   23   62 1
    61   24   25 1
    62   24   26 1
    63   24   63 1
    64   24   64 1
    65   25   28 1
    66   25   65 1
    67   25   66 1
    68   26   31 1
    69   26   67 1
    70   28   68 1
