@<TRIPOS>MOLECULE
*****
   33    35     0     0     0
SMALL
NO_CHARGES

@<TRIPOS>ATOM
      1 C1         -6.5765   -0.7582   -5.0858 C.ar      1 <0>         0.0000
      2 C2         -5.3636   -0.5113   -4.4445 C.ar      1 <0>         0.0000
      3 C3         -7.1406   -2.0268   -4.9414 C.ar      1 <0>         0.0000
      4 C4         -4.7485   -1.5180   -3.6941 C.ar      1 <0>         0.0000
      5 C5         -5.4105   -2.7623   -3.5965 C.ar      1 <0>         0.0000
      6 C6         -2.7391   -1.0891   -6.3665 C.3       1 <0>         0.0000
      7 C7         -1.2419   -1.2337   -6.1953 C.3       1 <0>         0.0000
      8 C8         -4.8265   -5.2606   -3.3298 C.3       1 <0>         0.0000
      9 C9         -3.5486   -4.5068   -3.0245 C.3       1 <0>         0.0000
     10 C10        -2.0873   -0.7271   -5.0509 C.3       1 <0>         0.0000
     11 C11        -4.8965   -3.8803   -2.7255 C.3       1 <0>         0.0000
     12 C12        -5.3474   -3.7651   -1.2754 C.3       1 <0>         0.0000
     13 C13        -3.4045   -1.2495   -3.0486 C.3       1 <0>         0.0000
     14 N1         -6.5832   -2.9998   -4.2115 N.ar      1 <0>         0.0000
     15 N2         -2.2819   -1.6149   -3.9315 N.3       1 <0>         0.0000
     16 H1         -7.0718    0.0052   -5.6794 H         1 <0>         0.0000
     17 H2         -4.8839    0.4611   -4.5313 H         1 <0>         0.0000
     18 H3         -8.0849   -2.2724   -5.4264 H         1 <0>         0.0000
     19 H4         -3.1155   -0.2845   -6.9914 H         1 <0>         0.0000
     20 H5         -3.3330   -1.9966   -6.3756 H         1 <0>         0.0000
     21 H6         -0.8462   -2.2403   -6.0997 H         1 <0>         0.0000
     22 H7         -0.5899   -0.5274   -6.7008 H         1 <0>         0.0000
     23 H8         -5.1242   -5.3654   -4.3681 H         1 <0>         0.0000
     24 H9         -5.0968   -6.1012   -2.6962 H         1 <0>         0.0000
     25 H10        -2.9489   -4.8304   -2.1765 H         1 <0>         0.0000
     26 H11        -2.9771   -4.0994   -3.8514 H         1 <0>         0.0000
     27 H12        -2.0142    0.3435   -4.8289 H         1 <0>         0.0000
     28 H13        -4.9683   -4.6046   -0.6827 H         1 <0>         0.0000
     29 H14        -6.4411   -3.7705   -1.2150 H         1 <0>         0.0000
     30 H15        -4.9894   -2.8377   -0.8126 H         1 <0>         0.0000
     31 H16        -3.3645   -0.1855   -2.7565 H         1 <0>         0.0000
     32 H17        -3.3012   -1.8393   -2.1358 H         1 <0>         0.0000
     33 H18        -1.4285   -1.6498   -3.3775 H         1 <0>         0.0000
@<TRIPOS>BOND
     1    1    2 ar
     2    1    3 ar
     3    1   16 1
     4    2    4 ar
     5    2   17 1
     6    3   14 ar
     7    3   18 1
     8    4    5 ar
     9    4   13 1
    10    5   11 1
    11    5   14 ar
    12    6    7 1
    13    6   10 1
    14    6   19 1
    15    6   20 1
    16    7   10 1
    17    7   21 1
    18    7   22 1
    19    8    9 1
    20    8   11 1
    21    8   23 1
    22    8   24 1
    23    9   11 1
    24    9   25 1
    25    9   26 1
    26   10   15 1
    27   10   27 1
    28   11   12 1
    29   12   28 1
    30   12   29 1
    31   12   30 1
    32   13   15 1
    33   13   31 1
    34   13   32 1
    35   15   33 1
