@<TRIPOS>MOLECULE
*****
   23    24     0     0     0
SMALL
NO_CHARGES

@<TRIPOS>ATOM
      1 C1         -1.1985    2.3608    0.4664 C.ar      1 <0>         0.0000
      2 C2         -1.3434    3.6456    1.0014 C.ar      1 <0>         0.0000
      3 C3         -0.5801    1.5112    2.6388 C.ar      1 <0>         0.0000
      4 C4         -0.8109    1.2852    1.2736 C.ar      1 <0>         0.0000
      5 C5         -1.1108    3.8673    2.3576 C.ar      1 <0>         0.0000
      6 C6         -0.7317    2.7864    3.1722 C.ar      1 <0>         0.0000
      7 C7          0.8633   -0.5306    0.3293 C.3       1 <0>         0.0000
      8 C8          0.4765   -1.9004    0.9353 C.3       1 <0>         0.0000
      9 C9         -0.5882   -0.0823    0.6847 C.3       1 <0>         0.0000
     10 N1         -0.6589   -1.2321    1.6311 N.3       1 <0>         0.0000
     11 O1         -1.2616    5.1235    2.8861 O.3       1 <0>         0.0000
     12 O2         -0.5352    3.0968    4.5088 O.3       1 <0>         0.0000
     13 H1         -1.3900    2.2003   -0.5923 H         1 <0>         0.0000
     14 H2         -1.6448    4.4855    0.3820 H         1 <0>         0.0000
     15 H3         -0.2981    0.6685    3.2672 H         1 <0>         0.0000
     16 H4          1.6051    0.0017    0.9287 H         1 <0>         0.0000
     17 H5          1.1478   -0.5003   -0.7243 H         1 <0>         0.0000
     18 H6          0.1671   -2.6192    0.1633 H         1 <0>         0.0000
     19 H7          1.1934   -2.3842    1.6071 H         1 <0>         0.0000
     20 H8         -1.2396   -0.2118   -0.1930 H         1 <0>         0.0000
     21 H9         -1.5421   -1.7397    1.6176 H         1 <0>         0.0000
     22 H10        -1.0642    5.0686    3.8374 H         1 <0>         0.0000
     23 H11        -0.2906    2.2925    4.9922 H         1 <0>         0.0000
@<TRIPOS>BOND
     1    1    2 ar
     2    1    4 ar
     3    1   13 1
     4    2    5 ar
     5    2   14 1
     6    3    4 ar
     7    3    6 ar
     8    3   15 1
     9    4    9 1
    10    5    6 ar
    11    5   11 1
    12    6   12 1
    13    7    8 1
    14    7    9 1
    15    7   16 1
    16    7   17 1
    17    8   10 1
    18    8   18 1
    19    8   19 1
    20    9   10 1
    21    9   20 1
    22   10   21 1
    23   11   22 1
    24   12   23 1
