@<TRIPOS>MOLECULE
*****
   26    27     0     0     0
SMALL
NO_CHARGES

@<TRIPOS>ATOM
      1 C1          0.9221   -0.1452   -1.5196 C.2       1 <0>         0.0000
      2 C2          0.4711   -0.6959   -0.2728 C.2       1 <0>         0.0000
      3 C3          1.5972    1.0060   -1.5583 C.2       1 <0>         0.0000
      4 C4          0.7164   -0.0649    0.8882 C.2       1 <0>         0.0000
      5 C5          1.8909    1.7379   -0.2937 C.2       1 <0>         0.0000
      6 C6         -2.0066   -1.3439    1.8871 C.3       1 <0>         0.0000
      7 C7         -1.1888   -0.2181    2.4737 C.3       1 <0>         0.0000
      8 C8         -1.1243   -2.5431    2.1473 C.3       1 <0>         0.0000
      9 C9          0.2352   -0.6550    2.1967 C.3       1 <0>         0.0000
     10 C10         1.6738    1.8154    2.1671 C.3       1 <0>         0.0000
     11 N1          1.4206    1.1465    0.8923 N.am      1 <0>         0.0000
     12 O1          2.5155    2.7961   -0.3645 O.2       1 <0>         0.0000
     13 O2          0.2282   -2.0792    2.0435 O.3       1 <0>         0.0000
     14 H1          0.7000   -0.6900   -2.4304 H         1 <0>         0.0000
     15 H2         -0.0712   -1.6349   -0.3099 H         1 <0>         0.0000
     16 H3          1.9437    1.4330   -2.4920 H         1 <0>         0.0000
     17 H4         -3.0013   -1.4425    2.3294 H         1 <0>         0.0000
     18 H5         -2.1234   -1.1924    0.8076 H         1 <0>         0.0000
     19 H6         -1.4563    0.7646    2.0744 H         1 <0>         0.0000
     20 H7         -1.3491   -0.1875    3.5587 H         1 <0>         0.0000
     21 H8         -1.2699   -2.9315    3.1612 H         1 <0>         0.0000
     22 H9         -1.2926   -3.3544    1.4338 H         1 <0>         0.0000
     23 H10         0.9113   -0.3648    2.9744 H         1 <0>         0.0000
     24 H11         2.6300    1.4642    2.5824 H         1 <0>         0.0000
     25 H12         1.7208    2.9027    2.0076 H         1 <0>         0.0000
     26 H13         0.8610    1.5828    2.8709 H         1 <0>         0.0000
@<TRIPOS>BOND
     1    1    3 2
     2    1    2 1
     3    1   14 1
     4    2    4 2
     5    2   15 1
     6    3    5 1
     7    3   16 1
     8    4    9 1
     9    4   11 1
    10    5   11 am
    11    5   12 2
    12    6    7 1
    13    6    8 1
    14    6   17 1
    15    6   18 1
    16    7    9 1
    17    7   19 1
    18    7   20 1
    19    8   13 1
    20    8   21 1
    21    8   22 1
    22    9   13 1
    23    9   23 1
    24   10   11 1
    25   10   24 1
    26   10   25 1
    27   10   26 1
