@<TRIPOS>MOLECULE
*****
   56    60     0     0     0
SMALL
NO_CHARGES

@<TRIPOS>ATOM
      1 C1         -1.1490    1.8394    1.2206 C.ar      1 <0>         0.0000
      2 C2         -1.0947    0.7193    0.3634 C.ar      1 <0>         0.0000
      3 C3         -7.5561   -2.6453    0.0271 C.ar      1 <0>         0.0000
      4 C4         -2.0445    1.8816    2.2896 C.ar      1 <0>         0.0000
      5 C5         -4.6039    0.9207    5.8791 C.ar      1 <0>         0.0000
      6 C6         -4.4621    2.7825    4.3734 C.ar      1 <0>         0.0000
      7 C7         -6.4696   -2.8065    0.8962 C.ar      1 <0>         0.0000
      8 C8         -1.9278   -0.3820    0.5730 C.ar      1 <0>         0.0000
      9 C9         -7.3859   -2.0896   -1.2400 C.ar      1 <0>         0.0000
     10 C10        -4.9753    1.7786    6.9177 C.ar      1 <0>         0.0000
     11 C11        -4.8279    3.6528    5.3992 C.ar      1 <0>         0.0000
     12 C12        -5.0151   -1.8439   -0.7898 C.ar      1 <0>         0.0000
     13 C13        -2.9147    0.7967    2.5111 C.ar      1 <0>         0.0000
     14 C14        -4.3366    1.3956    4.5862 C.ar      1 <0>         0.0000
     15 C15        -3.9302    0.4987    3.4932 C.2       1 <0>         0.0000
     16 C16        -5.1937   -2.4098    0.4843 C.ar      1 <0>         0.0000
     17 C17        -2.8224   -0.3401    1.6507 C.ar      1 <0>         0.0000
     18 C18        -5.0864    3.1548    6.6813 C.ar      1 <0>         0.0000
     19 C19        -6.1076   -1.6791   -1.6462 C.ar      1 <0>         0.0000
     20 C20        -4.3992   -0.7856    3.2232 C.2       1 <0>         0.0000
     21 C21        -5.4819   -1.6120    3.9397 C.2       1 <0>         0.0000
     22 C22        -7.1386    4.5481   10.9382 C.3       1 <0>         0.0000
     23 C23        -7.5920    5.3040    9.7048 C.3       1 <0>         0.0000
     24 C24        -6.1803    4.7752    9.7882 C.3       1 <0>         0.0000
     25 C25        -4.7672   -0.5854   -3.2961 C.3       1 <0>         0.0000
     26 C26        -4.0126   -2.5418    1.4278 C.3       1 <0>         0.0000
     27 C27        -5.7762    3.6036    8.9337 C.3       1 <0>         0.0000
     28 N1         -3.7097   -1.2882    2.1173 N.pl3     1 <0>         0.0000
     29 O1         -5.2572   -2.8582    3.9990 O.co2     1 <0>         0.0000
     30 O2         -6.4547   -0.9595    4.3813 O.co2     1 <0>         0.0000
     31 O3         -6.0236   -1.1232   -2.9069 O.3       1 <0>         0.0000
     32 O4         -5.4491    4.0886    7.6363 O.3       1 <0>         0.0000
     33 H1         -0.4790    2.6788    1.0460 H         1 <0>         0.0000
     34 H2         -0.3887    0.7067   -0.4643 H         1 <0>         0.0000
     35 H3         -8.5510   -2.9438    0.3491 H         1 <0>         0.0000
     36 H4         -2.0614    2.7426    2.9522 H         1 <0>         0.0000
     37 H5         -4.5379   -0.1434    6.0749 H         1 <0>         0.0000
     38 H6         -4.3062    3.1827    3.3757 H         1 <0>         0.0000
     39 H7         -6.6032   -3.2022    1.8990 H         1 <0>         0.0000
     40 H8         -1.8625   -1.2498   -0.0782 H         1 <0>         0.0000
     41 H9         -8.2225   -1.9503   -1.9196 H         1 <0>         0.0000
     42 H10        -5.1808    1.3558    7.8953 H         1 <0>         0.0000
     43 H11        -4.9352    4.7196    5.2195 H         1 <0>         0.0000
     44 H12        -4.0240   -1.5177   -1.0832 H         1 <0>         0.0000
     45 H13        -6.9779    5.1062   11.8565 H         1 <0>         0.0000
     46 H14        -7.5238    3.5426   11.0871 H         1 <0>         0.0000
     47 H15        -8.2704    4.8023    9.0205 H         1 <0>         0.0000
     48 H16        -7.7436    6.3766    9.7853 H         1 <0>         0.0000
     49 H17        -5.3952    5.5112    9.9454 H         1 <0>         0.0000
     50 H18        -4.9230   -0.1373   -4.2800 H         1 <0>         0.0000
     51 H19        -3.9992   -1.3668   -3.3744 H         1 <0>         0.0000
     52 H20        -4.4229    0.1845   -2.5944 H         1 <0>         0.0000
     53 H21        -4.2267   -3.2798    2.2005 H         1 <0>         0.0000
     54 H22        -3.1144   -2.8381    0.8782 H         1 <0>         0.0000
     55 H23        -6.6010    2.8786    8.8719 H         1 <0>         0.0000
     56 H24        -4.9099    3.0887    9.3743 H         1 <0>         0.0000
@<TRIPOS>BOND
     1    1    2 ar
     2    1    4 ar
     3    1   33 1
     4    2    8 ar
     5    2   34 1
     6    3    7 ar
     7    3    9 ar
     8    3   35 1
     9    4   13 ar
    10    4   36 1
    11    5   10 ar
    12    5   14 ar
    13    5   37 1
    14    6   11 ar
    15    6   14 ar
    16    6   38 1
    17    7   16 ar
    18    7   39 1
    19    8   17 ar
    20    8   40 1
    21    9   19 ar
    22    9   41 1
    23   10   18 ar
    24   10   42 1
    25   11   18 ar
    26   11   43 1
    27   12   16 ar
    28   12   19 ar
    29   12   44 1
    30   13   15 1
    31   13   17 ar
    32   14   15 1
    33   15   20 2
    34   16   26 1
    35   17   28 1
    36   18   32 1
    37   19   31 1
    38   20   21 1
    39   20   28 1
    40   21   29 1
    41   21   30 2
    42   22   23 1
    43   22   24 1
    44   22   45 1
    45   22   46 1
    46   23   24 1
    47   23   47 1
    48   23   48 1
    49   24   27 1
    50   24   49 1
    51   25   31 1
    52   25   50 1
    53   25   51 1
    54   25   52 1
    55   26   28 1
    56   26   53 1
    57   26   54 1
    58   27   32 1
    59   27   55 1
    60   27   56 1
