@<TRIPOS>MOLECULE
*****
   58    61     0     0     0
SMALL
NO_CHARGES

@<TRIPOS>ATOM
      1 C1          3.5426  -11.2628   -2.3907 C.ar      1 <0>         0.0000
      2 C2          3.3645  -10.9976    0.0107 C.ar      1 <0>         0.0000
      3 C3          3.3470   -7.8530   -3.9226 C.ar      1 <0>         0.0000
      4 C4          2.2130  -10.8949   -2.5293 C.ar      1 <0>         0.0000
      5 C5          2.0287  -10.6303   -0.1220 C.ar      1 <0>         0.0000
      6 C6          2.0555   -7.4503   -3.5866 C.ar      1 <0>         0.0000
      7 C7          5.1048   -8.0501   -0.7496 C.2       1 <0>         0.0000
      8 C8          2.6069   -7.4087   -1.2081 C.ar      1 <0>         0.0000
      9 C9          6.0994   -8.4019   -1.6294 C.2       1 <0>         0.0000
     10 C10         7.3480  -12.2785    0.0716 C.2       1 <0>         0.0000
     11 C11         3.9195   -7.7978   -1.5261 C.ar      1 <0>         0.0000
     12 C12         4.1431  -11.2971   -1.1180 C.ar      1 <0>         0.0000
     13 C13         4.2660   -8.0300   -2.8843 C.ar      1 <0>         0.0000
     14 C14         1.4557  -10.5479   -1.4007 C.ar      1 <0>         0.0000
     15 C15         1.6856   -7.2450   -2.2380 C.ar      1 <0>         0.0000
     16 C16         7.6268  -12.1937   -1.2563 C.2       1 <0>         0.0000
     17 C17         5.5478  -11.6385   -0.9788 C.2       1 <0>         0.0000
     18 C18         6.0770   -9.6765   -5.0558 C.2       1 <0>         0.0000
     19 C19         9.4640  -11.5169   -2.9008 C.3       1 <0>         0.0000
     20 C20         7.8714   -8.2856   -3.9591 C.3       1 <0>         0.0000
     21 C21         8.8793  -12.5922   -1.9766 C.3       1 <0>         0.0000
     22 C22        -1.4172   -8.3661   -1.3853 C.3       1 <0>         0.0000
     23 C23        -0.4702   -9.3102   -0.6559 C.3       1 <0>         0.0000
     24 C24        -0.7022   -7.5439   -2.4604 C.3       1 <0>         0.0000
     25 C25         6.3644   -8.4414   -4.1753 C.3       1 <0>         0.0000
     26 N1          6.4690  -11.7543   -1.9099 N.2       1 <0>         0.0000
     27 N2          5.6058   -8.4138   -2.9300 N.pl3     1 <0>         0.0000
     28 O1          5.8438   -9.5339   -6.2407 O.2       1 <0>         0.0000
     29 O2          6.0266  -11.9293    0.2628 O.3       1 <0>         0.0000
     30 O3          6.1448  -10.8993   -4.5119 O.3       1 <0>         0.0000
     31 O4          0.1781  -10.1357   -1.6378 O.3       1 <0>         0.0000
     32 O5          0.4085   -6.8270   -1.8951 O.3       1 <0>         0.0000
     33 H1          4.1201  -11.5156   -3.2728 H         1 <0>         0.0000
     34 H2          3.8134  -11.0367    0.9979 H         1 <0>         0.0000
     35 H3          3.6158   -8.0241   -4.9609 H         1 <0>         0.0000
     36 H4          1.7513  -10.8305   -3.5089 H         1 <0>         0.0000
     37 H5          1.4474  -10.3986    0.7634 H         1 <0>         0.0000
     38 H6          1.3280   -7.2814   -4.3743 H         1 <0>         0.0000
     39 H7          5.2057   -7.9950    0.3264 H         1 <0>         0.0000
     40 H8          2.2987   -7.2344   -0.1814 H         1 <0>         0.0000
     41 H9          7.1261   -8.6685   -1.4260 H         1 <0>         0.0000
     42 H10         7.9056  -12.5677    0.9492 H         1 <0>         0.0000
     43 H11         8.7678  -11.2747   -3.7073 H         1 <0>         0.0000
     44 H12        10.3913  -11.8737   -3.3599 H         1 <0>         0.0000
     45 H13         9.6934  -10.6011   -2.3460 H         1 <0>         0.0000
     46 H14         8.2876   -9.0985   -3.3641 H         1 <0>         0.0000
     47 H15         8.3731   -8.2860   -4.9301 H         1 <0>         0.0000
     48 H16         8.0839   -7.3377   -3.4572 H         1 <0>         0.0000
     49 H17         9.6223  -12.8884   -1.2286 H         1 <0>         0.0000
     50 H18         8.6597  -13.4884   -2.5697 H         1 <0>         0.0000
     51 H19        -2.2286   -8.9306   -1.8605 H         1 <0>         0.0000
     52 H20        -1.8697   -7.7002   -0.6416 H         1 <0>         0.0000
     53 H21         0.2781   -8.7266   -0.1144 H         1 <0>         0.0000
     54 H22        -1.0103   -9.9433    0.0589 H         1 <0>         0.0000
     55 H23        -1.3877   -6.8049   -2.8879 H         1 <0>         0.0000
     56 H24        -0.3619   -8.2047   -3.2602 H         1 <0>         0.0000
     57 H25         6.0234   -7.6005   -4.7843 H         1 <0>         0.0000
     58 H26         6.2960  -10.9655   -3.5250 H         1 <0>         0.0000
@<TRIPOS>BOND
     1    1    4 ar
     2    1   12 ar
     3    1   33 1
     4    2    5 ar
     5    2   12 ar
     6    2   34 1
     7    3    6 ar
     8    3   13 ar
     9    3   35 1
    10    4   14 ar
    11    4   36 1
    12    5   14 ar
    13    5   37 1
    14    6   15 ar
    15    6   38 1
    16    7    9 2
    17    7   11 1
    18    7   39 1
    19    8   11 ar
    20    8   15 ar
    21    8   40 1
    22    9   27 1
    23    9   41 1
    24   10   16 2
    25   10   29 1
    26   10   42 1
    27   11   13 ar
    28   12   17 1
    29   13   27 1
    30   14   31 1
    31   15   32 1
    32   16   21 1
    33   16   26 1
    34   17   26 2
    35   17   29 1
    36   18   25 1
    37   18   28 2
    38   18   30 1
    39   19   21 1
    40   19   43 1
    41   19   44 1
    42   19   45 1
    43   20   25 1
    44   20   46 1
    45   20   47 1
    46   20   48 1
    47   21   49 1
    48   21   50 1
    49   22   23 1
    50   22   24 1
    51   22   51 1
    52   22   52 1
    53   23   31 1
    54   23   53 1
    55   23   54 1
    56   24   32 1
    57   24   55 1
    58   24   56 1
    59   25   27 1
    60   25   57 1
    61   30   58 1
