@<TRIPOS>MOLECULE
*****
   66    70     0     0     0
SMALL
NO_CHARGES

@<TRIPOS>ATOM
      1 C1         -3.8257    2.5438   -4.0261 C.ar      1 <0>         0.0000
      2 C2         -2.0691    4.0971   -4.6094 C.ar      1 <0>         0.0000
      3 C3         -4.0823    2.3207   -5.3794 C.ar      1 <0>         0.0000
      4 C4         -2.3287    3.8859   -5.9628 C.ar      1 <0>         0.0000
      5 C5         -5.8783    4.2469   -0.5516 C.ar      1 <0>         0.0000
      6 C6         -3.7124    2.4902   -0.2352 C.ar      1 <0>         0.0000
      7 C7         -4.8585    2.3521    0.5853 C.ar      1 <0>         0.0000
      8 C8         -2.8216    3.4360   -3.6294 C.ar      1 <0>         0.0000
      9 C9         -3.3347    2.9934   -6.3492 C.ar      1 <0>         0.0000
     10 C10        -4.7617    4.4054   -1.3643 C.ar      1 <0>         0.0000
     11 C11        -3.6785    3.5051   -1.2193 C.ar      1 <0>         0.0000
     12 C12        -5.9410    3.2255    0.3953 C.ar      1 <0>         0.0000
     13 C13        -0.8758    0.0206   -0.9173 C.3       1 <0>         0.0000
     14 C14        -0.1328    1.3148   -0.5327 C.3       1 <0>         0.0000
     15 C15        -9.4265    1.4321    1.3579 C.3       1 <0>         0.0000
     16 C16        -2.3184    0.4880   -1.1641 C.3       1 <0>         0.0000
     17 C17        -1.1542    2.1315    0.2988 C.3       1 <0>         0.0000
     18 C18        -8.7187    2.1311    2.5545 C.3       1 <0>         0.0000
     19 C19        -8.0401    0.9076    0.8901 C.3       1 <0>         0.0000
     20 C20        -6.1272    1.5728    2.6186 C.3       1 <0>         0.0000
     21 C21        -2.5588    1.5169   -0.0270 C.3       1 <0>         0.0000
     22 C22        -4.9398    1.3147    1.6862 C.3       1 <0>         0.0000
     23 C23        -7.3655    1.9464    1.8326 C.3       1 <0>         0.0000
     24 C24        -4.7351    6.9118   -1.6104 C.3       1 <0>         0.0000
     25 C25        -5.9471    5.4865   -3.3354 C.3       1 <0>         0.0000
     26 C26        -2.4999    3.6212   -2.1572 C.3       1 <0>         0.0000
     27 C27        -4.7629    5.5647   -2.3564 C.3       1 <0>         0.0000
     28 C28        -3.6474    2.8077   -7.8084 C.3       1 <0>         0.0000
     29 O1         -7.0989    3.1750    1.1250 O.3       1 <0>         0.0000
     30 O2         -5.0303    0.0124    1.0653 O.3       1 <0>         0.0000
     31 F1         -1.8431    4.8725   -1.9788 F         1 <0>         0.0000
     32 F2         -4.2016    1.5971   -8.0662 F         1 <0>         0.0000
     33 F3         -4.5304    3.7421   -8.2601 F         1 <0>         0.0000
     34 F4         -2.5414    2.9169   -8.5872 F         1 <0>         0.0000
     35 H1         -4.4207    2.0336   -3.2753 H         1 <0>         0.0000
     36 H2         -1.2928    4.7922   -4.3071 H         1 <0>         0.0000
     37 H3         -4.8631    1.6278   -5.6770 H         1 <0>         0.0000
     38 H4         -1.7458    4.4066   -6.7164 H         1 <0>         0.0000
     39 H5         -6.7345    4.9086   -0.6365 H         1 <0>         0.0000
     40 H6         -0.4347   -0.4835   -1.7830 H         1 <0>         0.0000
     41 H7         -0.8539   -0.6871   -0.0787 H         1 <0>         0.0000
     42 H8          0.7969    1.1254    0.0124 H         1 <0>         0.0000
     43 H9          0.1422    1.8620   -1.4427 H         1 <0>         0.0000
     44 H10        -9.8560    2.1527    0.6581 H         1 <0>         0.0000
     45 H11       -10.1823    0.6812    1.6019 H         1 <0>         0.0000
     46 H12        -2.4008    0.9376   -2.1579 H         1 <0>         0.0000
     47 H13        -3.0559   -0.3177   -1.1154 H         1 <0>         0.0000
     48 H14        -0.9562    2.0205    1.3698 H         1 <0>         0.0000
     49 H15        -1.0956    3.2018    0.0905 H         1 <0>         0.0000
     50 H16        -8.9881    3.1666    2.7767 H         1 <0>         0.0000
     51 H17        -8.7654    1.5390    3.4737 H         1 <0>         0.0000
     52 H18        -7.8445   -0.1172    1.2149 H         1 <0>         0.0000
     53 H19        -7.7820    0.9924   -0.1676 H         1 <0>         0.0000
     54 H20        -6.3171    0.6851    3.2328 H         1 <0>         0.0000
     55 H21        -5.8845    2.3978    3.3001 H         1 <0>         0.0000
     56 H22        -2.8145    0.8967    0.8271 H         1 <0>         0.0000
     57 H23        -4.0232    1.3587    2.2904 H         1 <0>         0.0000
     58 H24        -5.6350    7.0532   -1.0023 H         1 <0>         0.0000
     59 H25        -4.6785    7.7401   -2.3255 H         1 <0>         0.0000
     60 H26        -3.8655    6.9695   -0.9490 H         1 <0>         0.0000
     61 H27        -6.9091    5.5773   -2.8205 H         1 <0>         0.0000
     62 H28        -5.9434    4.5384   -3.8813 H         1 <0>         0.0000
     63 H29        -5.8842    6.2989   -4.0676 H         1 <0>         0.0000
     64 H30        -1.7397    2.8903   -1.9048 H         1 <0>         0.0000
     65 H31        -3.8540    5.5250   -2.9526 H         1 <0>         0.0000
     66 H32        -5.0134   -0.6522    1.7737 H         1 <0>         0.0000
@<TRIPOS>BOND
     1    1    3 ar
     2    1    8 ar
     3    1   35 1
     4    2    4 ar
     5    2    8 ar
     6    2   36 1
     7    3    9 ar
     8    3   37 1
     9    4    9 ar
    10    4   38 1
    11    5   10 ar
    12    5   12 ar
    13    5   39 1
    14    6    7 ar
    15    6   11 ar
    16    6   21 1
    17    7   12 ar
    18    7   22 1
    19    8   26 1
    20    9   28 1
    21   10   11 ar
    22   10   27 1
    23   11   26 1
    24   12   29 1
    25   13   14 1
    26   13   16 1
    27   13   40 1
    28   13   41 1
    29   14   17 1
    30   14   42 1
    31   14   43 1
    32   15   19 1
    33   15   18 1
    34   15   44 1
    35   15   45 1
    36   16   21 1
    37   16   46 1
    38   16   47 1
    39   17   21 1
    40   17   48 1
    41   17   49 1
    42   18   23 1
    43   18   50 1
    44   18   51 1
    45   19   23 1
    46   19   52 1
    47   19   53 1
    48   20   22 1
    49   20   23 1
    50   20   54 1
    51   20   55 1
    52   21   56 1
    53   22   30 1
    54   22   57 1
    55   23   29 1
    56   24   27 1
    57   24   58 1
    58   24   59 1
    59   24   60 1
    60   25   27 1
    61   25   61 1
    62   25   62 1
    63   25   63 1
    64   26   31 1
    65   26   64 1
    66   27   65 1
    67   28   32 1
    68   28   33 1
    69   28   34 1
    70   30   66 1
