@<TRIPOS>MOLECULE
*****
   67    71     0     0     0
SMALL
NO_CHARGES

@<TRIPOS>ATOM
      1 C1          2.1750    1.0387    1.8210 C.1       1 <0>         0.0000
      2 C2          2.7797    2.0923    1.7373 C.1       1 <0>         0.0000
      3 C3         -1.4146   -8.3346    2.8425 C.ar      1 <0>         0.0000
      4 C4         -2.7260   -8.2711    3.3220 C.ar      1 <0>         0.0000
      5 C5          0.4577   -0.5186    0.9720 C.ar      1 <0>         0.0000
      6 C6         -0.6595   -7.1621    2.7547 C.ar      1 <0>         0.0000
      7 C7         -3.2734   -7.0384    3.6918 C.ar      1 <0>         0.0000
      8 C8         -0.2398   -1.7113    1.0462 C.ar      1 <0>         0.0000
      9 C9          1.7536   -1.1119    2.9368 C.ar      1 <0>         0.0000
     10 C10         1.4696   -0.1955    1.9172 C.ar      1 <0>         0.0000
     11 C11         1.0536   -2.3240    3.0098 C.ar      1 <0>         0.0000
     12 C12        -1.2007   -5.9294    3.1399 C.ar      1 <0>         0.0000
     13 C13        -2.5329   -5.8505    3.5984 C.ar      1 <0>         0.0000
     14 C14         0.0471   -2.6389    2.0676 C.ar      1 <0>         0.0000
     15 C15         1.3506   -3.2740    4.0796 C.2       1 <0>         0.0000
     16 C16        -0.3829   -4.6787    3.0455 C.2       1 <0>         0.0000
     17 C17        -0.7806   -4.6554    8.4541 C.3       1 <0>         0.0000
     18 C18         3.7822    3.9124    0.2360 C.3       1 <0>         0.0000
     19 C19         2.7518    4.5769    1.1032 C.3       1 <0>         0.0000
     20 C20         0.2751   -4.5909    7.3465 C.3       1 <0>         0.0000
     21 C21        -1.0563   -6.0934    8.8845 C.3       1 <0>         0.0000
     22 C22        -0.3934   -6.9181    6.6243 C.3       1 <0>         0.0000
     23 C23         3.4855    3.3400    1.6222 C.3       1 <0>         0.0000
     24 C24        -0.1317   -5.4827    6.1675 C.3       1 <0>         0.0000
     25 C25        -3.1735   -4.5230    3.9322 C.3       1 <0>         0.0000
     26 C26        -0.8008   -9.2569    8.5034 C.3       1 <0>         0.0000
     27 C27        -2.8013   -8.9313    6.9636 C.3       1 <0>         0.0000
     28 C28         0.9057   -5.4930    5.0241 C.3       1 <0>         0.0000
     29 C29        -1.9529   -8.3461    8.0899 C.3       1 <0>         0.0000
     30 N1         -0.6776   -3.8197    2.1263 N.2       1 <0>         0.0000
     31 N2          0.6212   -4.4846    3.9992 N.am      1 <0>         0.0000
     32 N3         -1.4634   -6.9409    7.6940 N.4       1 <0>         0.0000
     33 O1          2.1472   -3.0897    4.9998 O.2       1 <0>         0.0000
     34 H1         -0.9897   -9.2813    2.5210 H         1 <0>         0.0000
     35 H2         -3.3303   -9.1726    3.3829 H         1 <0>         0.0000
     36 H3          0.2372    0.1927    0.1817 H         1 <0>         0.0000
     37 H4          0.3542   -7.2009    2.3630 H         1 <0>         0.0000
     38 H5         -4.3074   -6.9911    4.0270 H         1 <0>         0.0000
     39 H6         -1.0132   -1.9588    0.3255 H         1 <0>         0.0000
     40 H7          2.5178   -0.8984    3.6764 H         1 <0>         0.0000
     41 H8         -0.4560   -4.0991    9.3384 H         1 <0>         0.0000
     42 H9         -1.7157   -4.1875    8.1193 H         1 <0>         0.0000
     43 H10         3.4398    3.3343   -0.6156 H         1 <0>         0.0000
     44 H11         4.7444    4.3979    0.1060 H         1 <0>         0.0000
     45 H12         2.9999    5.5231    1.5740 H         1 <0>         0.0000
     46 H13         1.7059    4.4525    0.8433 H         1 <0>         0.0000
     47 H14         0.4162   -3.5635    7.0044 H         1 <0>         0.0000
     48 H15         1.2465   -4.9205    7.7353 H         1 <0>         0.0000
     49 H16        -0.1654   -6.5590    9.3094 H         1 <0>         0.0000
     50 H17        -1.8667   -6.1567    9.6137 H         1 <0>         0.0000
     51 H18        -0.7452   -7.5321    5.7943 H         1 <0>         0.0000
     52 H19         0.5000   -7.3718    7.0580 H         1 <0>         0.0000
     53 H20         4.2400    3.5138    2.3848 H         1 <0>         0.0000
     54 H21        -1.0734   -5.1047    5.7560 H         1 <0>         0.0000
     55 H22        -2.5325   -3.8929    4.5586 H         1 <0>         0.0000
     56 H23        -3.3569   -3.9518    3.0173 H         1 <0>         0.0000
     57 H24        -4.1289   -4.6630    4.4453 H         1 <0>         0.0000
     58 H25        -0.1753   -9.5364    7.6522 H         1 <0>         0.0000
     59 H26        -0.1711   -8.8200    9.2822 H         1 <0>         0.0000
     60 H27        -1.2262  -10.1773    8.9114 H         1 <0>         0.0000
     61 H28        -2.2093   -9.1757    6.0791 H         1 <0>         0.0000
     62 H29        -3.6067   -8.2537    6.6618 H         1 <0>         0.0000
     63 H30        -3.2647   -9.8546    7.3208 H         1 <0>         0.0000
     64 H31         0.9444   -6.4723    4.5492 H         1 <0>         0.0000
     65 H32         1.8971   -5.2671    5.4165 H         1 <0>         0.0000
     66 H33        -2.5936   -8.1566    8.9559 H         1 <0>         0.0000
     67 H34        -2.2792   -6.4786    7.2767 H         1 <0>         0.0000
@<TRIPOS>BOND
     1    1    2 3
     2    1   10 1
     3    2   23 1
     4    3    4 ar
     5    3    6 ar
     6    3   34 1
     7    4    7 ar
     8    4   35 1
     9    5    8 ar
    10    5   10 ar
    11    5   36 1
    12    6   12 ar
    13    6   37 1
    14    7   13 ar
    15    7   38 1
    16    8   14 ar
    17    8   39 1
    18    9   10 ar
    19    9   11 ar
    20    9   40 1
    21   11   14 ar
    22   11   15 1
    23   12   13 ar
    24   12   16 1
    25   13   25 1
    26   14   30 1
    27   15   31 am
    28   15   33 2
    29   16   30 2
    30   16   31 1
    31   17   20 1
    32   17   21 1
    33   17   41 1
    34   17   42 1
    35   18   19 1
    36   18   23 1
    37   18   43 1
    38   18   44 1
    39   19   23 1
    40   19   45 1
    41   19   46 1
    42   20   24 1
    43   20   47 1
    44   20   48 1
    45   21   32 1
    46   21   49 1
    47   21   50 1
    48   22   24 1
    49   22   32 1
    50   22   51 1
    51   22   52 1
    52   23   53 1
    53   24   28 1
    54   24   54 1
    55   25   55 1
    56   25   56 1
    57   25   57 1
    58   26   29 1
    59   26   58 1
    60   26   59 1
    61   26   60 1
    62   27   29 1
    63   27   61 1
    64   27   62 1
    65   27   63 1
    66   28   31 1
    67   28   64 1
    68   28   65 1
    69   29   32 1
    70   29   66 1
    71   32   67 1
