@<TRIPOS>MOLECULE
*****
   65    67     0     0     0
SMALL
NO_CHARGES

@<TRIPOS>ATOM
      1 C1          3.5222   -7.0704   -1.5340 C.ar      1 <0>         0.0000
      2 C2          3.6249   -5.1775   -0.0279 C.ar      1 <0>         0.0000
      3 C3          2.3200   -7.4803   -0.9478 C.ar      1 <0>         0.0000
      4 C4          2.4314   -5.5792    0.5742 C.ar      1 <0>         0.0000
      5 C5          4.1804   -5.9079   -1.0916 C.ar      1 <0>         0.0000
      6 C6          5.4277   -5.4495   -1.7782 C.ar      1 <0>         0.0000
      7 C7          5.3934   -4.3012   -2.6003 C.ar      1 <0>         0.0000
      8 C8          6.6156   -6.1830   -1.6698 C.ar      1 <0>         0.0000
      9 C9          1.7931   -6.7211    0.0935 C.ar      1 <0>         0.0000
     10 C10         6.5747   -3.9136   -3.2650 C.ar      1 <0>         0.0000
     11 C11         7.7256   -5.7621   -2.4351 C.ar      1 <0>         0.0000
     12 C12        -1.1836   -4.3033   -3.9140 C.3       1 <0>         0.0000
     13 C13        -0.5097   -3.4468   -2.8355 C.3       1 <0>         0.0000
     14 C14        -0.3583   -4.3181   -5.2065 C.3       1 <0>         0.0000
     15 C15         0.9324   -3.9069   -2.5639 C.3       1 <0>         0.0000
     16 C16         1.0825   -4.7842   -4.9428 C.3       1 <0>         0.0000
     17 C17         1.7396   -3.9189   -3.8642 C.3       1 <0>         0.0000
     18 C18         6.1491   -3.0446   -5.5804 C.3       1 <0>         0.0000
     19 C19         8.0790   -2.1130   -4.2360 C.3       1 <0>         0.0000
     20 C20        10.0372   -5.8348   -1.4938 C.3       1 <0>         0.0000
     21 C21         9.6153   -6.6182   -3.8734 C.3       1 <0>         0.0000
     22 C22         4.0890   -3.5748   -2.8083 C.3       1 <0>         0.0000
     23 C23         6.6796   -7.4100   -0.7936 C.3       1 <0>         0.0000
     24 C24         6.6572   -2.6871   -4.1683 C.3       1 <0>         0.0000
     25 C25         9.0410   -6.5194   -2.4515 C.3       1 <0>         0.0000
     26 N1          7.6870   -4.6478   -3.1758 N.ar      1 <0>         0.0000
     27 N2          3.1391   -4.4551   -3.6071 N.4       1 <0>         0.0000
     28 O1          6.3766   -8.5485   -1.6178 O.3       1 <0>         0.0000
     29 F1          0.6304   -7.1044    0.6585 F         1 <0>         0.0000
     30 H1          3.9773   -7.6770   -2.3119 H         1 <0>         0.0000
     31 H2          4.1419   -4.2980    0.3474 H         1 <0>         0.0000
     32 H3          1.8074   -8.3804   -1.2732 H         1 <0>         0.0000
     33 H4          1.9997   -5.0300    1.4052 H         1 <0>         0.0000
     34 H5         -2.1893   -3.9237   -4.1180 H         1 <0>         0.0000
     35 H6         -1.3042   -5.3299   -3.5442 H         1 <0>         0.0000
     36 H7         -0.5011   -2.3955   -3.1504 H         1 <0>         0.0000
     37 H8         -1.0760   -3.4880   -1.9005 H         1 <0>         0.0000
     38 H9         -0.8160   -4.9754   -5.9513 H         1 <0>         0.0000
     39 H10        -0.3384   -3.3124   -5.6450 H         1 <0>         0.0000
     40 H11         1.3965   -3.2540   -1.8191 H         1 <0>         0.0000
     41 H12         0.9213   -4.9207   -2.1426 H         1 <0>         0.0000
     42 H13         1.0696   -5.8296   -4.6047 H         1 <0>         0.0000
     43 H14         1.6695   -4.7466   -5.8693 H         1 <0>         0.0000
     44 H15         1.8798   -2.8985   -4.2361 H         1 <0>         0.0000
     45 H16         6.7512   -3.8516   -6.0088 H         1 <0>         0.0000
     46 H17         6.2130   -2.1786   -6.2459 H         1 <0>         0.0000
     47 H18         5.1008   -3.3754   -5.5781 H         1 <0>         0.0000
     48 H19         8.7683   -2.8236   -4.6956 H         1 <0>         0.0000
     49 H20         8.4581   -1.8791   -3.2373 H         1 <0>         0.0000
     50 H21         8.0767   -1.1923   -4.8275 H         1 <0>         0.0000
     51 H22        10.2394   -4.8115   -1.8248 H         1 <0>         0.0000
     52 H23        10.9839   -6.3835   -1.4761 H         1 <0>         0.0000
     53 H24         9.6519   -5.7903   -0.4691 H         1 <0>         0.0000
     54 H25         9.8469   -5.6280   -4.2720 H         1 <0>         0.0000
     55 H26         8.9082   -7.1052   -4.5527 H         1 <0>         0.0000
     56 H27        10.5347   -7.2113   -3.8597 H         1 <0>         0.0000
     57 H28         3.5763   -3.3482   -1.8764 H         1 <0>         0.0000
     58 H29         4.2013   -2.6540   -3.3756 H         1 <0>         0.0000
     59 H30         7.6746   -7.5067   -0.3465 H         1 <0>         0.0000
     60 H31         5.9552   -7.3240    0.0247 H         1 <0>         0.0000
     61 H32         6.0124   -1.9010   -3.7583 H         1 <0>         0.0000
     62 H33         8.8572   -7.5372   -2.0998 H         1 <0>         0.0000
     63 H34         3.0576   -5.3518   -3.1024 H         1 <0>         0.0000
     64 H35         3.5941   -4.6716   -4.5019 H         1 <0>         0.0000
     65 H36         6.5169   -9.3527   -1.0913 H         1 <0>         0.0000
@<TRIPOS>BOND
     1    1    3 ar
     2    1    5 ar
     3    1   30 1
     4    2    4 ar
     5    2    5 ar
     6    2   31 1
     7    3    9 ar
     8    3   32 1
     9    4    9 ar
    10    4   33 1
    11    5    6 1
    12    6    7 ar
    13    6    8 ar
    14    7   10 ar
    15    7   22 1
    16    8   11 ar
    17    8   23 1
    18    9   29 1
    19   10   24 1
    20   10   26 ar
    21   11   25 1
    22   11   26 ar
    23   12   14 1
    24   12   13 1
    25   12   34 1
    26   12   35 1
    27   13   15 1
    28   13   36 1
    29   13   37 1
    30   14   16 1
    31   14   38 1
    32   14   39 1
    33   15   17 1
    34   15   40 1
    35   15   41 1
    36   16   17 1
    37   16   42 1
    38   16   43 1
    39   17   27 1
    40   17   44 1
    41   18   24 1
    42   18   45 1
    43   18   46 1
    44   18   47 1
    45   19   24 1
    46   19   48 1
    47   19   49 1
    48   19   50 1
    49   20   25 1
    50   20   51 1
    51   20   52 1
    52   20   53 1
    53   21   25 1
    54   21   54 1
    55   21   55 1
    56   21   56 1
    57   22   27 1
    58   22   57 1
    59   22   58 1
    60   23   28 1
    61   23   59 1
    62   23   60 1
    63   24   61 1
    64   25   62 1
    65   27   63 1
    66   27   64 1
    67   28   65 1
