@<TRIPOS>MOLECULE
*****
   52    56     0     0     0
SMALL
NO_CHARGES

@<TRIPOS>ATOM
      1 C1         -3.0439   -0.6083   -1.0607 C.2       1 <0>         0.0000
      2 C2         -1.9531    0.2985   -0.7773 C.2       1 <0>         0.0000
      3 C3         -0.9231   -0.3327   -0.1311 C.2       1 <0>         0.0000
      4 C4         -4.3046   -0.3064   -1.7182 C.2       1 <0>         0.0000
      5 C5         -2.8145   -1.8941   -0.6152 C.2       1 <0>         0.0000
      6 C6         -4.9523   -2.7072   -1.3807 C.2       1 <0>         0.0000
      7 C7          0.2149    2.3963    1.5916 C.2       1 <0>         0.0000
      8 C8         -6.8522   -2.1433   -3.7207 C.3       1 <0>         0.0000
      9 C9         -0.5264    1.7334    3.7106 C.3       1 <0>         0.0000
     10 C10        -0.5767    0.5258    2.7562 C.3       1 <0>         0.0000
     11 C11        -2.3852   -6.5740   -0.7072 C.3       1 <0>         0.0000
     12 C12        -3.3294   -5.7392   -2.3672 C.3       1 <0>         0.0000
     13 C13        -6.3156   -0.7915   -4.1270 C.3       1 <0>         0.0000
     14 C14        -2.5990   -5.1112   -1.1561 C.3       1 <0>         0.0000
     15 C15        -6.3729   -1.1835   -2.6635 C.3       1 <0>         0.0000
     16 C16        -1.9645    1.7553   -1.1501 C.3       1 <0>         0.0000
     17 C17        -5.0017   -0.6946   -4.8733 C.3       1 <0>         0.0000
     18 C18         0.3688    0.2349    0.4012 C.3       1 <0>         0.0000
     19 C19        -3.4355   -4.2604   -0.2069 C.3       1 <0>         0.0000
     20 N1         -5.1377   -1.4405   -1.9436 N.am      1 <0>         0.0000
     21 N2         -3.7190   -2.9218   -0.7461 N.am      1 <0>         0.0000
     22 N3         -0.3988    2.8392    2.7604 N.am      1 <0>         0.0000
     23 N4          0.2140    1.0075    1.6281 N.am      1 <0>         0.0000
     24 O1         -4.6675    0.8075   -2.0782 O.2       1 <0>         0.0000
     25 O2         -5.7915   -3.5975   -1.4381 O.2       1 <0>         0.0000
     26 O3          0.6623    3.0995    0.6922 O.2       1 <0>         0.0000
     27 O4         -3.0825   -7.0848   -1.8696 O.3       1 <0>         0.0000
     28 S1         -1.2672   -2.0433    0.1590 S.3       1 <0>         0.0000
     29 H1         -7.9186   -2.3441   -3.7543 H         1 <0>         0.0000
     30 H2         -6.2300   -3.0079   -3.9248 H         1 <0>         0.0000
     31 H3         -1.4329    1.8210    4.3142 H         1 <0>         0.0000
     32 H4          0.3431    1.6654    4.3788 H         1 <0>         0.0000
     33 H5         -0.1426   -0.3764    3.1973 H         1 <0>         0.0000
     34 H6         -1.6080    0.3045    2.4489 H         1 <0>         0.0000
     35 H7         -1.3438   -6.9147   -0.6731 H         1 <0>         0.0000
     36 H8         -2.8908   -6.8579    0.2256 H         1 <0>         0.0000
     37 H9         -4.3993   -5.5206   -2.4348 H         1 <0>         0.0000
     38 H10        -2.8501   -5.5800   -3.3397 H         1 <0>         0.0000
     39 H11        -7.0471   -0.0356   -4.4025 H         1 <0>         0.0000
     40 H12        -1.6733   -4.5938   -1.4194 H         1 <0>         0.0000
     41 H13        -7.1219   -0.6876   -2.0534 H         1 <0>         0.0000
     42 H14        -2.7599    2.2795   -0.6116 H         1 <0>         0.0000
     43 H15        -1.0147    2.2403   -0.9218 H         1 <0>         0.0000
     44 H16        -2.1875    1.8741   -2.2137 H         1 <0>         0.0000
     45 H17        -4.2864   -1.4466   -4.5239 H         1 <0>         0.0000
     46 H18        -4.5484    0.2913   -4.7400 H         1 <0>         0.0000
     47 H19        -5.1591   -0.8645   -5.9441 H         1 <0>         0.0000
     48 H20         1.0861   -0.5750    0.5780 H         1 <0>         0.0000
     49 H21         0.8199    0.9113   -0.3287 H         1 <0>         0.0000
     50 H22        -2.9187   -4.1343    0.7510 H         1 <0>         0.0000
     51 H23        -4.3963   -4.7373   -0.0127 H         1 <0>         0.0000
     52 H24        -0.1166    3.7577    3.0799 H         1 <0>         0.0000
@<TRIPOS>BOND
     1    1    2 1
     2    1    5 2
     3    1    4 1
     4    2    3 2
     5    2   16 1
     6    3   18 1
     7    3   28 1
     8    4   20 am
     9    4   24 2
    10    5   21 1
    11    5   28 1
    12    6   21 am
    13    6   20 am
    14    6   25 2
    15    7   22 am
    16    7   23 am
    17    7   26 2
    18    8   13 1
    19    8   15 1
    20    8   29 1
    21    8   30 1
    22    9   10 1
    23    9   22 1
    24    9   31 1
    25    9   32 1
    26   10   23 1
    27   10   33 1
    28   10   34 1
    29   11   14 1
    30   11   27 1
    31   11   35 1
    32   11   36 1
    33   12   14 1
    34   12   27 1
    35   12   37 1
    36   12   38 1
    37   13   15 1
    38   13   17 1
    39   13   39 1
    40   14   19 1
    41   14   40 1
    42   15   20 1
    43   15   41 1
    44   16   42 1
    45   16   43 1
    46   16   44 1
    47   17   45 1
    48   17   46 1
    49   17   47 1
    50   18   23 1
    51   18   48 1
    52   18   49 1
    53   19   21 1
    54   19   50 1
    55   19   51 1
    56   22   52 1
