@<TRIPOS>MOLECULE
*****
   69    70     0     0     0
SMALL
NO_CHARGES

@<TRIPOS>ATOM
      1 C1         -1.2642    3.2613   -1.3390 C.ar      1 <0>         0.0000
      2 C2         -0.2834    3.7755   -0.4717 C.ar      1 <0>         0.0000
      3 C3         -1.3570    1.8883   -1.5249 C.ar      1 <0>         0.0000
      4 C4          0.5825    2.9264    0.2122 C.ar      1 <0>         0.0000
      5 C5         -0.4825    1.0135   -0.8538 C.ar      1 <0>         0.0000
      6 C6          0.4781    1.5412    0.0278 C.ar      1 <0>         0.0000
      7 C7         -0.5328   -0.4388   -1.1065 C.2       1 <0>         0.0000
      8 C8          0.6260   -1.2691   -0.5018 C.3       1 <0>         0.0000
      9 C9          0.9817   -0.6549    0.8935 C.3       1 <0>         0.0000
     10 C10        -0.2126   -0.7158    1.8631 C.3       1 <0>         0.0000
     11 C11         5.0511    1.1945    6.0810 C.3       1 <0>         0.0000
     12 C12         6.6346   -1.9184    4.8366 C.3       1 <0>         0.0000
     13 C13         2.4046   -3.3072   -5.0143 C.3       1 <0>         0.0000
     14 C14         2.4001   -6.1521   -1.4801 C.3       1 <0>         0.0000
     15 C15         1.8078   -1.0828   -1.5003 C.3       1 <0>         0.0000
     16 C16         0.1632   -2.7469   -0.4135 C.3       1 <0>         0.0000
     17 C17         2.2336   -1.2734    1.5335 C.3       1 <0>         0.0000
     18 C18         2.6180   -0.6911    2.9001 C.3       1 <0>         0.0000
     19 C19         4.8410    0.6007    4.6874 C.3       1 <0>         0.0000
     20 C20         5.2189   -1.7257    5.4094 C.3       1 <0>         0.0000
     21 C21         3.9712   -1.2419    3.3672 C.3       1 <0>         0.0000
     22 C22         1.5093   -1.6341   -2.9033 C.3       1 <0>         0.0000
     23 C23         1.2696   -3.8122   -0.3356 C.3       1 <0>         0.0000
     24 N1          4.3424   -0.7796    4.7069 N.3       1 <0>         0.0000
     25 O1         -1.3832   -0.9473   -1.8290 O.2       1 <0>         0.0000
     26 O2          3.8948   -1.2761   -4.1039 O.2       1 <0>         0.0000
     27 O3          3.5609   -3.3178   -2.6214 O.2       1 <0>         0.0000
     28 O4         -0.1559   -6.0685   -0.6898 O.2       1 <0>         0.0000
     29 O5          0.5448   -4.7366   -2.7453 O.2       1 <0>         0.0000
     30 O6          1.3477    0.7504    0.7086 O.3       1 <0>         0.0000
     31 S1          3.0202   -2.3554   -3.6137 S.o2      1 <0>         0.0000
     32 S2          0.8454   -5.2431   -1.3861 S.o2      1 <0>         0.0000
     33 H1         -1.9380    3.9340   -1.8612 H         1 <0>         0.0000
     34 H2         -0.2020    4.8493   -0.3236 H         1 <0>         0.0000
     35 H3         -2.0925    1.4549   -2.1960 H         1 <0>         0.0000
     36 H4          1.3353    3.3100    0.8944 H         1 <0>         0.0000
     37 H5         -0.0482   -0.0157    2.6839 H         1 <0>         0.0000
     38 H6         -0.3138   -1.7160    2.2911 H         1 <0>         0.0000
     39 H7         -1.1598   -0.4573    1.3840 H         1 <0>         0.0000
     40 H8          4.1510    1.0679    6.6913 H         1 <0>         0.0000
     41 H9          5.8909    0.7329    6.6091 H         1 <0>         0.0000
     42 H10         5.2661    2.2651    5.9998 H         1 <0>         0.0000
     43 H11         6.6074   -2.2613    3.7970 H         1 <0>         0.0000
     44 H12         7.2175   -0.9924    4.8693 H         1 <0>         0.0000
     45 H13         7.1758   -2.6701    5.4218 H         1 <0>         0.0000
     46 H14         3.2839   -3.7512   -5.4850 H         1 <0>         0.0000
     47 H15         1.7253   -4.0711   -4.6340 H         1 <0>         0.0000
     48 H16         1.9089   -2.6258   -5.7081 H         1 <0>         0.0000
     49 H17         2.1927   -7.0366   -2.0856 H         1 <0>         0.0000
     50 H18         3.1422   -5.5092   -1.9553 H         1 <0>         0.0000
     51 H19         2.6958   -6.4483   -0.4720 H         1 <0>         0.0000
     52 H20         2.6888   -1.5831   -1.0989 H         1 <0>         0.0000
     53 H21         2.0720   -0.0270   -1.5694 H         1 <0>         0.0000
     54 H22        -0.4544   -2.9266   -1.2949 H         1 <0>         0.0000
     55 H23        -0.5172   -2.8697    0.4294 H         1 <0>         0.0000
     56 H24         2.0736   -2.3503    1.6368 H         1 <0>         0.0000
     57 H25         3.0781   -1.1402    0.8516 H         1 <0>         0.0000
     58 H26         2.6524    0.3987    2.8256 H         1 <0>         0.0000
     59 H27         1.8715   -0.9403    3.6602 H         1 <0>         0.0000
     60 H28         5.7745    0.6923    4.1013 H         1 <0>         0.0000
     61 H29         4.0964    1.2089    4.1658 H         1 <0>         0.0000
     62 H30         5.2918   -1.4114    6.4550 H         1 <0>         0.0000
     63 H31         4.7013   -2.6917    5.4240 H         1 <0>         0.0000
     64 H32         4.7431   -0.9981    2.6134 H         1 <0>         0.0000
     65 H33         3.9062   -2.3363    3.3965 H         1 <0>         0.0000
     66 H34         0.7846   -2.4477   -2.9023 H         1 <0>         0.0000
     67 H35         1.1755   -0.8601   -3.5972 H         1 <0>         0.0000
     68 H36         2.2343   -3.4776   -0.7152 H         1 <0>         0.0000
     69 H37         1.4004   -4.2227    0.6676 H         1 <0>         0.0000
@<TRIPOS>BOND
     1    1    2 ar
     2    1    3 ar
     3    1   33 1
     4    2    4 ar
     5    2   34 1
     6    3    5 ar
     7    3   35 1
     8    4    6 ar
     9    4   36 1
    10    5    6 ar
    11    5    7 1
    12    6   30 1
    13    7    8 1
    14    7   25 2
    15    8    9 1
    16    8   15 1
    17    8   16 1
    18    9   10 1
    19    9   17 1
    20    9   30 1
    21   10   37 1
    22   10   38 1
    23   10   39 1
    24   11   19 1
    25   11   40 1
    26   11   41 1
    27   11   42 1
    28   12   20 1
    29   12   43 1
    30   12   44 1
    31   12   45 1
    32   13   31 1
    33   13   46 1
    34   13   47 1
    35   13   48 1
    36   14   32 1
    37   14   49 1
    38   14   50 1
    39   14   51 1
    40   15   22 1
    41   15   52 1
    42   15   53 1
    43   16   23 1
    44   16   54 1
    45   16   55 1
    46   17   18 1
    47   17   56 1
    48   17   57 1
    49   18   21 1
    50   18   58 1
    51   18   59 1
    52   19   24 1
    53   19   60 1
    54   19   61 1
    55   20   24 1
    56   20   62 1
    57   20   63 1
    58   21   24 1
    59   21   64 1
    60   21   65 1
    61   22   31 1
    62   22   66 1
    63   22   67 1
    64   23   32 1
    65   23   68 1
    66   23   69 1
    67   26   31 2
    68   27   31 2
    69   28   32 2
    70   29   32 2
