@<TRIPOS>MOLECULE
*****
   56    59     0     0     0
SMALL
NO_CHARGES

@<TRIPOS>ATOM
      1 C1          0.1580    2.5840    2.3141 C.ar      1 <0>         0.0000
      2 C2          0.0809    2.4253    0.9063 C.ar      1 <0>         0.0000
      3 C3          0.2254    1.5015    3.1947 C.ar      1 <0>         0.0000
      4 C4          0.1365    0.0645    1.2326 C.ar      1 <0>         0.0000
      5 C5          0.0734    1.1508    0.3524 C.ar      1 <0>         0.0000
      6 C6          0.1058   -1.3283    0.9163 C.2       1 <0>         0.0000
      7 C7          0.2070    0.2180    2.6297 C.ar      1 <0>         0.0000
      8 C8          0.1471   -2.0048    2.1171 C.2       1 <0>         0.0000
      9 C9         -0.0509   -1.7546   -0.5222 C.3       1 <0>         0.0000
     10 C10        -0.4146    1.7707   -2.1298 C.3       1 <0>         0.0000
     11 C11        -0.0410   -0.2551   -3.6276 C.3       1 <0>         0.0000
     12 C12         0.0665    0.7437   -1.1095 C.3       1 <0>         0.0000
     13 C13        -0.0831    1.2837   -3.5656 C.3       1 <0>         0.0000
     14 C14        -0.7529   -0.5743   -1.2217 C.3       1 <0>         0.0000
     15 C15        -3.1102   -4.1431   -2.7299 C.3       1 <0>         0.0000
     16 C16        -0.4292   -5.5800    1.5316 C.3       1 <0>         0.0000
     17 C17         2.8506    3.9851   -4.8218 C.3       1 <0>         0.0000
     18 C18         0.1437   -3.4711    2.4214 C.3       1 <0>         0.0000
     19 C19         1.2573    1.8285   -4.0814 C.3       1 <0>         0.0000
     20 C20        -2.7696   -2.6926   -2.3662 C.3       1 <0>         0.0000
     21 C21        -1.4748   -2.2553   -3.0477 C.3       1 <0>         0.0000
     22 N1          0.2222   -1.0687    3.1516 N.pl3     1 <0>         0.0000
     23 N2         -1.0945   -0.8305   -2.7104 N.4       1 <0>         0.0000
     24 O1         -0.4412   -4.1679    1.3319 O.3       1 <0>         0.0000
     25 S1          1.1071    3.6197   -4.4275 S.3       1 <0>         0.0000
     26 H1          0.1652    3.5899    2.7235 H         1 <0>         0.0000
     27 H2          0.0338    3.3127    0.2815 H         1 <0>         0.0000
     28 H3          0.2827    1.6637    4.2675 H         1 <0>         0.0000
     29 H4          0.9225   -1.9443   -0.9957 H         1 <0>         0.0000
     30 H5         -0.6262   -2.6773   -0.5711 H         1 <0>         0.0000
     31 H6         -1.4903    1.9503   -2.0084 H         1 <0>         0.0000
     32 H7          0.0693    2.7352   -1.9654 H         1 <0>         0.0000
     33 H8         -0.2430   -0.6169   -4.6370 H         1 <0>         0.0000
     34 H9          0.9176   -0.6657   -3.3056 H         1 <0>         0.0000
     35 H10         1.1079    0.4951   -1.3583 H         1 <0>         0.0000
     36 H11        -0.8690    1.6235   -4.2510 H         1 <0>         0.0000
     37 H12        -1.7256   -0.4192   -0.7484 H         1 <0>         0.0000
     38 H13        -3.2237   -4.2711   -3.8111 H         1 <0>         0.0000
     39 H14        -2.3293   -4.8288   -2.3857 H         1 <0>         0.0000
     40 H15        -4.0490   -4.4421   -2.2576 H         1 <0>         0.0000
     41 H16        -0.8930   -6.0306    0.6522 H         1 <0>         0.0000
     42 H17        -1.0049   -5.8589    2.4246 H         1 <0>         0.0000
     43 H18         0.5970   -5.9586    1.6343 H         1 <0>         0.0000
     44 H19         2.9035    5.0502   -5.0564 H         1 <0>         0.0000
     45 H20         3.1852    3.4159   -5.6927 H         1 <0>         0.0000
     46 H21         3.4986    3.7794   -3.9659 H         1 <0>         0.0000
     47 H22         1.1721   -3.8311    2.5916 H         1 <0>         0.0000
     48 H23        -0.4230   -3.6626    3.3477 H         1 <0>         0.0000
     49 H24         1.5525    1.3081   -4.9999 H         1 <0>         0.0000
     50 H25         2.0416    1.6641   -3.3320 H         1 <0>         0.0000
     51 H26        -2.6861   -2.5991   -1.2802 H         1 <0>         0.0000
     52 H27        -3.5859   -2.0307   -2.6842 H         1 <0>         0.0000
     53 H28        -0.6292   -2.8892   -2.7802 H         1 <0>         0.0000
     54 H29        -1.5914   -2.2901   -4.1340 H         1 <0>         0.0000
     55 H30         0.2433   -1.3015    4.1355 H         1 <0>         0.0000
     56 H31        -1.9382   -0.2765   -2.8849 H         1 <0>         0.0000
@<TRIPOS>BOND
     1    1    2 ar
     2    1    3 ar
     3    1   26 1
     4    2    5 ar
     5    2   27 1
     6    3    7 ar
     7    3   28 1
     8    4    5 ar
     9    4    6 1
    10    4    7 ar
    11    5   12 1
    12    6    8 2
    13    6    9 1
    14    7   22 1
    15    8   18 1
    16    8   22 1
    17    9   14 1
    18    9   29 1
    19    9   30 1
    20   10   12 1
    21   10   13 1
    22   10   31 1
    23   10   32 1
    24   11   13 1
    25   11   23 1
    26   11   33 1
    27   11   34 1
    28   12   14 1
    29   12   35 1
    30   13   19 1
    31   13   36 1
    32   14   23 1
    33   14   37 1
    34   15   20 1
    35   15   38 1
    36   15   39 1
    37   15   40 1
    38   16   24 1
    39   16   41 1
    40   16   42 1
    41   16   43 1
    42   17   25 1
    43   17   44 1
    44   17   45 1
    45   17   46 1
    46   18   24 1
    47   18   47 1
    48   18   48 1
    49   19   25 1
    50   19   49 1
    51   19   50 1
    52   20   21 1
    53   20   51 1
    54   20   52 1
    55   21   23 1
    56   21   53 1
    57   21   54 1
    58   22   55 1
    59   23   56 1
