@<TRIPOS>MOLECULE
*****
   66    70     0     0     0
SMALL
NO_CHARGES

@<TRIPOS>ATOM
      1 C1         -4.6821    2.9065    4.2659 C.ar      1 <0>         0.0000
      2 C2         -4.5582    1.3773    6.1241 C.ar      1 <0>         0.0000
      3 C3         -0.5483    0.2407    1.3518 C.ar      1 <0>         0.0000
      4 C4         -4.6726   -1.4825   -0.2695 C.ar      1 <0>         0.0000
      5 C5         -6.2868   -2.8703    0.8728 C.ar      1 <0>         0.0000
      6 C6         -1.4939   -0.7691    1.4668 C.ar      1 <0>         0.0000
      7 C7         -5.1062    3.9285    5.1204 C.ar      1 <0>         0.0000
      8 C8         -4.9834    2.3824    6.9845 C.ar      1 <0>         0.0000
      9 C9         -5.6002   -1.2122   -1.2771 C.ar      1 <0>         0.0000
     10 C10        -7.2283   -2.6152   -0.1297 C.ar      1 <0>         0.0000
     11 C11        -1.7281    1.6606    2.9274 C.ar      1 <0>         0.0000
     12 C12        -2.7134    0.6600    3.0513 C.ar      1 <0>         0.0000
     13 C13        -4.4080    1.6149    4.7419 C.ar      1 <0>         0.0000
     14 C14        -3.9215    0.5680    3.8193 C.2       1 <0>         0.0000
     15 C15        -5.0031   -2.3139    0.8120 C.ar      1 <0>         0.0000
     16 C16        -0.6461    1.4603    2.0788 C.ar      1 <0>         0.0000
     17 C17        -2.5797   -0.5589    2.3350 C.ar      1 <0>         0.0000
     18 C18        -5.2606    3.6685    6.4905 C.ar      1 <0>         0.0000
     19 C19        -6.8641   -1.7896   -1.1866 C.ar      1 <0>         0.0000
     20 C20        -4.4746   -0.6837    3.5497 C.2       1 <0>         0.0000
     21 C21        -5.7178   -1.2923    4.0708 C.2       1 <0>         0.0000
     22 C22         3.1446   -2.0379    1.6130 C.3       1 <0>         0.0000
     23 C23         4.4856   -1.9781    2.3144 C.3       1 <0>         0.0000
     24 C24         3.9121   -0.7367    1.6641 C.3       1 <0>         0.0000
     25 C25        -6.3921    6.7200    8.1863 C.3       1 <0>         0.0000
     26 C26         0.4396    2.5073    1.9509 C.3       1 <0>         0.0000
     27 C27        -3.9936   -2.5881    1.9106 C.3       1 <0>         0.0000
     28 C28         3.4009    0.3791    2.5341 C.3       1 <0>         0.0000
     29 C29        -5.9684    5.9158    6.9698 C.3       1 <0>         0.0000
     30 C30         1.7568    2.0967    2.6130 C.3       1 <0>         0.0000
     31 N1         -3.6412   -1.3787    2.6657 N.pl3     1 <0>         0.0000
     32 O1         -5.9674   -2.4847    4.0211 O.2       1 <0>         0.0000
     33 O2         -6.6243   -0.4479    4.6252 O.3       1 <0>         0.0000
     34 O3         -5.6694    4.5856    7.4138 O.3       1 <0>         0.0000
     35 O4          2.3309    1.0359    1.8619 O.3       1 <0>         0.0000
     36 F1         -7.7722   -1.5327   -2.1655 F         1 <0>         0.0000
     37 H1         -4.5747    3.1120    3.2042 H         1 <0>         0.0000
     38 H2         -4.3360    0.3910    6.5219 H         1 <0>         0.0000
     39 H3          0.3088    0.0941    0.7032 H         1 <0>         0.0000
     40 H4         -3.6856   -1.0314   -0.3248 H         1 <0>         0.0000
     41 H5         -6.5616   -3.4880    1.7221 H         1 <0>         0.0000
     42 H6         -1.3798   -1.6896    0.9020 H         1 <0>         0.0000
     43 H7         -5.3159    4.9086    4.7078 H         1 <0>         0.0000
     44 H8         -5.1023    2.1967    8.0478 H         1 <0>         0.0000
     45 H9         -5.3586   -0.5715   -2.1197 H         1 <0>         0.0000
     46 H10        -8.2280   -3.0370   -0.0927 H         1 <0>         0.0000
     47 H11        -1.8211    2.5836    3.4953 H         1 <0>         0.0000
     48 H12         3.0854   -2.5603    0.6628 H         1 <0>         0.0000
     49 H13         2.2502   -2.1118    2.2255 H         1 <0>         0.0000
     50 H14         4.4940   -2.0269    3.4001 H         1 <0>         0.0000
     51 H15         5.3378   -2.4549    1.8394 H         1 <0>         0.0000
     52 H16         4.3791   -0.4109    0.7378 H         1 <0>         0.0000
     53 H17        -7.2777    6.2781    8.6517 H         1 <0>         0.0000
     54 H18        -5.5890    6.7503    8.9281 H         1 <0>         0.0000
     55 H19        -6.6306    7.7463    7.8895 H         1 <0>         0.0000
     56 H20         0.6454    2.7237    0.8960 H         1 <0>         0.0000
     57 H21         0.1054    3.4435    2.4111 H         1 <0>         0.0000
     58 H22        -4.3805   -3.3291    2.6059 H         1 <0>         0.0000
     59 H23        -3.0623   -2.9743    1.4910 H         1 <0>         0.0000
     60 H24         4.2056    1.0992    2.7559 H         1 <0>         0.0000
     61 H25         3.0434   -0.0246    3.4952 H         1 <0>         0.0000
     62 H26        -5.0788    6.3553    6.4994 H         1 <0>         0.0000
     63 H27        -6.7721    5.8821    6.2225 H         1 <0>         0.0000
     64 H28         2.4496    2.9533    2.6467 H         1 <0>         0.0000
     65 H29         1.5687    1.7725    3.6485 H         1 <0>         0.0000
     66 H30        -6.2936    0.4709    4.6144 H         1 <0>         0.0000
@<TRIPOS>BOND
     1    1    7 ar
     2    1   13 ar
     3    1   37 1
     4    2    8 ar
     5    2   13 ar
     6    2   38 1
     7    3    6 ar
     8    3   16 ar
     9    3   39 1
    10    4    9 ar
    11    4   15 ar
    12    4   40 1
    13    5   10 ar
    14    5   15 ar
    15    5   41 1
    16    6   17 ar
    17    6   42 1
    18    7   18 ar
    19    7   43 1
    20    8   18 ar
    21    8   44 1
    22    9   19 ar
    23    9   45 1
    24   10   19 ar
    25   10   46 1
    26   11   12 ar
    27   11   16 ar
    28   11   47 1
    29   12   14 1
    30   12   17 ar
    31   13   14 1
    32   14   20 2
    33   15   27 1
    34   16   26 1
    35   17   31 1
    36   18   34 1
    37   19   36 1
    38   20   21 1
    39   20   31 1
    40   21   32 2
    41   21   33 1
    42   22   23 1
    43   22   24 1
    44   22   48 1
    45   22   49 1
    46   23   24 1
    47   23   50 1
    48   23   51 1
    49   24   28 1
    50   24   52 1
    51   25   29 1
    52   25   53 1
    53   25   54 1
    54   25   55 1
    55   26   30 1
    56   26   56 1
    57   26   57 1
    58   27   31 1
    59   27   58 1
    60   27   59 1
    61   28   35 1
    62   28   60 1
    63   28   61 1
    64   29   34 1
    65   29   62 1
    66   29   63 1
    67   30   35 1
    68   30   64 1
    69   30   65 1
    70   33   66 1
