@<TRIPOS>MOLECULE
*****
   50    54     0     0     0
SMALL
NO_CHARGES

@<TRIPOS>ATOM
      1 C1         -2.6199   -0.1739    6.2620 C.ar      1 <0>         0.0000
      2 C2          2.6562    0.1812    0.4748 C.ar      1 <0>         0.0000
      3 C3         -2.3145    0.8452    5.3564 C.ar      1 <0>         0.0000
      4 C4          1.4802    0.7398    0.9727 C.ar      1 <0>         0.0000
      5 C5         -3.4007   -1.2648    5.8680 C.ar      1 <0>         0.0000
      6 C6          4.3480   -2.8963   -0.3176 C.ar      1 <0>         0.0000
      7 C7          1.2452   -1.1839    2.4198 C.ar      1 <0>         0.0000
      8 C8          5.5415   -0.8777    0.1565 C.ar      1 <0>         0.0000
      9 C9         -3.5716   -0.3032    3.6383 C.ar      1 <0>         0.0000
     10 C10         5.5031   -3.3553   -0.9497 C.ar      1 <0>         0.0000
     11 C11         3.1530   -1.0542    0.9137 C.ar      1 <0>         0.0000
     12 C12         4.3598   -1.6208    0.2613 C.ar      1 <0>         0.0000
     13 C13         2.4327   -1.7299    1.9225 C.ar      1 <0>         0.0000
     14 C14        -2.7893    0.7910    4.0370 C.ar      1 <0>         0.0000
     15 C15         0.7547    0.0430    1.9526 C.ar      1 <0>         0.0000
     16 C16        -3.8692   -1.3138    4.5533 C.ar      1 <0>         0.0000
     17 C17         6.6565   -1.4213   -0.4947 C.ar      1 <0>         0.0000
     18 C18         2.9164   -2.9811    2.5300 C.2       1 <0>         0.0000
     19 C19        -1.1332    1.6703    2.2527 C.2       1 <0>         0.0000
     20 C20        -3.5161    2.5781    2.2819 C.3       1 <0>         0.0000
     21 C21        -2.7562    3.3041    3.3503 C.3       1 <0>         0.0000
     22 C22        -2.4129    1.8503    3.0438 C.3       1 <0>         0.0000
     23 C23         7.9507   -0.6553   -0.6135 C.3       1 <0>         0.0000
     24 N1          6.6371   -2.6495   -1.0435 N.ar      1 <0>         0.0000
     25 N2          4.2267   -3.2500    2.8220 N.2       1 <0>         0.0000
     26 N3          2.1084   -3.9733    2.9228 N.2       1 <0>         0.0000
     27 N4          4.2528   -4.4256    3.3996 N.2       1 <0>         0.0000
     28 N5          2.9842   -4.8291    3.4473 N.pl3     1 <0>         0.0000
     29 N6         -0.4512    0.5056    2.5154 N.am      1 <0>         0.0000
     30 O1         -0.7577    2.5158    1.4418 O.2       1 <0>         0.0000
     31 Cl1        -4.8515   -2.6754    4.0391 Cl        1 <0>         0.0000
     32 H1         -2.2507   -0.1238    7.2827 H         1 <0>         0.0000
     33 H2          3.1928    0.7073   -0.3098 H         1 <0>         0.0000
     34 H3         -1.7053    1.6894    5.6678 H         1 <0>         0.0000
     35 H4          1.1162    1.6898    0.6071 H         1 <0>         0.0000
     36 H5         -3.6446   -2.0599    6.5652 H         1 <0>         0.0000
     37 H6          3.4563   -3.5158   -0.2888 H         1 <0>         0.0000
     38 H7          0.7109   -1.7203    3.2001 H         1 <0>         0.0000
     39 H8          5.6037    0.1104    0.6040 H         1 <0>         0.0000
     40 H9         -3.9431   -0.3631    2.6197 H         1 <0>         0.0000
     41 H10         5.5167   -4.3429   -1.4096 H         1 <0>         0.0000
     42 H11        -4.5348    2.2697    2.4958 H         1 <0>         0.0000
     43 H12        -3.2980    2.8327    1.2505 H         1 <0>         0.0000
     44 H13        -2.0294    4.0440    3.0334 H         1 <0>         0.0000
     45 H14        -3.2547    3.4923    4.2961 H         1 <0>         0.0000
     46 H15         8.7678   -1.2257   -0.1609 H         1 <0>         0.0000
     47 H16         8.2059   -0.5069   -1.6679 H         1 <0>         0.0000
     48 H17         7.8919    0.3212   -0.1258 H         1 <0>         0.0000
     49 H18         2.7133   -5.7236    3.8413 H         1 <0>         0.0000
     50 H19        -0.8679   -0.1068    3.2060 H         1 <0>         0.0000
@<TRIPOS>BOND
     1    1    3 ar
     2    1    5 ar
     3    1   32 1
     4    2    4 ar
     5    2   11 ar
     6    2   33 1
     7    3   14 ar
     8    3   34 1
     9    4   15 ar
    10    4   35 1
    11    5   16 ar
    12    5   36 1
    13    6   10 ar
    14    6   12 ar
    15    6   37 1
    16    7   13 ar
    17    7   15 ar
    18    7   38 1
    19    8   12 ar
    20    8   17 ar
    21    8   39 1
    22    9   14 ar
    23    9   16 ar
    24    9   40 1
    25   10   24 ar
    26   10   41 1
    27   11   12 1
    28   11   13 ar
    29   13   18 1
    30   14   22 1
    31   15   29 1
    32   16   31 1
    33   17   23 1
    34   17   24 ar
    35   18   25 1
    36   18   26 2
    37   19   22 1
    38   19   29 am
    39   19   30 2
    40   20   21 1
    41   20   22 1
    42   20   42 1
    43   20   43 1
    44   21   22 1
    45   21   44 1
    46   21   45 1
    47   23   46 1
    48   23   47 1
    49   23   48 1
    50   25   27 2
    51   26   28 1
    52   27   28 1
    53   28   49 1
    54   29   50 1
