@<TRIPOS>MOLECULE
*****
   61    65     0     0     0
SMALL
NO_CHARGES

@<TRIPOS>ATOM
      1 C1         -3.7278    1.6818    7.0414 C.ar      1 <0>         0.0000
      2 C2         -4.7212    1.9432    7.9908 C.ar      1 <0>         0.0000
      3 C3         -2.2006    6.5396    2.5189 C.ar      1 <0>         0.0000
      4 C4         -1.7308    5.3449    1.9838 C.ar      1 <0>         0.0000
      5 C5         -3.9605    1.9501    5.6899 C.ar      1 <0>         0.0000
      6 C6         -5.9503    2.4728    7.5871 C.ar      1 <0>         0.0000
      7 C7         -3.4116    6.5706    3.2496 C.ar      1 <0>         0.0000
      8 C8         -2.5063    4.1955    2.2138 C.ar      1 <0>         0.0000
      9 C9          0.4920    0.6387   -0.1019 C.ar      1 <0>         0.0000
     10 C10        -5.1824    2.4839    5.2609 C.ar      1 <0>         0.0000
     11 C11        -6.1502    2.7274    6.2354 C.ar      1 <0>         0.0000
     12 C12        -2.4763    2.7887    1.9157 C.2       1 <0>         0.0000
     13 C13         0.5531    2.0149    0.0357 C.ar      1 <0>         0.0000
     14 C14        -3.6999    4.3673    2.9613 C.ar      1 <0>         0.0000
     15 C15        -0.6789    0.0522    0.4425 C.ar      1 <0>         0.0000
     16 C16        -1.4620    2.0220    1.1851 C.ar      1 <0>         0.0000
     17 C17         0.4568   -1.7069   -0.5108 C.2       1 <0>         0.0000
     18 C18         1.6989    2.8483   -0.4932 C.2       1 <0>         0.0000
     19 C19         1.3410   -0.4532   -0.7289 C.3       1 <0>         0.0000
     20 C20         2.6703   -0.6890    0.0217 C.3       1 <0>         0.0000
     21 C21         1.5816   -0.2641   -2.2380 C.3       1 <0>         0.0000
     22 C22         1.9693    4.8654    2.6783 C.3       1 <0>         0.0000
     23 C23        -5.4787    2.7817    3.8028 C.3       1 <0>         0.0000
     24 C24         2.4525    5.1454   -0.9020 C.3       1 <0>         0.0000
     25 C25         3.3182    5.5121    0.3057 C.3       1 <0>         0.0000
     26 N1         -4.1786    5.5014    3.4830 N.ar      1 <0>         0.0000
     27 N2         -3.5492    2.1797    2.4329 N.2       1 <0>         0.0000
     28 N3         -0.4245    2.7030    0.6815 N.ar      1 <0>         0.0000
     29 N4         -1.6452    0.6830    1.0802 N.ar      1 <0>         0.0000
     30 N5         -4.2893    3.1284    3.0465 N.pl3     1 <0>         0.0000
     31 N6         -0.6740   -1.3097    0.2029 N.am      1 <0>         0.0000
     32 N7          1.4249    4.1717   -0.5840 N.am      1 <0>         0.0000
     33 O1          0.6916   -2.8440   -0.8718 O.2       1 <0>         0.0000
     34 O2          2.7891    2.3552   -0.8025 O.2       1 <0>         0.0000
     35 O3          0.9569    6.6876    0.9636 O.2       1 <0>         0.0000
     36 F1         -7.3514    3.2385    5.8436 F         1 <0>         0.0000
     37 S1          2.2900    6.3345    1.6294 S.o       1 <0>         0.0000
     38 H1         -2.7726    1.2680    7.3524 H         1 <0>         0.0000
     39 H2         -4.5442    1.7371    9.0427 H         1 <0>         0.0000
     40 H3         -1.6362    7.4546    2.3691 H         1 <0>         0.0000
     41 H4         -0.8066    5.3326    1.4222 H         1 <0>         0.0000
     42 H5         -3.1898    1.7420    4.9539 H         1 <0>         0.0000
     43 H6         -6.7440    2.6899    8.2954 H         1 <0>         0.0000
     44 H7         -3.7718    7.5121    3.6609 H         1 <0>         0.0000
     45 H8          3.1453   -1.5940   -0.3673 H         1 <0>         0.0000
     46 H9          2.4981   -0.8248    1.0947 H         1 <0>         0.0000
     47 H10         3.3254    0.1694   -0.1262 H         1 <0>         0.0000
     48 H11         2.0337   -1.1718   -2.6471 H         1 <0>         0.0000
     49 H12         2.2531    0.5803   -2.3997 H         1 <0>         0.0000
     50 H13         0.6420   -0.0785   -2.7682 H         1 <0>         0.0000
     51 H14         1.3245    5.2051    3.4919 H         1 <0>         0.0000
     52 H15         2.9167    4.4985    3.0831 H         1 <0>         0.0000
     53 H16         1.4595    4.0916    2.1038 H         1 <0>         0.0000
     54 H17        -5.9274    1.9140    3.3125 H         1 <0>         0.0000
     55 H18        -6.1752    3.6178    3.7267 H         1 <0>         0.0000
     56 H19         3.1011    4.7329   -1.6786 H         1 <0>         0.0000
     57 H20         1.9582    6.0381   -1.2871 H         1 <0>         0.0000
     58 H21         4.0789    6.2428    0.0152 H         1 <0>         0.0000
     59 H22         3.8128    4.6350    0.7293 H         1 <0>         0.0000
     60 H23        -1.4195   -1.9385    0.4809 H         1 <0>         0.0000
     61 H24         0.5446    4.5041   -0.2041 H         1 <0>         0.0000
@<TRIPOS>BOND
     1    1    2 ar
     2    1    5 ar
     3    1   38 1
     4    2    6 ar
     5    2   39 1
     6    3    4 ar
     7    3    7 ar
     8    3   40 1
     9    4    8 ar
    10    4   41 1
    11    5   10 ar
    12    5   42 1
    13    6   11 ar
    14    6   43 1
    15    7   26 ar
    16    7   44 1
    17    8   12 1
    18    8   14 ar
    19    9   13 ar
    20    9   15 ar
    21    9   19 1
    22   10   11 ar
    23   10   23 1
    24   11   36 1
    25   12   16 1
    26   12   27 2
    27   13   18 1
    28   13   28 ar
    29   14   26 ar
    30   14   30 1
    31   15   29 ar
    32   15   31 1
    33   16   28 ar
    34   16   29 ar
    35   17   19 1
    36   17   31 am
    37   17   33 2
    38   18   32 am
    39   18   34 2
    40   19   20 1
    41   19   21 1
    42   20   45 1
    43   20   46 1
    44   20   47 1
    45   21   48 1
    46   21   49 1
    47   21   50 1
    48   22   37 1
    49   22   51 1
    50   22   52 1
    51   22   53 1
    52   23   30 1
    53   23   54 1
    54   23   55 1
    55   24   25 1
    56   24   32 1
    57   24   56 1
    58   24   57 1
    59   25   37 1
    60   25   58 1
    61   25   59 1
    62   27   30 1
    63   31   60 1
    64   32   61 1
    65   35   37 2
