@<TRIPOS>MOLECULE
*****
   32    33     0     0     0
SMALL
NO_CHARGES

@<TRIPOS>ATOM
      1 C1          3.2748    0.0239   -1.6607 C.ar      1 <0>         0.0000
      2 C2          2.5874    0.9012   -0.8195 C.ar      1 <0>         0.0000
      3 C3          2.1819   -1.1574   -4.9291 C.2       1 <0>         0.0000
      4 C4          2.7116   -0.3372   -2.9025 C.ar      1 <0>         0.0000
      5 C5          1.4678    0.1901   -3.2759 C.ar      1 <0>         0.0000
      6 C6          3.1453   -1.1807   -3.9520 C.2       1 <0>         0.0000
      7 C7          1.3555    1.4186   -1.1992 C.ar      1 <0>         0.0000
      8 C8          0.7774    1.0750   -2.4256 C.ar      1 <0>         0.0000
      9 C9         -0.0139   -0.0556   -5.2795 C.2       1 <0>         0.0000
     10 C10        -1.3670    1.5372   -7.1988 C.3       1 <0>         0.0000
     11 C11        -0.3657   -0.0058   -8.9093 C.3       1 <0>         0.0000
     12 C12        -1.9471   -0.9118   -7.1812 C.3       1 <0>         0.0000
     13 C13        -0.8593    0.1217   -7.4698 C.3       1 <0>         0.0000
     14 N1          1.1475   -0.3259   -4.5362 N.am      1 <0>         0.0000
     15 O1         -1.0744    0.2057   -4.7361 O.2       1 <0>         0.0000
     16 O2          4.2763   -1.8979   -4.0213 O.3       1 <0>         0.0000
     17 O3          0.2536   -0.1356   -6.6081 O.3       1 <0>         0.0000
     18 Cl1         0.6015    2.5092   -0.0780 Cl        1 <0>         0.0000
     19 Cl2        -0.6588    1.9236   -2.8960 Cl        1 <0>         0.0000
     20 H1          4.2382   -0.3744   -1.3541 H         1 <0>         0.0000
     21 H2          3.0388    1.1688    0.1332 H         1 <0>         0.0000
     22 H3          2.1487   -1.6963   -5.8673 H         1 <0>         0.0000
     23 H4         -1.7222    1.6329   -6.1665 H         1 <0>         0.0000
     24 H5         -0.5857    2.2853   -7.3685 H         1 <0>         0.0000
     25 H6         -2.2209    1.7764   -7.8430 H         1 <0>         0.0000
     26 H7         -0.0005   -1.0199   -9.1082 H         1 <0>         0.0000
     27 H8          0.4788    0.6680   -9.0935 H         1 <0>         0.0000
     28 H9         -1.1570    0.2252   -9.6297 H         1 <0>         0.0000
     29 H10        -1.5832   -1.9272   -7.3755 H         1 <0>         0.0000
     30 H11        -2.2875   -0.8596   -6.1419 H         1 <0>         0.0000
     31 H12        -2.8112   -0.7620   -7.8386 H         1 <0>         0.0000
     32 H13         4.8262   -1.7744   -3.2224 H         1 <0>         0.0000
@<TRIPOS>BOND
     1    1    2 ar
     2    1    4 ar
     3    1   20 1
     4    2    7 ar
     5    2   21 1
     6    3    6 2
     7    3   14 1
     8    3   22 1
     9    4    5 ar
    10    4    6 1
    11    5    8 ar
    12    5   14 1
    13    6   16 1
    14    7    8 ar
    15    7   18 1
    16    8   19 1
    17    9   14 am
    18    9   15 2
    19    9   17 1
    20   10   13 1
    21   10   23 1
    22   10   24 1
    23   10   25 1
    24   11   13 1
    25   11   26 1
    26   11   27 1
    27   11   28 1
    28   12   13 1
    29   12   29 1
    30   12   30 1
    31   12   31 1
    32   13   17 1
    33   16   32 1
