@<TRIPOS>MOLECULE
*****
   53    55     0     0     0
SMALL
NO_CHARGES

@<TRIPOS>ATOM
      1 C1         -2.7140   -0.8120   -1.6571 C.2       1 <0>         0.0000
      2 C2         -1.6104    0.1018   -1.4678 C.2       1 <0>         0.0000
      3 C3         -0.5785   -0.4823   -0.7844 C.2       1 <0>         0.0000
      4 C4         -3.9731   -0.5519   -2.3380 C.2       1 <0>         0.0000
      5 C5         -2.4856   -2.0610   -1.1172 C.2       1 <0>         0.0000
      6 C6         -4.5880   -2.9432   -1.8850 C.2       1 <0>         0.0000
      7 C7          2.3609    1.4461   -1.7540 C.2       1 <0>         0.0000
      8 C8          2.9827   -0.0767   -3.4201 C.3       1 <0>         0.0000
      9 C9          2.1579   -0.8139   -2.3473 C.3       1 <0>         0.0000
     10 C10        -1.5992    1.5218   -1.9619 C.3       1 <0>         0.0000
     11 C11        -8.5933   -0.7736   -2.6087 C.3       1 <0>         0.0000
     12 C12        -7.4457   -2.0382   -0.7373 C.3       1 <0>         0.0000
     13 C13        -5.1330   -3.4807    2.5079 C.3       1 <0>         0.0000
     14 C14         0.7590    0.1065   -0.4248 C.3       1 <0>         0.0000
     15 C15        -3.1599   -4.3604   -0.4758 C.3       1 <0>         0.0000
     16 C16        -6.2048   -1.4383   -2.9142 C.3       1 <0>         0.0000
     17 C17        -3.4500   -4.2036    1.0152 C.3       1 <0>         0.0000
     18 C18        -7.2791   -1.0487   -1.8842 C.3       1 <0>         0.0000
     19 N1         -4.8756   -1.6508   -2.3277 N.am      1 <0>         0.0000
     20 N2         -3.3717   -3.1094   -1.2104 N.am      1 <0>         0.0000
     21 N3          3.3301    1.1613   -2.7177 N.am      1 <0>         0.0000
     22 N4          1.6036    0.2980   -1.5899 N.am      1 <0>         0.0000
     23 O1         -4.2651    0.4978   -2.8989 O.2       1 <0>         0.0000
     24 O2         -5.3511   -3.8841   -2.0695 O.2       1 <0>         0.0000
     25 O3          2.2100    2.5085   -1.1614 O.2       1 <0>         0.0000
     26 O4         -4.7936   -3.7865    1.1634 O.3       1 <0>         0.0000
     27 F1         -6.8648    0.1786   -1.2972 F         1 <0>         0.0000
     28 S1         -0.9200   -2.1642   -0.3682 S.3       1 <0>         0.0000
     29 H1          3.8725   -0.6372   -3.7169 H         1 <0>         0.0000
     30 H2          2.3690    0.1170   -4.3103 H         1 <0>         0.0000
     31 H3          1.3709   -1.4383   -2.7786 H         1 <0>         0.0000
     32 H4          2.7986   -1.4449   -1.7117 H         1 <0>         0.0000
     33 H5         -2.4651    2.0675   -1.5777 H         1 <0>         0.0000
     34 H6         -0.6850    2.0401   -1.6673 H         1 <0>         0.0000
     35 H7         -1.6813    1.5471   -3.0525 H         1 <0>         0.0000
     36 H8         -8.4561   -0.0126   -3.3825 H         1 <0>         0.0000
     37 H9         -9.3407   -0.4119   -1.8974 H         1 <0>         0.0000
     38 H10        -8.9747   -1.6866   -3.0764 H         1 <0>         0.0000
     39 H11        -6.5182   -2.1473   -0.1716 H         1 <0>         0.0000
     40 H12        -7.7269   -3.0250   -1.1113 H         1 <0>         0.0000
     41 H13        -8.2236   -1.6729   -0.0599 H         1 <0>         0.0000
     42 H14        -6.1747   -3.1539    2.5058 H         1 <0>         0.0000
     43 H15        -4.5015   -2.6725    2.9053 H         1 <0>         0.0000
     44 H16        -5.0326   -4.3627    3.1577 H         1 <0>         0.0000
     45 H17         0.6372    1.0924    0.0309 H         1 <0>         0.0000
     46 H18         1.2672   -0.5298    0.3154 H         1 <0>         0.0000
     47 H19        -2.1277   -4.6944   -0.6246 H         1 <0>         0.0000
     48 H20        -3.8324   -5.0978   -0.9109 H         1 <0>         0.0000
     49 H21        -6.1051   -0.6302   -3.6379 H         1 <0>         0.0000
     50 H22        -6.5046   -2.3555   -3.4210 H         1 <0>         0.0000
     51 H23        -2.7693   -3.4699    1.4724 H         1 <0>         0.0000
     52 H24        -3.2778   -5.1734    1.5102 H         1 <0>         0.0000
     53 H25         3.6593    1.9623   -3.2429 H         1 <0>         0.0000
@<TRIPOS>BOND
     1    1    2 1
     2    1    5 2
     3    1    4 1
     4    2    3 2
     5    2   10 1
     6    3   14 1
     7    3   28 1
     8    4   19 am
     9    4   23 2
    10    5   20 1
    11    5   28 1
    12    6   20 am
    13    6   19 am
    14    6   24 2
    15    7   21 am
    16    7   22 am
    17    7   25 2
    18    8    9 1
    19    8   21 1
    20    8   29 1
    21    8   30 1
    22    9   22 1
    23    9   31 1
    24    9   32 1
    25   10   33 1
    26   10   34 1
    27   10   35 1
    28   11   18 1
    29   11   36 1
    30   11   37 1
    31   11   38 1
    32   12   18 1
    33   12   39 1
    34   12   40 1
    35   12   41 1
    36   13   26 1
    37   13   42 1
    38   13   43 1
    39   13   44 1
    40   14   22 1
    41   14   45 1
    42   14   46 1
    43   15   17 1
    44   15   20 1
    45   15   47 1
    46   15   48 1
    47   16   18 1
    48   16   19 1
    49   16   49 1
    50   16   50 1
    51   17   26 1
    52   17   51 1
    53   17   52 1
    54   18   27 1
    55   21   53 1
