@<TRIPOS>MOLECULE
*****
   16    17     0     0     0
SMALL
NO_CHARGES

@<TRIPOS>ATOM
      1 C1          0.5881    0.8905    1.8661 C.ar      1 <0>         0.0000
      2 C2          0.2261    0.9401    3.1967 C.ar      1 <0>         0.0000
      3 C3         -0.2066    0.1010    1.0601 C.ar      1 <0>         0.0000
      4 C4         -4.2011   -2.0754    4.4467 C.2       1 <0>         0.0000
      5 C5         -4.3356   -2.4908    3.1451 C.2       1 <0>         0.0000
      6 C6         -1.5246   -0.4612    2.8247 C.ar      1 <0>         0.0000
      7 C7         -2.6536   -1.1829    3.3368 C.2       1 <0>         0.0000
      8 N1         -0.8283    0.2746    3.7121 N.ar      1 <0>         0.0000
      9 N2         -1.2746   -0.5912    1.5079 N.ar      1 <0>         0.0000
     10 N3         -3.1215   -1.2378    4.5633 N.2       1 <0>         0.0000
     11 O1         -3.3370   -1.9177    2.4171 O.3       1 <0>         0.0000
     12 H1          1.4388    1.4354    1.4796 H         1 <0>         0.0000
     13 H2          0.7909    1.5348    3.9068 H         1 <0>         0.0000
     14 H3         -0.0000    0.0005   -0.0001 H         1 <0>         0.0000
     15 H4         -4.8162   -2.3316    5.2962 H         1 <0>         0.0000
     16 H5         -5.0177   -3.1331    2.6091 H         1 <0>         0.0000
@<TRIPOS>BOND
     1    1    3 ar
     2    1    2 ar
     3    1   12 1
     4    2    8 ar
     5    2   13 1
     6    3    9 ar
     7    3   14 1
     8    4    5 2
     9    4   10 1
    10    4   15 1
    11    5   11 1
    12    5   16 1
    13    6    7 1
    14    6    9 ar
    15    6    8 ar
    16    7   10 2
    17    7   11 1
