@<TRIPOS>MOLECULE
*****
   16    16     0     0     0
SMALL
NO_CHARGES

@<TRIPOS>ATOM
      1 C1          2.4840   -1.3240    0.1040 C.2       1 <0>         0.0000
      2 C2          4.3260   -0.1680   -1.2450 C.3       1 <0>         0.0000
      3 C3          5.0120   -0.8590   -0.0890 C.3       1 <0>         0.0000
      4 C4          3.6190   -0.3170    0.0740 C.3       1 <0>         0.0000
      5 C5          0.1240   -1.7820   -0.4760 C.3       1 <0>         0.0000
      6 N1          1.3010   -0.9190   -0.4230 N.am      1 <0>         0.0000
      7 O1          2.5840   -2.4460    0.5590 O.2       1 <0>         0.0000
      8 H1          4.6840    0.8220   -1.4960 H         1 <0>         0.0000
      9 H2          3.9940   -0.8050   -2.0550 H         1 <0>         0.0000
     10 H3          5.1110   -1.9360   -0.1540 H         1 <0>         0.0000
     11 H4          5.8030   -0.3120    0.4070 H         1 <0>         0.0000
     12 H5          3.4660    0.5640    0.6800 H         1 <0>         0.0000
     13 H6         -0.1420   -2.1050    0.5330 H         1 <0>         0.0000
     14 H7         -0.7180   -1.2470   -0.9150 H         1 <0>         0.0000
     15 H8          0.3420   -2.6660   -1.0780 H         1 <0>         0.0000
     16 H9          1.2450    0.0080   -0.8090 H         1 <0>         0.0000
@<TRIPOS>BOND
     1    1    4 1
     2    1    6 am
     3    1    7 2
     4    2    3 1
     5    2    4 1
     6    2    8 1
     7    2    9 1
     8    3    4 1
     9    3   10 1
    10    3   11 1
    11    4   12 1
    12    5    6 1
    13    5   13 1
    14    5   14 1
    15    5   15 1
    16    6   16 1
