@<TRIPOS>MOLECULE
*****
   53    55     0     0     0
SMALL
NO_CHARGES

@<TRIPOS>ATOM
      1 C1          2.0425   -2.4371    1.3320 C.ar      1 <0>         0.0000
      2 C2          2.7209   -0.2513    0.5578 C.ar      1 <0>         0.0000
      3 C3          0.9640   -1.8638    2.0057 C.ar      1 <0>         0.0000
      4 C4          1.6424    0.3220    1.2314 C.ar      1 <0>         0.0000
      5 C5          3.1966    0.3748   -4.2223 C.2       1 <0>         0.0000
      6 C6          3.5963   -0.4290   -3.1809 C.2       1 <0>         0.0000
      7 C7          1.7118   -1.1429   -4.0727 C.2       1 <0>         0.0000
      8 C8          2.9210   -1.6309    0.6081 C.ar      1 <0>         0.0000
      9 C9          4.0397   -2.2256   -0.0904 C.ar      1 <0>         0.0000
     10 C10         3.8954   -2.6473   -1.4075 C.ar      1 <0>         0.0000
     11 C11         5.2633   -2.3772    0.5522 C.ar      1 <0>         0.0000
     12 C12         0.7640   -0.4842    1.9553 C.ar      1 <0>         0.0000
     13 C13         4.9965   -3.2100   -2.0326 C.ar      1 <0>         0.0000
     14 C14         6.3032   -2.9521   -0.1606 C.ar      1 <0>         0.0000
     15 C15         5.1467   -5.1961   -3.5774 C.3       1 <0>         0.0000
     16 C16         5.8537   -2.9150   -4.3847 C.3       1 <0>         0.0000
     17 C17         8.7483   -2.3447   -0.2384 C.3       1 <0>         0.0000
     18 C18         8.0412   -4.6253    0.5700 C.3       1 <0>         0.0000
     19 C19         2.5998   -2.5040   -2.1372 C.3       1 <0>         0.0000
     20 C20         5.4640   -1.9382    1.9659 C.3       1 <0>         0.0000
     21 C21         4.9033   -3.6816   -3.4471 C.3       1 <0>         0.0000
     22 C22         7.6415   -3.1416    0.4757 C.3       1 <0>         0.0000
     23 N1          2.0226   -0.0748   -4.7730 N.2       1 <0>         0.0000
     24 N2          6.2010   -3.3738   -1.4410 N.ar      1 <0>         0.0000
     25 N3          2.6351   -1.3966   -3.0968 N.pl3     1 <0>         0.0000
     26 O1          5.4910   -3.0795    2.8130 O.3       1 <0>         0.0000
     27 F1         -0.2718    0.0663    2.6022 F         1 <0>         0.0000
     28 H1          2.1851   -3.5140    1.3809 H         1 <0>         0.0000
     29 H2          3.3968    0.3905   -0.0022 H         1 <0>         0.0000
     30 H3          0.2800   -2.4912    2.5695 H         1 <0>         0.0000
     31 H4          1.4859    1.3960    1.1927 H         1 <0>         0.0000
     32 H5          3.6944    1.2545   -4.6034 H         1 <0>         0.0000
     33 H6          4.4494   -0.3969   -2.5176 H         1 <0>         0.0000
     34 H7          0.8407   -1.7658   -4.2240 H         1 <0>         0.0000
     35 H8          6.1420   -5.4777   -3.2167 H         1 <0>         0.0000
     36 H9          5.0654   -5.5253   -4.6190 H         1 <0>         0.0000
     37 H10         4.4088   -5.7547   -2.9907 H         1 <0>         0.0000
     38 H11         6.8939   -3.0446   -4.0655 H         1 <0>         0.0000
     39 H12         5.6343   -1.8418   -4.3846 H         1 <0>         0.0000
     40 H13         5.7747   -3.2700   -5.4181 H         1 <0>         0.0000
     41 H14         8.8521   -2.6475   -1.2861 H         1 <0>         0.0000
     42 H15         9.7199   -2.4882    0.2467 H         1 <0>         0.0000
     43 H16         8.5203   -1.2730   -0.2218 H         1 <0>         0.0000
     44 H17         8.0883   -5.0739   -0.4286 H         1 <0>         0.0000
     45 H18         7.3167   -5.1969    1.1603 H         1 <0>         0.0000
     46 H19         9.0234   -4.7500    1.0388 H         1 <0>         0.0000
     47 H20         2.3413   -3.4194   -2.6912 H         1 <0>         0.0000
     48 H21         1.7618   -2.3221   -1.4470 H         1 <0>         0.0000
     49 H22         6.4078   -1.3900    2.0827 H         1 <0>         0.0000
     50 H23         4.6530   -1.2740    2.2915 H         1 <0>         0.0000
     51 H24         3.8829   -3.5018   -3.8333 H         1 <0>         0.0000
     52 H25         7.6166   -2.7656    1.5153 H         1 <0>         0.0000
     53 H26         5.6225   -2.7533    3.7179 H         1 <0>         0.0000
@<TRIPOS>BOND
     1    1    3 ar
     2    1    8 ar
     3    1   28 1
     4    2    4 ar
     5    2    8 ar
     6    2   29 1
     7    3   12 ar
     8    3   30 1
     9    4   12 ar
    10    4   31 1
    11    5    6 2
    12    5   23 1
    13    5   32 1
    14    6   25 1
    15    6   33 1
    16    7   23 2
    17    7   25 1
    18    7   34 1
    19    8    9 1
    20    9   10 ar
    21    9   11 ar
    22   10   13 ar
    23   10   19 1
    24   11   14 ar
    25   11   20 1
    26   12   27 1
    27   13   21 1
    28   13   24 ar
    29   14   22 1
    30   14   24 ar
    31   15   21 1
    32   15   35 1
    33   15   36 1
    34   15   37 1
    35   16   21 1
    36   16   38 1
    37   16   39 1
    38   16   40 1
    39   17   22 1
    40   17   41 1
    41   17   42 1
    42   17   43 1
    43   18   22 1
    44   18   44 1
    45   18   45 1
    46   18   46 1
    47   19   25 1
    48   19   47 1
    49   19   48 1
    50   20   26 1
    51   20   49 1
    52   20   50 1
    53   21   51 1
    54   22   52 1
    55   26   53 1
