@<TRIPOS>MOLECULE
*****
   25    26     0     0     0
SMALL
NO_CHARGES

@<TRIPOS>ATOM
      1 C1         -2.7801   -2.1663   -1.0480 C.ar      1 <0>         0.0000
      2 C2         -1.9331   -1.6929   -2.0498 C.ar      1 <0>         0.0000
      3 C3         -3.6814   -1.3090   -0.4096 C.ar      1 <0>         0.0000
      4 C4         -1.9643   -0.3479   -2.4483 C.ar      1 <0>         0.0000
      5 C5         -3.7204    0.0188   -0.8175 C.ar      1 <0>         0.0000
      6 C6         -2.8952    0.5002   -1.8322 C.ar      1 <0>         0.0000
      7 C7          0.7903    0.3301   -0.4349 C.3       1 <0>         0.0000
      8 C8          1.4835   -0.4534   -1.5486 C.3       1 <0>         0.0000
      9 C9          0.5914    1.4679   -2.4443 C.3       1 <0>         0.0000
     10 C10        -0.4955    1.2986   -3.5047 C.3       1 <0>         0.0000
     11 O1          0.0284    1.3134   -1.1471 O.3       1 <0>         0.0000
     12 O2          1.6511    0.5330   -2.5738 O.3       1 <0>         0.0000
     13 O3         -1.1284    0.0093   -3.4705 O.3       1 <0>         0.0000
     14 F1         -4.5849    0.8812   -0.2388 F         1 <0>         0.0000
     15 F2         -3.0153    1.7971   -2.1953 F         1 <0>         0.0000
     16 H1         -2.7360   -3.2120   -0.7585 H         1 <0>         0.0000
     17 H2         -1.2330   -2.3523   -2.5530 H         1 <0>         0.0000
     18 H3         -4.3472   -1.6453    0.3784 H         1 <0>         0.0000
     19 H4          0.0983   -0.2752    0.1557 H         1 <0>         0.0000
     20 H5          1.5117    0.8252    0.2269 H         1 <0>         0.0000
     21 H6          2.4723   -0.8253   -1.2711 H         1 <0>         0.0000
     22 H7          0.8638   -1.2810   -1.9092 H         1 <0>         0.0000
     23 H8          1.0267    2.4724   -2.5548 H         1 <0>         0.0000
     24 H9         -0.0277    1.3478   -4.4902 H         1 <0>         0.0000
     25 H10        -1.2218    2.1073   -3.4110 H         1 <0>         0.0000
@<TRIPOS>BOND
     1    1    2 ar
     2    1    3 ar
     3    1   16 1
     4    2    4 ar
     5    2   17 1
     6    3    5 ar
     7    3   18 1
     8    4    6 ar
     9    4   13 1
    10    5    6 ar
    11    5   14 1
    12    6   15 1
    13    7    8 1
    14    7   11 1
    15    7   19 1
    16    7   20 1
    17    8   12 1
    18    8   21 1
    19    8   22 1
    20    9   10 1
    21    9   12 1
    22    9   11 1
    23    9   23 1
    24   10   13 1
    25   10   24 1
    26   10   25 1
