@<TRIPOS>MOLECULE
*****
   33    34     0     0     0
SMALL
NO_CHARGES

@<TRIPOS>ATOM
      1 C1          2.0863    0.3386    3.9755 C.ar      1 <0>         0.0000
      2 C2          0.8841   -1.5842    3.8193 C.ar      1 <0>         0.0000
      3 C3          2.2994    0.3522    2.6121 C.ar      1 <0>         0.0000
      4 C4          1.7377   -0.6944    1.9097 C.ar      1 <0>         0.0000
      5 C5          3.0725    1.4187    1.9961 C.2       1 <0>         0.0000
      6 C6          3.0973   -1.4436    0.0030 C.3       1 <0>         0.0000
      7 C7          0.7537   -0.7086   -0.3650 C.3       1 <0>         0.0000
      8 C8          3.4272   -0.9673   -1.4135 C.3       1 <0>         0.0000
      9 C9          1.1590   -0.2571   -1.7703 C.3       1 <0>         0.0000
     10 C10         2.5985   -0.6737   -3.6556 C.3       1 <0>         0.0000
     11 C11         4.8466    2.9722    2.3590 C.3       1 <0>         0.0000
     12 N1          1.3810   -0.6177    4.6145 N.ar      1 <0>         0.0000
     13 N2          1.0215   -1.6835    2.4833 N.ar      1 <0>         0.0000
     14 N3          1.9200   -0.7367    0.5229 N.pl3     1 <0>         0.0000
     15 N4          2.2568   -1.0796   -2.2928 N.3       1 <0>         0.0000
     16 O1          2.8992    1.8327    0.8420 O.2       1 <0>         0.0000
     17 O2          4.0191    1.9129    2.8516 O.3       1 <0>         0.0000
     18 H1          2.4851    1.1149    4.6213 H         1 <0>         0.0000
     19 H2          0.3143   -2.3659    4.3062 H         1 <0>         0.0000
     20 H3          2.9085   -2.5254   -0.0014 H         1 <0>         0.0000
     21 H4          3.9645   -1.2601    0.6495 H         1 <0>         0.0000
     22 H5         -0.0026   -0.0159    0.0249 H         1 <0>         0.0000
     23 H6          0.2976   -1.7065   -0.4115 H         1 <0>         0.0000
     24 H7          3.7988    0.0658   -1.3791 H         1 <0>         0.0000
     25 H8          4.2426   -1.5909   -1.8000 H         1 <0>         0.0000
     26 H9          0.2821   -0.3508   -2.4228 H         1 <0>         0.0000
     27 H10         1.4355    0.8059   -1.7515 H         1 <0>         0.0000
     28 H11         3.4162   -1.2904   -4.0375 H         1 <0>         0.0000
     29 H12         2.9111    0.3739   -3.6708 H         1 <0>         0.0000
     30 H13         1.7328   -0.7906   -4.3131 H         1 <0>         0.0000
     31 H14         5.5548    3.2732    3.1349 H         1 <0>         0.0000
     32 H15         4.2210    3.8213    2.0725 H         1 <0>         0.0000
     33 H16         5.3969    2.6162    1.4848 H         1 <0>         0.0000
@<TRIPOS>BOND
     1    1    3 ar
     2    1   12 ar
     3    1   18 1
     4    2   12 ar
     5    2   13 ar
     6    2   19 1
     7    3    4 ar
     8    3    5 1
     9    4   13 ar
    10    4   14 1
    11    5   16 2
    12    5   17 1
    13    6    8 1
    14    6   14 1
    15    6   20 1
    16    6   21 1
    17    7    9 1
    18    7   14 1
    19    7   22 1
    20    7   23 1
    21    8   15 1
    22    8   24 1
    23    8   25 1
    24    9   15 1
    25    9   26 1
    26    9   27 1
    27   10   15 1
    28   10   28 1
    29   10   29 1
    30   10   30 1
    31   11   17 1
    32   11   31 1
    33   11   32 1
    34   11   33 1
