@<TRIPOS>MOLECULE
*****
   65    69     0     0     0
SMALL
NO_CHARGES

@<TRIPOS>ATOM
      1 C1          5.0156   -4.5334    0.7301 C.ar      1 <0>         0.0000
      2 C2          6.6811   -2.9417    1.4808 C.ar      1 <0>         0.0000
      3 C3          3.7198   -2.2243   -0.6620 C.ar      1 <0>         0.0000
      4 C4         -0.5856   -0.8872   -3.7256 C.ar      1 <0>         0.0000
      5 C5          5.8417   -5.5797    1.1468 C.ar      1 <0>         0.0000
      6 C6          7.5049   -3.9835    1.8956 C.ar      1 <0>         0.0000
      7 C7          2.8554   -1.2056   -1.0695 C.ar      1 <0>         0.0000
      8 C8         -0.3149    0.1016   -2.7847 C.ar      1 <0>         0.0000
      9 C9          4.5089   -0.8684    1.1834 C.ar      1 <0>         0.0000
     10 C10        -0.3160   -1.6221   -1.0606 C.ar      1 <0>         0.0000
     11 C11         5.4249   -3.1979    0.8955 C.ar      1 <0>         0.0000
     12 C12         4.5442   -2.0834    0.4693 C.ar      1 <0>         0.0000
     13 C13        -0.6967   -2.2425   -3.3661 C.ar      1 <0>         0.0000
     14 C14         3.6419    0.1449    0.7931 C.ar      1 <0>         0.0000
     15 C15        -0.5451   -2.6245   -2.0164 C.ar      1 <0>         0.0000
     16 C16         7.0835   -5.3103    1.7290 C.ar      1 <0>         0.0000
     17 C17         2.7970   -0.0394   -0.3071 C.ar      1 <0>         0.0000
     18 C18        -0.1858   -0.2923   -1.4494 C.ar      1 <0>         0.0000
     19 C19         1.3504   -5.7854   -0.6688 C.2       1 <0>         0.0000
     20 C20        -1.0007   -3.2706   -4.4390 C.3       1 <0>         0.0000
     21 C21        -0.5915   -4.6947   -4.0459 C.3       1 <0>         0.0000
     22 C22        -1.0828   -5.0229   -2.6333 C.3       1 <0>         0.0000
     23 C23         2.5650    2.2003    0.3032 C.3       1 <0>         0.0000
     24 C24        -0.4679   -4.0799   -1.5886 C.3       1 <0>         0.0000
     25 C25         3.4280    1.5194    1.4081 C.3       1 <0>         0.0000
     26 C26         2.6758    1.4115    2.7489 C.3       1 <0>         0.0000
     27 C27         4.7472    2.2822    1.6038 C.3       1 <0>         0.0000
     28 C28         1.0163   -4.3943   -1.2939 C.3       1 <0>         0.0000
     29 C29         7.9769   -6.4145    2.2078 C.3       1 <0>         0.0000
     30 N1          1.9698    1.1142   -0.5407 N.pl3     1 <0>         0.0000
     31 O1          0.3965   -6.5549   -0.3944 O.co2     1 <0>         0.0000
     32 O2          2.5949   -5.9595   -0.4930 O.co2     1 <0>         0.0000
     33 O3         -0.3171    2.2283   -0.5633 O.2       1 <0>         0.0000
     34 O4          0.0253    0.3507    1.1063 O.2       1 <0>         0.0000
     35 F1          7.5632   -7.6422    1.8173 F         1 <0>         0.0000
     36 F2          9.2606   -6.2705    1.7599 F         1 <0>         0.0000
     37 F3          8.0708   -6.4514    3.5721 F         1 <0>         0.0000
     38 S1          0.2629    0.9194   -0.2307 S.o2      1 <0>         0.0000
     39 H1          4.0498   -4.7977    0.2920 H         1 <0>         0.0000
     40 H2          7.0293   -1.9176    1.5856 H         1 <0>         0.0000
     41 H3          3.7528   -3.1476   -1.2308 H         1 <0>         0.0000
     42 H4         -0.6999   -0.6084   -4.7717 H         1 <0>         0.0000
     43 H5          5.4973   -6.6002    1.0138 H         1 <0>         0.0000
     44 H6          8.4766   -3.7699    2.3330 H         1 <0>         0.0000
     45 H7          2.2442   -1.3319   -1.9549 H         1 <0>         0.0000
     46 H8         -0.2039    1.1444   -3.0638 H         1 <0>         0.0000
     47 H9          5.1328   -0.7403    2.0647 H         1 <0>         0.0000
     48 H10        -0.1877   -1.8867   -0.0155 H         1 <0>         0.0000
     49 H11        -2.0846   -3.2515   -4.6255 H         1 <0>         0.0000
     50 H12        -0.5256   -2.9678   -5.3802 H         1 <0>         0.0000
     51 H13        -1.0019   -5.4068   -4.7718 H         1 <0>         0.0000
     52 H14         0.4989   -4.7937   -4.0920 H         1 <0>         0.0000
     53 H15        -2.1784   -4.9300   -2.6092 H         1 <0>         0.0000
     54 H16        -0.8325   -6.0447   -2.3419 H         1 <0>         0.0000
     55 H17         1.7859    2.8529    0.6996 H         1 <0>         0.0000
     56 H18         3.1982    2.7962   -0.3619 H         1 <0>         0.0000
     57 H19        -1.0124   -4.2120   -0.6476 H         1 <0>         0.0000
     58 H20         2.4991    2.4091    3.1701 H         1 <0>         0.0000
     59 H21         3.2677    0.8375    3.4703 H         1 <0>         0.0000
     60 H22         1.7132    0.9130    2.6191 H         1 <0>         0.0000
     61 H23         4.5546    3.3098    1.9355 H         1 <0>         0.0000
     62 H24         5.3237    2.3216    0.6735 H         1 <0>         0.0000
     63 H25         5.3684    1.7994    2.3657 H         1 <0>         0.0000
     64 H26         1.4001   -3.6476   -0.5925 H         1 <0>         0.0000
     65 H27         1.6180   -4.2716   -2.2031 H         1 <0>         0.0000
@<TRIPOS>BOND
     1    1    5 ar
     2    1   11 ar
     3    1   39 1
     4    2    6 ar
     5    2   11 ar
     6    2   40 1
     7    3    7 ar
     8    3   12 ar
     9    3   41 1
    10    4    8 ar
    11    4   13 ar
    12    4   42 1
    13    5   16 ar
    14    5   43 1
    15    6   16 ar
    16    6   44 1
    17    7   17 ar
    18    7   45 1
    19    8   18 ar
    20    8   46 1
    21    9   12 ar
    22    9   14 ar
    23    9   47 1
    24   10   15 ar
    25   10   18 ar
    26   10   48 1
    27   11   12 1
    28   13   15 ar
    29   13   20 1
    30   14   17 ar
    31   14   25 1
    32   15   24 1
    33   16   29 1
    34   17   30 1
    35   18   38 1
    36   19   28 1
    37   19   31 1
    38   19   32 2
    39   20   21 1
    40   20   49 1
    41   20   50 1
    42   21   22 1
    43   21   51 1
    44   21   52 1
    45   22   24 1
    46   22   53 1
    47   22   54 1
    48   23   25 1
    49   23   30 1
    50   23   55 1
    51   23   56 1
    52   24   28 1
    53   24   57 1
    54   25   26 1
    55   25   27 1
    56   26   58 1
    57   26   59 1
    58   26   60 1
    59   27   61 1
    60   27   62 1
    61   27   63 1
    62   28   64 1
    63   28   65 1
    64   29   35 1
    65   29   36 1
    66   29   37 1
    67   30   38 1
    68   33   38 2
    69   34   38 2
