@<TRIPOS>MOLECULE
*****
   66    70     0     0     0
SMALL
NO_CHARGES

@<TRIPOS>ATOM
      1 C1         -4.1268    2.9896    4.0163 C.ar      1 <0>         0.0000
      2 C2         -4.2073    1.3537    5.7828 C.ar      1 <0>         0.0000
      3 C3         -1.7212   -0.4651    0.2021 C.ar      1 <0>         0.0000
      4 C4         -6.4219   -0.9703   -0.3876 C.ar      1 <0>         0.0000
      5 C5         -8.0302   -1.9911    1.0982 C.ar      1 <0>         0.0000
      6 C6         -2.8462   -1.2105    0.5384 C.ar      1 <0>         0.0000
      7 C7         -4.0633    4.0198    4.9587 C.ar      1 <0>         0.0000
      8 C8         -4.1522    2.3676    6.7306 C.ar      1 <0>         0.0000
      9 C9         -7.4556   -0.4169   -1.1452 C.ar      1 <0>         0.0000
     10 C10        -9.0797   -1.4495    0.3487 C.ar      1 <0>         0.0000
     11 C11        -2.1073    1.1284    1.9899 C.ar      1 <0>         0.0000
     12 C12        -3.2579    0.4008    2.3477 C.ar      1 <0>         0.0000
     13 C13        -4.2088    1.6426    4.4017 C.ar      1 <0>         0.0000
     14 C14        -4.2397    0.5739    3.3836 C.2       1 <0>         0.0000
     15 C15        -6.6963   -1.7637    0.7375 C.ar      1 <0>         0.0000
     16 C16        -1.3334    0.7003    0.9131 C.ar      1 <0>         0.0000
     17 C17        -3.6124   -0.7745    1.6308 C.ar      1 <0>         0.0000
     18 C18        -4.0781    3.7113    6.3270 C.ar      1 <0>         0.0000
     19 C19        -8.7694   -0.6720   -0.7606 C.ar      1 <0>         0.0000
     20 C20        -5.1455   -0.4788    3.2566 C.2       1 <0>         0.0000
     21 C21        -6.3612   -0.7769    4.0465 C.2       1 <0>         0.0000
     22 C22         0.6529    2.0579    6.4233 C.3       1 <0>         0.0000
     23 C23        -0.6187    2.2063    5.6154 C.3       1 <0>         0.0000
     24 C24         0.7039    2.6344    5.0235 C.3       1 <0>         0.0000
     25 C25        -3.8845    6.8161    8.2736 C.3       1 <0>         0.0000
     26 C26        -0.0691    1.4370    0.5187 C.3       1 <0>         0.0000
     27 C27        -5.5663   -2.3482    1.5638 C.3       1 <0>         0.0000
     28 C28         1.3004    1.8169    3.9105 C.3       1 <0>         0.0000
     29 C29        -3.9400    6.0207    6.9812 C.3       1 <0>         0.0000
     30 C30         1.0291    1.3565    1.5821 C.3       1 <0>         0.0000
     31 N1         -4.7458   -1.3149    2.2079 N.pl3     1 <0>         0.0000
     32 O1         -6.8952   -1.8719    4.0878 O.2       1 <0>         0.0000
     33 O2         -6.9029    0.2521    4.7462 O.3       1 <0>         0.0000
     34 O3         -4.0122    4.6323    7.3316 O.3       1 <0>         0.0000
     35 O4          0.6279    2.1409    2.6969 O.3       1 <0>         0.0000
     36 F1         -9.7814   -0.1383   -1.4953 F         1 <0>         0.0000
     37 H1         -4.1246    3.2386    2.9589 H         1 <0>         0.0000
     38 H2         -4.2419    0.3188    6.1114 H         1 <0>         0.0000
     39 H3         -1.1132   -0.7910   -0.6390 H         1 <0>         0.0000
     40 H4         -5.3924   -0.7716   -0.6726 H         1 <0>         0.0000
     41 H5         -8.2514   -2.5760    1.9856 H         1 <0>         0.0000
     42 H6         -3.1049   -2.0988   -0.0298 H         1 <0>         0.0000
     43 H7         -4.0040    5.0458    4.6147 H         1 <0>         0.0000
     44 H8         -4.1473    2.1414    7.7926 H         1 <0>         0.0000
     45 H9         -7.2585    0.1986   -2.0177 H         1 <0>         0.0000
     46 H10       -10.1179   -1.6150    0.6199 H         1 <0>         0.0000
     47 H11        -1.8122    2.0064    2.5535 H         1 <0>         0.0000
     48 H12         0.8156    2.7329    7.2584 H         1 <0>         0.0000
     49 H13         1.0461    1.0562    6.5759 H         1 <0>         0.0000
     50 H14        -1.0782    1.3078    5.2147 H         1 <0>         0.0000
     51 H15        -1.3272    2.9749    5.9035 H         1 <0>         0.0000
     52 H16         0.8772    3.7050    4.9426 H         1 <0>         0.0000
     53 H17        -4.7779    6.6337    8.8776 H         1 <0>         0.0000
     54 H18        -3.0055    6.5368    8.8616 H         1 <0>         0.0000
     55 H19        -3.8279    7.8863    8.0503 H         1 <0>         0.0000
     56 H20         0.3251    1.0240   -0.4162 H         1 <0>         0.0000
     57 H21        -0.2791    2.4971    0.3346 H         1 <0>         0.0000
     58 H22        -5.9604   -3.0067    2.3342 H         1 <0>         0.0000
     59 H23        -4.8917   -2.9332    0.9352 H         1 <0>         0.0000
     60 H24         1.1784    0.7433    4.1257 H         1 <0>         0.0000
     61 H25         2.3800    2.0160    3.8109 H         1 <0>         0.0000
     62 H26        -3.0450    6.2005    6.3709 H         1 <0>         0.0000
     63 H27        -4.8218    6.2966    6.3881 H         1 <0>         0.0000
     64 H28         1.1779    0.3090    1.8859 H         1 <0>         0.0000
     65 H29         1.9833    1.7315    1.1785 H         1 <0>         0.0000
     66 H30        -6.3692    1.0624    4.6380 H         1 <0>         0.0000
@<TRIPOS>BOND
     1    1    7 ar
     2    1   13 ar
     3    1   37 1
     4    2    8 ar
     5    2   13 ar
     6    2   38 1
     7    3    6 ar
     8    3   16 ar
     9    3   39 1
    10    4    9 ar
    11    4   15 ar
    12    4   40 1
    13    5   10 ar
    14    5   15 ar
    15    5   41 1
    16    6   17 ar
    17    6   42 1
    18    7   18 ar
    19    7   43 1
    20    8   18 ar
    21    8   44 1
    22    9   19 ar
    23    9   45 1
    24   10   19 ar
    25   10   46 1
    26   11   12 ar
    27   11   16 ar
    28   11   47 1
    29   12   14 1
    30   12   17 ar
    31   13   14 1
    32   14   20 2
    33   15   27 1
    34   16   26 1
    35   17   31 1
    36   18   34 1
    37   19   36 1
    38   20   21 1
    39   20   31 1
    40   21   32 2
    41   21   33 1
    42   22   23 1
    43   22   24 1
    44   22   48 1
    45   22   49 1
    46   23   24 1
    47   23   50 1
    48   23   51 1
    49   24   28 1
    50   24   52 1
    51   25   29 1
    52   25   53 1
    53   25   54 1
    54   25   55 1
    55   26   30 1
    56   26   56 1
    57   26   57 1
    58   27   31 1
    59   27   58 1
    60   27   59 1
    61   28   35 1
    62   28   60 1
    63   28   61 1
    64   29   34 1
    65   29   62 1
    66   29   63 1
    67   30   35 1
    68   30   64 1
    69   30   65 1
    70   33   66 1
