@<TRIPOS>MOLECULE
*****
   61    63     0     0     0
SMALL
NO_CHARGES

@<TRIPOS>ATOM
      1 C1          6.4989   -2.6051   -5.4062 C.ar      1 <0>         0.0000
      2 C2          8.9069   -2.3860   -5.5832 C.ar      1 <0>         0.0000
      3 C3          6.4404   -2.9619   -6.7590 C.ar      1 <0>         0.0000
      4 C4          8.8478   -2.7404   -6.9276 C.ar      1 <0>         0.0000
      5 C5          7.7352   -2.3156   -4.8110 C.ar      1 <0>         0.0000
      6 C6          7.6094   -3.0281   -7.5117 C.ar      1 <0>         0.0000
      7 C7          3.6927    3.3021    0.7377 C.3       1 <0>         0.0000
      8 C8          3.1150    3.5106    2.1414 C.3       1 <0>         0.0000
      9 C9          3.1203    2.0425    0.0854 C.3       1 <0>         0.0000
     10 C10         2.6833    1.0538    2.2462 C.3       1 <0>         0.0000
     11 C11         3.5455   -2.2210   -1.2884 C.3       1 <0>         0.0000
     12 C12         3.6532   -0.7234   -0.9745 C.3       1 <0>         0.0000
     13 C13         3.2563    2.2533    3.0254 C.3       1 <0>         0.0000
     14 C14         5.8926   -1.3746   -0.3583 C.3       1 <0>         0.0000
     15 C15         4.7307    1.9902    3.3807 C.3       1 <0>         0.0000
     16 C16         2.4473    2.4382    4.3179 C.3       1 <0>         0.0000
     17 C17         6.1988   -0.9919    1.0923 C.3       1 <0>         0.0000
     18 C18         7.8859   -0.1202   -1.3195 C.3       1 <0>         0.0000
     19 C19         8.1405   -2.5505   -0.7034 C.3       1 <0>         0.0000
     20 C20         2.9059   -0.3731    0.3265 C.3       1 <0>         0.0000
     21 C21         6.7366   -1.8825   -2.6757 C.3       1 <0>         0.0000
     22 C22         7.1724   -1.4880   -1.2528 C.3       1 <0>         0.0000
     23 N1          3.3251    0.8742    0.9434 N.3       1 <0>         0.0000
     24 O1          5.0430   -0.4018   -0.9685 O.3       1 <0>         0.0000
     25 O2          7.9029   -1.9605   -3.5053 O.3       1 <0>         0.0000
     26 S1          4.8927   -2.9848   -0.3228 S.3       1 <0>         0.0000
     27 Cl1         7.5321   -3.4783   -9.2114 Cl        1 <0>         0.0000
     28 H1          5.5786   -2.5600   -4.8364 H         1 <0>         0.0000
     29 H2          9.8579   -2.1595   -5.1103 H         1 <0>         0.0000
     30 H3          5.4835   -3.1872   -7.2196 H         1 <0>         0.0000
     31 H4          9.7553   -2.7943   -7.5208 H         1 <0>         0.0000
     32 H5          3.4699    4.1688    0.1046 H         1 <0>         0.0000
     33 H6          4.7829    3.2105    0.7826 H         1 <0>         0.0000
     34 H7          3.5939    4.3671    2.6316 H         1 <0>         0.0000
     35 H8          2.0475    3.7560    2.0527 H         1 <0>         0.0000
     36 H9          2.0408    2.1902   -0.1285 H         1 <0>         0.0000
     37 H10         3.6239    1.8715   -0.8688 H         1 <0>         0.0000
     38 H11         2.8320    0.1379    2.8308 H         1 <0>         0.0000
     39 H12         1.5876    1.1886    2.1343 H         1 <0>         0.0000
     40 H13         2.5897   -2.6415   -0.9657 H         1 <0>         0.0000
     41 H14         3.6766   -2.4108   -2.3572 H         1 <0>         0.0000
     42 H15         3.2404   -0.1413   -1.8038 H         1 <0>         0.0000
     43 H16         4.8165    1.1298    4.0549 H         1 <0>         0.0000
     44 H17         5.1684    2.8574    3.8887 H         1 <0>         0.0000
     45 H18         5.3254    1.7715    2.4917 H         1 <0>         0.0000
     46 H19         2.5154    1.5516    4.9595 H         1 <0>         0.0000
     47 H20         1.3875    2.6189    4.1039 H         1 <0>         0.0000
     48 H21         2.8230    3.2930    4.8916 H         1 <0>         0.0000
     49 H22         5.2700   -0.8102    1.6292 H         1 <0>         0.0000
     50 H23         6.7859   -0.0714    1.1292 H         1 <0>         0.0000
     51 H24         6.7501   -1.7856    1.6020 H         1 <0>         0.0000
     52 H25         8.6876   -0.1634   -2.0604 H         1 <0>         0.0000
     53 H26         7.1905    0.6728   -1.6068 H         1 <0>         0.0000
     54 H27         8.3356    0.1446   -0.3592 H         1 <0>         0.0000
     55 H28         8.9889   -2.6601   -1.3829 H         1 <0>         0.0000
     56 H29         7.6550   -3.5274   -0.6113 H         1 <0>         0.0000
     57 H30         8.5320   -2.2649    0.2764 H         1 <0>         0.0000
     58 H31         3.0627   -1.1767    1.0532 H         1 <0>         0.0000
     59 H32         1.8237   -0.3751    0.0785 H         1 <0>         0.0000
     60 H33         6.0514   -1.1299   -3.0787 H         1 <0>         0.0000
     61 H34         6.2381   -2.8573   -2.6604 H         1 <0>         0.0000
@<TRIPOS>BOND
     1    1    3 ar
     2    1    5 ar
     3    1   28 1
     4    2    4 ar
     5    2    5 ar
     6    2   29 1
     7    3    6 ar
     8    3   30 1
     9    4    6 ar
    10    4   31 1
    11    5   25 1
    12    6   27 1
    13    7    8 1
    14    7    9 1
    15    7   32 1
    16    7   33 1
    17    8   13 1
    18    8   34 1
    19    8   35 1
    20    9   23 1
    21    9   36 1
    22    9   37 1
    23   10   13 1
    24   10   23 1
    25   10   38 1
    26   10   39 1
    27   11   12 1
    28   11   26 1
    29   11   40 1
    30   11   41 1
    31   12   20 1
    32   12   24 1
    33   12   42 1
    34   13   15 1
    35   13   16 1
    36   14   17 1
    37   14   22 1
    38   14   24 1
    39   14   26 1
    40   15   43 1
    41   15   44 1
    42   15   45 1
    43   16   46 1
    44   16   47 1
    45   16   48 1
    46   17   49 1
    47   17   50 1
    48   17   51 1
    49   18   22 1
    50   18   52 1
    51   18   53 1
    52   18   54 1
    53   19   22 1
    54   19   55 1
    55   19   56 1
    56   19   57 1
    57   20   23 1
    58   20   58 1
    59   20   59 1
    60   21   22 1
    61   21   25 1
    62   21   60 1
    63   21   61 1
