@<TRIPOS>MOLECULE
*****
   66    70     0     0     0
SMALL
NO_CHARGES

@<TRIPOS>ATOM
      1 C1         -1.4357   -4.1886   -1.6083 C.ar      1 <0>         0.0000
      2 C2         -6.0346   -8.8977    0.3002 C.ar      1 <0>         0.0000
      3 C3         -2.3971   -5.1266   -1.2277 C.ar      1 <0>         0.0000
      4 C4         -1.7239   -3.1692   -2.5175 C.ar      1 <0>         0.0000
      5 C5         -5.9973   -7.7615   -0.5082 C.ar      1 <0>         0.0000
      6 C6         -3.9995   -4.0367   -2.6816 C.ar      1 <0>         0.0000
      7 C7         -4.8786   -9.3397    0.9408 C.ar      1 <0>         0.0000
      8 C8         -3.7018   -5.0584   -1.7571 C.ar      1 <0>         0.0000
      9 C9         -3.0181   -3.1200   -3.0441 C.ar      1 <0>         0.0000
     10 C10        -3.6845   -8.6110    0.7047 C.ar      1 <0>         0.0000
     11 C11        -4.7759   -7.0794   -0.6389 C.ar      1 <0>         0.0000
     12 C12        -3.6915  -10.9810    2.2851 C.2       1 <0>         0.0000
     13 C13        -0.4286   -8.3770    2.5068 C.3       1 <0>         0.0000
     14 C14        -0.4802   -8.3137    0.0048 C.3       1 <0>         0.0000
     15 C15        -3.7193   -3.7662   -6.2007 C.3       1 <0>         0.0000
     16 C16        -1.4950   -2.7685   -5.9676 C.3       1 <0>         0.0000
     17 C17         0.7262   -7.3713    2.4335 C.3       1 <0>         0.0000
     18 C18         0.6807   -7.3181    0.0725 C.3       1 <0>         0.0000
     19 C19        -3.3884   -4.0354   -7.6675 C.3       1 <0>         0.0000
     20 C20        -1.2572   -3.0758   -7.4444 C.3       1 <0>         0.0000
     21 C21        -2.4380  -10.4866    1.5657 C.3       1 <0>         0.0000
     22 C22        -1.3309   -8.1937    1.2807 C.3       1 <0>         0.0000
     23 C23        -2.2237  -11.3399    0.2983 C.3       1 <0>         0.0000
     24 C24        -6.1317  -10.8952    2.4207 C.3       1 <0>         0.0000
     25 N1         -3.6504   -7.5085   -0.0549 N.ar      1 <0>         0.0000
     26 N2         -4.8710  -10.4043    1.8707 N.am      1 <0>         0.0000
     27 N3         -2.5266   -9.0458    1.3149 N.pl3     1 <0>         0.0000
     28 N4         -2.9435   -2.5928   -5.7660 N.pl3     1 <0>         0.0000
     29 N5         -4.7431   -5.9243   -1.4188 N.pl3     1 <0>         0.0000
     30 O1         -3.6338  -11.8730    3.1284 O.2       1 <0>         0.0000
     31 O2         -4.8703   -1.7699   -4.3576 O.2       1 <0>         0.0000
     32 O3         -2.5355   -0.7428   -4.0975 O.2       1 <0>         0.0000
     33 O4          1.4839   -7.5162    1.2342 O.3       1 <0>         0.0000
     34 O5         -1.9894   -4.2256   -7.8627 O.3       1 <0>         0.0000
     35 S1         -3.4126   -1.8963   -4.2973 S.o2      1 <0>         0.0000
     36 H1         -0.4410   -4.2512   -1.1745 H         1 <0>         0.0000
     37 H2         -6.9755   -9.4184    0.4411 H         1 <0>         0.0000
     38 H3         -2.1616   -5.9052   -0.5200 H         1 <0>         0.0000
     39 H4         -0.9887   -2.4204   -2.7906 H         1 <0>         0.0000
     40 H5         -6.8953   -7.4087   -1.0066 H         1 <0>         0.0000
     41 H6         -4.9978   -3.9377   -3.1002 H         1 <0>         0.0000
     42 H7          0.0007   -9.3840    2.5361 H         1 <0>         0.0000
     43 H8         -1.0002   -8.2258    3.4296 H         1 <0>         0.0000
     44 H9         -1.0945   -8.1198   -0.8795 H         1 <0>         0.0000
     45 H10        -0.0666   -9.3237   -0.0795 H         1 <0>         0.0000
     46 H11        -4.7821   -3.5428   -6.0925 H         1 <0>         0.0000
     47 H12        -3.4699   -4.6510   -5.5950 H         1 <0>         0.0000
     48 H13        -1.1078   -3.5937   -5.3510 H         1 <0>         0.0000
     49 H14        -0.9880   -1.8426   -5.6903 H         1 <0>         0.0000
     50 H15         0.3346   -6.3429    2.5038 H         1 <0>         0.0000
     51 H16         1.4290   -7.5239    3.2563 H         1 <0>         0.0000
     52 H17         1.3504   -7.4325   -0.7834 H         1 <0>         0.0000
     53 H18         0.2923   -6.2860    0.0654 H         1 <0>         0.0000
     54 H19        -3.8765   -4.9548   -8.0003 H         1 <0>         0.0000
     55 H20        -3.7451   -3.1962   -8.2824 H         1 <0>         0.0000
     56 H21        -1.5433   -2.2044   -8.0512 H         1 <0>         0.0000
     57 H22        -0.2017   -3.3001   -7.6164 H         1 <0>         0.0000
     58 H23        -1.6235  -10.6666    2.2641 H         1 <0>         0.0000
     59 H24        -1.7205   -7.1720    1.3179 H         1 <0>         0.0000
     60 H25        -3.0150  -11.1523   -0.4339 H         1 <0>         0.0000
     61 H26        -2.2362  -12.4014    0.5626 H         1 <0>         0.0000
     62 H27        -1.2637  -11.1115   -0.1688 H         1 <0>         0.0000
     63 H28        -6.7158  -11.4199    1.6564 H         1 <0>         0.0000
     64 H29        -6.7205  -10.0605    2.8131 H         1 <0>         0.0000
     65 H30        -5.8961  -11.5909    3.2241 H         1 <0>         0.0000
     66 H31        -5.6308   -5.6936   -1.8446 H         1 <0>         0.0000
@<TRIPOS>BOND
     1    1    3 ar
     2    1    4 ar
     3    1   36 1
     4    2    5 ar
     5    2    7 ar
     6    2   37 1
     7    3    8 ar
     8    3   38 1
     9    4    9 ar
    10    4   39 1
    11    5   11 ar
    12    5   40 1
    13    6    8 ar
    14    6    9 ar
    15    6   41 1
    16    7   10 ar
    17    7   26 1
    18    8   29 1
    19    9   35 1
    20   10   25 ar
    21   10   27 1
    22   11   25 ar
    23   11   29 1
    24   12   21 1
    25   12   26 am
    26   12   30 2
    27   13   17 1
    28   13   22 1
    29   13   42 1
    30   13   43 1
    31   14   18 1
    32   14   22 1
    33   14   44 1
    34   14   45 1
    35   15   19 1
    36   15   28 1
    37   15   46 1
    38   15   47 1
    39   16   20 1
    40   16   28 1
    41   16   48 1
    42   16   49 1
    43   17   33 1
    44   17   50 1
    45   17   51 1
    46   18   33 1
    47   18   52 1
    48   18   53 1
    49   19   34 1
    50   19   54 1
    51   19   55 1
    52   20   34 1
    53   20   56 1
    54   20   57 1
    55   21   23 1
    56   21   27 1
    57   21   58 1
    58   22   27 1
    59   22   59 1
    60   23   60 1
    61   23   61 1
    62   23   62 1
    63   24   26 1
    64   24   63 1
    65   24   64 1
    66   24   65 1
    67   28   35 1
    68   29   66 1
    69   31   35 2
    70   32   35 2
