@<TRIPOS>MOLECULE
*****
   15    15     0     0     0
SMALL
NO_CHARGES

@<TRIPOS>ATOM
      1 C1          5.3140    1.1400   -0.0420 C.2       1 <0>         0.0000
      2 C2          4.2100    0.7020   -0.7820 C.2       1 <0>         0.0000
      3 C3          5.2860    0.4720    1.1330 C.2       1 <0>         0.0000
      4 C4          3.5610   -0.2120   -0.0250 C.2       1 <0>         0.0000
      5 C5          2.7940   -2.4070   -0.7550 C.3       1 <0>         0.0000
      6 C6          2.3160   -1.0190   -0.3120 C.3       1 <0>         0.0000
      7 O1          4.2160   -0.3610    1.1560 O.3       1 <0>         0.0000
      8 H1          6.0370    1.8550   -0.3360 H         1 <0>         0.0000
      9 H2          3.9300    1.0180   -1.7540 H         1 <0>         0.0000
     10 H3          5.9450    0.5190    1.9620 H         1 <0>         0.0000
     11 H4          1.9330   -3.0360   -0.9820 H         1 <0>         0.0000
     12 H5          3.3730   -2.8690    0.0460 H         1 <0>         0.0000
     13 H6          3.4190   -2.3180   -1.6440 H         1 <0>         0.0000
     14 H7          1.7110   -1.0960    0.5920 H         1 <0>         0.0000
     15 H8          1.7370   -0.5460   -1.1070 H         1 <0>         0.0000
@<TRIPOS>BOND
     1    1    2 1
     2    1    3 2
     3    1    8 1
     4    2    4 2
     5    2    9 1
     6    3    7 1
     7    3   10 1
     8    4    6 1
     9    4    7 1
    10    5    6 1
    11    5   11 1
    12    5   12 1
    13    5   13 1
    14    6   14 1
    15    6   15 1
