@<TRIPOS>MOLECULE
*****
   19    20     0     0     0
SMALL
NO_CHARGES

@<TRIPOS>ATOM
      1 C1          1.8851   -1.0363   -0.1124 C.ar      1 <0>         0.0000
      2 C2          0.8066   -0.4630    0.5610 C.ar      1 <0>         0.0000
      3 C3          2.9210   -1.6309    0.6081 C.ar      1 <0>         0.0000
      4 C4          0.7638   -0.4841    1.9551 C.ar      1 <0>         0.0000
      5 C5          2.8783   -1.6520    2.0022 C.ar      1 <0>         0.0000
      6 C6          1.7997   -1.0786    2.6757 C.ar      1 <0>         0.0000
      7 C7          3.9847   -2.2846    2.7381 C.2       1 <0>         0.0000
      8 C8          1.7208   -1.0825    4.1685 C.3       1 <0>         0.0000
      9 N1          5.2623   -1.8696    2.6453 N.2       1 <0>         0.0000
     10 N2          3.8139   -3.3318    3.5673 N.2       1 <0>         0.0000
     11 N3          5.9356   -2.7110    3.4694 N.2       1 <0>         0.0000
     12 N4          5.0656   -3.5895    4.0234 N.2       1 <0>         0.0000
     13 H1          1.9176   -1.0205   -1.1978 H         1 <0>         0.0000
     14 H2         -0.0003   -0.0008   -0.0004 H         1 <0>         0.0000
     15 H3          3.7545   -2.0735    0.0680 H         1 <0>         0.0000
     16 H4         -0.0814   -0.0352    2.4702 H         1 <0>         0.0000
     17 H5          1.2042   -1.9834    4.5178 H         1 <0>         0.0000
     18 H6          2.7210   -1.0555    4.6169 H         1 <0>         0.0000
     19 H7          1.1803   -0.2027    4.5376 H         1 <0>         0.0000
@<TRIPOS>BOND
     1    1    2 ar
     2    1    3 ar
     3    1   13 1
     4    2    4 ar
     5    2   14 1
     6    3    5 ar
     7    3   15 1
     8    4    6 ar
     9    4   16 1
    10    5    6 ar
    11    5    7 1
    12    6    8 1
    13    7    9 1
    14    7   10 2
    15    8   17 1
    16    8   18 1
    17    8   19 1
    18    9   11 1
    19   10   12 1
    20   11   12 2
