@<TRIPOS>MOLECULE
*****
   36    37     0     0     0
SMALL
NO_CHARGES

@<TRIPOS>ATOM
      1 C1         -0.7483    2.5848    2.1525 C.2       1 <0>         0.0000
      2 C2          0.2514   -0.7372   -2.9550 C.3       1 <0>         0.0000
      3 C3          0.9669    1.0714    1.1949 C.3       1 <0>         0.0000
      4 C4         -1.4709    0.8485    0.5243 C.3       1 <0>         0.0000
      5 C5          0.6050    0.2078   -1.8326 C.3       1 <0>         0.0000
      6 C6          1.2528   -0.2986    0.5804 C.3       1 <0>         0.0000
      7 C7         -1.1571   -0.5059   -0.1159 C.3       1 <0>         0.0000
      8 C8          0.6993   -2.0665   -2.3938 C.3       1 <0>         0.0000
      9 C9         -0.4908    1.1944    1.6485 C.3       1 <0>         0.0000
     10 C10         0.3063   -0.6268   -0.5817 C.3       1 <0>         0.0000
     11 C11        -0.5936    5.7041    0.2460 C.3       1 <0>         0.0000
     12 C12        -0.8069    4.8483    1.4763 C.3       1 <0>         0.0000
     13 O1         -1.0533    2.8494    3.3076 O.2       1 <0>         0.0000
     14 O2          0.5246   -2.0005   -0.9724 O.3       1 <0>         0.0000
     15 O3         -0.7390    0.3286    2.7507 O.3       1 <0>         0.0000
     16 O4         -0.5894    3.4761    1.1330 O.3       1 <0>         0.0000
     17 H1         -0.8322   -0.7404   -3.1183 H         1 <0>         0.0000
     18 H2          0.7362   -0.4907   -3.9034 H         1 <0>         0.0000
     19 H3          1.6291    1.2364    2.0492 H         1 <0>         0.0000
     20 H4          1.2106    1.8545    0.4724 H         1 <0>         0.0000
     21 H5         -1.4610    1.6265   -0.2458 H         1 <0>         0.0000
     22 H6         -2.4922    0.8390    0.9206 H         1 <0>         0.0000
     23 H7          1.6740    0.4461   -1.8936 H         1 <0>         0.0000
     24 H8          0.0516    1.1502   -1.8732 H         1 <0>         0.0000
     25 H9          2.2930   -0.3344    0.2342 H         1 <0>         0.0000
     26 H10         1.1480   -1.0512    1.3715 H         1 <0>         0.0000
     27 H11        -1.3897   -1.2857    0.6231 H         1 <0>         0.0000
     28 H12        -1.8327   -0.6669   -0.9690 H         1 <0>         0.0000
     29 H13         0.1279   -2.9076   -2.7966 H         1 <0>         0.0000
     30 H14         1.7627   -2.2411   -2.5906 H         1 <0>         0.0000
     31 H15         0.4269    5.5965   -0.1321 H         1 <0>         0.0000
     32 H16        -1.2955    5.4233   -0.5461 H         1 <0>         0.0000
     33 H17        -0.7764    6.7595    0.4737 H         1 <0>         0.0000
     34 H18        -1.8293    4.9605    1.8492 H         1 <0>         0.0000
     35 H19        -0.1043    5.1296    2.2663 H         1 <0>         0.0000
     36 H20        -0.1219    0.5900    3.4517 H         1 <0>         0.0000
@<TRIPOS>BOND
     1    1    9 1
     2    1   13 2
     3    1   16 1
     4    2    5 1
     5    2    8 1
     6    2   17 1
     7    2   18 1
     8    3    6 1
     9    3    9 1
    10    3   19 1
    11    3   20 1
    12    4    7 1
    13    4    9 1
    14    4   21 1
    15    4   22 1
    16    5   10 1
    17    5   23 1
    18    5   24 1
    19    6   10 1
    20    6   25 1
    21    6   26 1
    22    7   10 1
    23    7   27 1
    24    7   28 1
    25    8   14 1
    26    8   29 1
    27    8   30 1
    28    9   15 1
    29   10   14 1
    30   11   12 1
    31   11   31 1
    32   11   32 1
    33   11   33 1
    34   12   16 1
    35   12   34 1
    36   12   35 1
    37   15   36 1
