@<TRIPOS>MOLECULE
*****
   40    43     0     0     0
SMALL
NO_CHARGES

@<TRIPOS>ATOM
      1 C1         -1.9200   -1.6919    0.2198 C.ar      1 <0>         0.0000
      2 C2         -0.6573   -1.2293    0.6107 C.ar      1 <0>         0.0000
      3 C3         -2.0716   -3.0146   -0.1955 C.ar      1 <0>         0.0000
      4 C4          0.4339   -2.0965    0.5762 C.ar      1 <0>         0.0000
      5 C5          7.1620   -6.4368   -1.3035 C.ar      1 <0>         0.0000
      6 C6          5.9141   -5.9367   -0.9385 C.ar      1 <0>         0.0000
      7 C7          4.7580   -7.9907   -1.6241 C.ar      1 <0>         0.0000
      8 C8         -0.9780   -3.8925   -0.2382 C.ar      1 <0>         0.0000
      9 C9          0.2854   -3.4238    0.1491 C.ar      1 <0>         0.0000
     10 C10         7.2108   -7.7277   -1.8364 C.ar      1 <0>         0.0000
     11 C11         4.7220   -6.6904   -1.0912 C.ar      1 <0>         0.0000
     12 C12         6.0186   -8.4509   -1.9765 C.ar      1 <0>         0.0000
     13 C13         7.7218   -9.6264   -2.6742 C.2       1 <0>         0.0000
     14 C14         2.2422   -6.5704   -0.6820 C.2       1 <0>         0.0000
     15 C15        -1.1409   -5.3320   -0.6681 C.3       1 <0>         0.0000
     16 C16         1.5248   -4.3013    0.1002 C.3       1 <0>         0.0000
     17 C17        -0.0778   -6.2084   -0.0136 C.3       1 <0>         0.0000
     18 C18         8.3676  -10.8358   -3.2502 C.3       1 <0>         0.0000
     19 N1          8.2752   -8.5167   -2.2947 N.2       1 <0>         0.0000
     20 N2          1.2529   -5.6752   -0.3066 N.am      1 <0>         0.0000
     21 N3          3.5295   -6.0506   -0.6891 N.am      1 <0>         0.0000
     22 O1          1.9906   -7.7360   -0.9949 O.2       1 <0>         0.0000
     23 O2          6.3446   -9.6768   -2.5165 O.3       1 <0>         0.0000
     24 H1         -2.7791   -1.0267    0.2470 H         1 <0>         0.0000
     25 H2         -0.5269   -0.2028    0.9428 H         1 <0>         0.0000
     26 H3         -3.0537   -3.3807   -0.4879 H         1 <0>         0.0000
     27 H4          1.4156   -1.7390    0.8831 H         1 <0>         0.0000
     28 H5          8.0633   -5.8447   -1.1783 H         1 <0>         0.0000
     29 H6          5.8494   -4.9329   -0.5227 H         1 <0>         0.0000
     30 H7          3.8579   -8.5775   -1.7375 H         1 <0>         0.0000
     31 H8         -2.1384   -5.6954   -0.3985 H         1 <0>         0.0000
     32 H9         -1.0488   -5.4163   -1.7581 H         1 <0>         0.0000
     33 H10         2.2079   -3.8443   -0.6262 H         1 <0>         0.0000
     34 H11         2.0192   -4.2674    1.0856 H         1 <0>         0.0000
     35 H12        -0.2358   -6.2390    1.0745 H         1 <0>         0.0000
     36 H13        -0.1083   -7.2283   -0.3922 H         1 <0>         0.0000
     37 H14         8.1771  -11.7120   -2.6219 H         1 <0>         0.0000
     38 H15         7.9687  -11.0492   -4.2472 H         1 <0>         0.0000
     39 H16         9.4425  -10.6671   -3.3194 H         1 <0>         0.0000
     40 H17         3.6673   -5.1247   -0.3133 H         1 <0>         0.0000
@<TRIPOS>BOND
     1    1    2 ar
     2    1    3 ar
     3    1   24 1
     4    2    4 ar
     5    2   25 1
     6    3    8 ar
     7    3   26 1
     8    4    9 ar
     9    4   27 1
    10    5    6 ar
    11    5   10 ar
    12    5   28 1
    13    6   11 ar
    14    6   29 1
    15    7   11 ar
    16    7   12 ar
    17    7   30 1
    18    8    9 ar
    19    8   15 1
    20    9   16 1
    21   10   12 ar
    22   10   19 1
    23   11   21 1
    24   12   23 1
    25   13   18 1
    26   13   19 2
    27   13   23 1
    28   14   20 am
    29   14   21 am
    30   14   22 2
    31   15   17 1
    32   15   31 1
    33   15   32 1
    34   16   20 1
    35   16   33 1
    36   16   34 1
    37   17   20 1
    38   17   35 1
    39   17   36 1
    40   18   37 1
    41   18   38 1
    42   18   39 1
    43   21   40 1
