@<TRIPOS>MOLECULE
*****
   40    43     0     0     0
SMALL
NO_CHARGES

@<TRIPOS>ATOM
      1 C1          1.3993   -1.0800    0.2565 C.ar      1 <0>         0.0000
      2 C2          0.3618   -0.8292   -0.6499 C.ar      1 <0>         0.0000
      3 C3          2.3346   -2.0752   -0.0265 C.ar      1 <0>         0.0000
      4 C4          0.2774   -1.5753   -1.8249 C.ar      1 <0>         0.0000
      5 C5          3.4771   -6.7341   -8.7514 C.ar      1 <0>         0.0000
      6 C6          3.0526   -6.0924   -7.5867 C.ar      1 <0>         0.0000
      7 C7          5.2544   -6.3913   -6.5426 C.ar      1 <0>         0.0000
      8 C8          2.2561   -2.8294   -1.2069 C.ar      1 <0>         0.0000
      9 C9          1.2181   -2.5737   -2.1169 C.ar      1 <0>         0.0000
     10 C10         4.7900   -7.2055   -8.8170 C.ar      1 <0>         0.0000
     11 C11         3.9277   -5.9200   -6.4869 C.ar      1 <0>         0.0000
     12 C12         5.6364   -7.0200   -7.7161 C.ar      1 <0>         0.0000
     13 C13         6.6864   -8.0582   -9.3238 C.2       1 <0>         0.0000
     14 C14         2.3586   -4.6123   -5.0103 C.2       1 <0>         0.0000
     15 C15         3.2806   -3.9049   -1.5019 C.3       1 <0>         0.0000
     16 C16         1.0622   -3.3604   -3.4037 C.3       1 <0>         0.0000
     17 C17         2.7482   -4.8985   -2.5320 C.3       1 <0>         0.0000
     18 C18         7.8656   -8.7184   -9.9440 C.3       1 <0>         0.0000
     19 N1          5.5053   -7.8741   -9.8225 N.2       1 <0>         0.0000
     20 N2          2.2455   -4.1676   -3.6977 N.am      1 <0>         0.0000
     21 N3          3.5321   -5.3073   -5.2781 N.am      1 <0>         0.0000
     22 O1          1.5057   -4.3621   -5.8605 O.2       1 <0>         0.0000
     23 O2          6.8603   -7.5668   -8.0339 O.3       1 <0>         0.0000
     24 H1          1.4748   -0.5060    1.1764 H         1 <0>         0.0000
     25 H2         -0.3735   -0.0564   -0.4416 H         1 <0>         0.0000
     26 H3          3.1388   -2.2770    0.6787 H         1 <0>         0.0000
     27 H4         -0.5269   -1.3797   -2.5317 H         1 <0>         0.0000
     28 H5          2.7982   -6.8591   -9.5896 H         1 <0>         0.0000
     29 H6          2.0477   -5.7021   -7.5151 H         1 <0>         0.0000
     30 H7          5.9421   -6.2704   -5.7095 H         1 <0>         0.0000
     31 H8          4.1994   -3.4455   -1.8889 H         1 <0>         0.0000
     32 H9          3.5486   -4.4341   -0.5804 H         1 <0>         0.0000
     33 H10         0.1691   -4.0019   -3.3406 H         1 <0>         0.0000
     34 H11         0.8966   -2.6847   -4.2436 H         1 <0>         0.0000
     35 H12         3.5208   -5.6103   -2.8228 H         1 <0>         0.0000
     36 H13         1.9285   -5.4886   -2.0936 H         1 <0>         0.0000
     37 H14         8.7098   -8.0239  -10.0072 H         1 <0>         0.0000
     38 H15         8.1868   -9.5784   -9.3471 H         1 <0>         0.0000
     39 H16         7.5986   -9.0542  -10.9462 H         1 <0>         0.0000
     40 H17         4.2726   -5.2106   -4.5982 H         1 <0>         0.0000
@<TRIPOS>BOND
     1    1    2 ar
     2    1    3 ar
     3    1   24 1
     4    2    4 ar
     5    2   25 1
     6    3    8 ar
     7    3   26 1
     8    4    9 ar
     9    4   27 1
    10    5    6 ar
    11    5   10 ar
    12    5   28 1
    13    6   11 ar
    14    6   29 1
    15    7   11 ar
    16    7   12 ar
    17    7   30 1
    18    8    9 ar
    19    8   15 1
    20    9   16 1
    21   10   12 ar
    22   10   19 1
    23   11   21 1
    24   12   23 1
    25   13   18 1
    26   13   19 2
    27   13   23 1
    28   14   20 am
    29   14   21 am
    30   14   22 2
    31   15   17 1
    32   15   31 1
    33   15   32 1
    34   16   20 1
    35   16   33 1
    36   16   34 1
    37   17   20 1
    38   17   35 1
    39   17   36 1
    40   18   37 1
    41   18   38 1
    42   18   39 1
    43   21   40 1
