@<TRIPOS>MOLECULE
*****
   49    52     0     0     0
SMALL
NO_CHARGES

@<TRIPOS>ATOM
      1 C1         -8.2219    3.2793   -4.0141 C.2       1 <0>         0.0000
      2 C2         -6.4509    1.6439   -3.8335 C.2       1 <0>         0.0000
      3 C3         -2.6703   -0.1438    0.1595 C.2       1 <0>         0.0000
      4 C4         -4.0084   -1.0386   -4.3961 C.3       1 <0>         0.0000
      5 C5         -2.7673   -1.3334   -2.1169 C.3       1 <0>         0.0000
      6 C6         -5.3680   -0.5278   -3.9199 C.3       1 <0>         0.0000
      7 C7         -2.5827    0.9037    2.3688 C.3       1 <0>         0.0000
      8 C8         -0.8188    1.4589    0.7699 C.3       1 <0>         0.0000
      9 C9         -1.5175    0.7129    3.4456 C.3       1 <0>         0.0000
     10 C10         0.2168    1.2573    1.8756 C.3       1 <0>         0.0000
     11 C11        -4.3292    1.2915   -2.6400 C.3       1 <0>         0.0000
     12 C12        -2.0210   -0.3249   -1.2299 C.3       1 <0>         0.0000
     13 C13        -2.8521   -0.6222   -3.4791 C.3       1 <0>         0.0000
     14 C14        -2.9167    0.8479   -3.0531 C.3       1 <0>         0.0000
     15 C15        -9.1389    4.4620   -3.9918 C.3       1 <0>         0.0000
     16 C16         0.6408    1.4489    4.2443 C.3       1 <0>         0.0000
     17 N1         -8.5187    2.1315   -4.5399 N.2       1 <0>         0.0000
     18 N2         -7.5244    1.1884   -4.4355 N.2       1 <0>         0.0000
     19 N3         -5.2962    0.9214   -3.6734 N.pl3     1 <0>         0.0000
     20 N4         -2.0082    0.6541    1.0460 N.am      1 <0>         0.0000
     21 N5         -0.3551    1.5639    3.1855 N.3       1 <0>         0.0000
     22 O1         -3.7363   -0.7019    0.4402 O.2       1 <0>         0.0000
     23 O2         -2.0271    0.9470   -1.9319 O.3       1 <0>         0.0000
     24 S1         -6.6028    3.3250   -3.3029 S.3       1 <0>         0.0000
     25 H1         -4.0445   -2.1302   -4.4852 H         1 <0>         0.0000
     26 H2         -3.8262   -0.6408   -5.4009 H         1 <0>         0.0000
     27 H3         -2.2350   -2.2854   -2.1807 H         1 <0>         0.0000
     28 H4         -3.7529   -1.5302   -1.6919 H         1 <0>         0.0000
     29 H5         -6.1330   -0.7051   -4.6741 H         1 <0>         0.0000
     30 H6         -5.6884   -1.0371   -2.9989 H         1 <0>         0.0000
     31 H7         -3.4154    0.2168    2.5138 H         1 <0>         0.0000
     32 H8         -2.9631    1.9332    2.4070 H         1 <0>         0.0000
     33 H9         -1.1084    2.5168    0.7303 H         1 <0>         0.0000
     34 H10        -0.3942    1.2037   -0.1979 H         1 <0>         0.0000
     35 H11        -1.9406    0.9838    4.4189 H         1 <0>         0.0000
     36 H12        -1.2352   -0.3572    3.4886 H         1 <0>         0.0000
     37 H13         0.5959    0.2166    1.8306 H         1 <0>         0.0000
     38 H14         1.0645    1.9276    1.6955 H         1 <0>         0.0000
     39 H15        -4.6012    0.8339   -1.6784 H         1 <0>         0.0000
     40 H16        -4.3238    2.3739   -2.4992 H         1 <0>         0.0000
     41 H17        -0.9719   -0.6146   -1.1062 H         1 <0>         0.0000
     42 H18        -1.9056   -0.7694   -4.0119 H         1 <0>         0.0000
     43 H19        -2.5367    1.5192   -3.8284 H         1 <0>         0.0000
     44 H20        -9.3576    4.7798   -2.9668 H         1 <0>         0.0000
     45 H21        -8.7045    5.3158   -4.5227 H         1 <0>         0.0000
     46 H22       -10.0741    4.1816   -4.4808 H         1 <0>         0.0000
     47 H23         0.1934    1.7306    5.2028 H         1 <0>         0.0000
     48 H24         1.4727    2.1319    4.0446 H         1 <0>         0.0000
     49 H25         1.0504    0.4258    4.3429 H         1 <0>         0.0000
@<TRIPOS>BOND
     1    1   15 1
     2    1   17 2
     3    1   24 1
     4    2   18 2
     5    2   19 1
     6    2   24 1
     7    3   12 1
     8    3   20 am
     9    3   22 2
    10    4    6 1
    11    4   13 1
    12    4   25 1
    13    4   26 1
    14    5   12 1
    15    5   13 1
    16    5   27 1
    17    5   28 1
    18    6   19 1
    19    6   29 1
    20    6   30 1
    21    7    9 1
    22    7   20 1
    23    7   31 1
    24    7   32 1
    25    8   10 1
    26    8   20 1
    27    8   33 1
    28    8   34 1
    29    9   21 1
    30    9   35 1
    31    9   36 1
    32   10   21 1
    33   10   37 1
    34   10   38 1
    35   11   14 1
    36   11   19 1
    37   11   39 1
    38   11   40 1
    39   12   23 1
    40   12   41 1
    41   13   14 1
    42   13   42 1
    43   14   23 1
    44   14   43 1
    45   15   44 1
    46   15   45 1
    47   15   46 1
    48   16   21 1
    49   16   47 1
    50   16   48 1
    51   16   49 1
    52   17   18 1
