@<TRIPOS>MOLECULE
*****
   40    43     0     0     0
SMALL
NO_CHARGES

@<TRIPOS>ATOM
      1 C1          1.1747   -3.8039   -1.3728 C.ar      1 <0>         0.0000
      2 C2          2.3899   -4.3069   -0.8916 C.ar      1 <0>         0.0000
      3 C3          0.1004   -3.6430   -0.4982 C.ar      1 <0>         0.0000
      4 C4          2.5093   -4.6442    0.4559 C.ar      1 <0>         0.0000
      5 C5          2.8107   -8.3429    7.7945 C.ar      1 <0>         0.0000
      6 C6          2.5931   -7.5518    6.6687 C.ar      1 <0>         0.0000
      7 C7          0.3810   -6.8338    7.4540 C.ar      1 <0>         0.0000
      8 C8          0.2103   -3.9848    0.8581 C.ar      1 <0>         0.0000
      9 C9          1.4272   -4.4928    1.3345 C.ar      1 <0>         0.0000
     10 C10         1.8028   -8.3827    8.7616 C.ar      1 <0>         0.0000
     11 C11         1.4014   -6.8037    6.4877 C.ar      1 <0>         0.0000
     12 C12         0.6355   -7.6343    8.5583 C.ar      1 <0>         0.0000
     13 C13         0.5393   -8.7163   10.4530 C.2       1 <0>         0.0000
     14 C14         0.2944   -5.2073    4.8885 C.2       1 <0>         0.0000
     15 C15        -0.9441   -3.7932    1.8141 C.3       1 <0>         0.0000
     16 C16         1.6168   -4.9171    2.7810 C.3       1 <0>         0.0000
     17 C17        -0.4309   -3.5665    3.2326 C.3       1 <0>         0.0000
     18 C18        -0.1073   -9.1316   11.7260 C.3       1 <0>         0.0000
     19 N1          1.6992   -9.0593    9.9852 N.2       1 <0>         0.0000
     20 N2          0.4516   -4.6669    3.6218 N.am      1 <0>         0.0000
     21 N3          1.3157   -6.0561    5.2932 N.am      1 <0>         0.0000
     22 O1         -0.6856   -4.9575    5.5935 O.2       1 <0>         0.0000
     23 O2         -0.1819   -7.8470    9.6480 O.3       1 <0>         0.0000
     24 H1          1.0709   -3.5329   -2.4202 H         1 <0>         0.0000
     25 H2          3.2368   -4.4308   -1.5613 H         1 <0>         0.0000
     26 H3         -0.8413   -3.2405   -0.8661 H         1 <0>         0.0000
     27 H4          3.4548   -5.0321    0.8319 H         1 <0>         0.0000
     28 H5          3.7298   -8.9079    7.9153 H         1 <0>         0.0000
     29 H6          3.3623   -7.5057    5.9001 H         1 <0>         0.0000
     30 H7         -0.5276   -6.2622    7.3310 H         1 <0>         0.0000
     31 H8         -1.5558   -2.9404    1.5006 H         1 <0>         0.0000
     32 H9         -1.5936   -4.6775    1.8085 H         1 <0>         0.0000
     33 H10         1.8227   -5.9944    2.7706 H         1 <0>         0.0000
     34 H11         2.5129   -4.4133    3.1809 H         1 <0>         0.0000
     35 H12         0.1160   -2.6137    3.2850 H         1 <0>         0.0000
     36 H13        -1.2446   -3.5337    3.9543 H         1 <0>         0.0000
     37 H14        -0.3178   -8.2603   12.3548 H         1 <0>         0.0000
     38 H15        -1.0586   -9.6367   11.5296 H         1 <0>         0.0000
     39 H16         0.5589   -9.8100   12.2595 H         1 <0>         0.0000
     40 H17         2.1344   -6.1229    4.7078 H         1 <0>         0.0000
@<TRIPOS>BOND
     1    1    2 ar
     2    1    3 ar
     3    1   24 1
     4    2    4 ar
     5    2   25 1
     6    3    8 ar
     7    3   26 1
     8    4    9 ar
     9    4   27 1
    10    5    6 ar
    11    5   10 ar
    12    5   28 1
    13    6   11 ar
    14    6   29 1
    15    7   11 ar
    16    7   12 ar
    17    7   30 1
    18    8    9 ar
    19    8   15 1
    20    9   16 1
    21   10   12 ar
    22   10   19 1
    23   11   21 1
    24   12   23 1
    25   13   18 1
    26   13   19 2
    27   13   23 1
    28   14   20 am
    29   14   21 am
    30   14   22 2
    31   15   17 1
    32   15   31 1
    33   15   32 1
    34   16   20 1
    35   16   33 1
    36   16   34 1
    37   17   20 1
    38   17   35 1
    39   17   36 1
    40   18   37 1
    41   18   38 1
    42   18   39 1
    43   21   40 1
