@<TRIPOS>MOLECULE
*****
   35    37     0     0     0
SMALL
NO_CHARGES

@<TRIPOS>ATOM
      1 C1          7.7512   -1.3394    3.8929 C.1       1 <0>         0.0000
      2 C2          6.9303   -7.8357    4.8763 C.ar      1 <0>         0.0000
      3 C3          0.5882   -1.7639    0.8252 C.ar      1 <0>         0.0000
      4 C4          6.3238   -7.1091    3.8437 C.ar      1 <0>         0.0000
      5 C5          7.8118   -7.1947    5.7531 C.ar      1 <0>         0.0000
      6 C6          0.6571   -0.4390    0.3841 C.ar      1 <0>         0.0000
      7 C7          1.6284   -2.2807    1.5927 C.ar      1 <0>         0.0000
      8 C8          6.5729   -5.7468    3.7002 C.ar      1 <0>         0.0000
      9 C9          8.0794   -5.8353    5.5978 C.ar      1 <0>         0.0000
     10 C10         1.7592    0.3489    0.7213 C.ar      1 <0>         0.0000
     11 C11         2.7437   -1.4904    1.9282 C.ar      1 <0>         0.0000
     12 C12         7.4438   -5.0835    4.5880 C.ar      1 <0>         0.0000
     13 C13         2.8212   -0.1459    1.4938 C.ar      1 <0>         0.0000
     14 C14         3.7973   -2.1160    2.7452 C.2       1 <0>         0.0000
     15 C15         5.6793   -2.5845    3.5705 C.2       1 <0>         0.0000
     16 C16         7.7896   -3.6685    4.4805 C.2       1 <0>         0.0000
     17 C17         7.0840   -2.6109    3.9878 C.2       1 <0>         0.0000
     18 C18         3.9698    0.7762    1.8343 C.3       1 <0>         0.0000
     19 N1          8.3099   -0.3189    3.8285 N.1       1 <0>         0.0000
     20 N2          5.1278   -1.7315    2.7511 N.2       1 <0>         0.0000
     21 N3          3.5449   -3.1464    3.5351 N.2       1 <0>         0.0000
     22 O1          4.7979   -3.4614    4.0913 O.3       1 <0>         0.0000
     23 H1          6.7272   -8.8975    4.9870 H         1 <0>         0.0000
     24 H2         -0.2637   -2.3882    0.5703 H         1 <0>         0.0000
     25 H3          5.6571   -7.6089    3.1465 H         1 <0>         0.0000
     26 H4          8.2967   -7.7547    6.5477 H         1 <0>         0.0000
     27 H5         -0.1442   -0.0191   -0.2187 H         1 <0>         0.0000
     28 H6          1.5937   -3.3093    1.9380 H         1 <0>         0.0000
     29 H7          6.1115   -5.2063    2.8820 H         1 <0>         0.0000
     30 H8          8.7747   -5.3412    6.2725 H         1 <0>         0.0000
     31 H9          1.7995    1.3810    0.3816 H         1 <0>         0.0000
     32 H10         8.7839   -3.4182    4.8452 H         1 <0>         0.0000
     33 H11         4.1923    0.7728    2.9047 H         1 <0>         0.0000
     34 H12         4.8906    0.4738    1.3296 H         1 <0>         0.0000
     35 H13         3.7293    1.8002    1.5369 H         1 <0>         0.0000
@<TRIPOS>BOND
     1    1   17 1
     2    1   19 3
     3    2    5 ar
     4    2    4 ar
     5    2   23 1
     6    3    6 ar
     7    3    7 ar
     8    3   24 1
     9    4    8 ar
    10    4   25 1
    11    5    9 ar
    12    5   26 1
    13    6   10 ar
    14    6   27 1
    15    7   11 ar
    16    7   28 1
    17    8   12 ar
    18    8   29 1
    19    9   12 ar
    20    9   30 1
    21   10   13 ar
    22   10   31 1
    23   11   13 ar
    24   11   14 1
    25   12   16 1
    26   13   18 1
    27   14   20 1
    28   14   21 2
    29   15   17 1
    30   15   20 2
    31   15   22 1
    32   16   17 2
    33   16   32 1
    34   18   33 1
    35   18   34 1
    36   18   35 1
    37   21   22 1
