@<TRIPOS>MOLECULE
*****
   22    23     0     0     0
SMALL
NO_CHARGES

@<TRIPOS>ATOM
      1 C1          0.1691    2.1940    1.4947 C.2       1 <0>         0.0000
      2 C2          0.6340    1.0353    0.7921 C.2       1 <0>         0.0000
      3 C3          0.6582    2.2358    2.7665 C.2       1 <0>         0.0000
      4 C4          1.4566    0.2261    1.5409 C.2       1 <0>         0.0000
      5 C5         -1.0303   -3.7050    0.6267 C.2       1 <0>         0.0000
      6 C6         -1.3189   -1.3976    0.0443 C.2       1 <0>         0.0000
      7 C7         -0.8864   -5.1903    0.7384 C.3       1 <0>         0.0000
      8 N1         -1.0540   -2.9039    1.6616 N.2       1 <0>         0.0000
      9 N2         -1.2251   -1.5902    1.3322 N.2       1 <0>         0.0000
     10 N3         -1.4232   -0.1080   -0.5001 N.pl3     1 <0>         0.0000
     11 O1          0.9941   -0.2018   -1.5193 O.2       1 <0>         0.0000
     12 O2         -0.3638    1.9558   -1.4799 O.2       1 <0>         0.0000
     13 S1          1.6841    0.8701    3.1405 S.3       1 <0>         0.0000
     14 S2         -1.1831   -2.8714   -0.9025 S.3       1 <0>         0.0000
     15 S3          0.0658    0.7078   -0.8544 S.o2      1 <0>         0.0000
     16 Cl1         0.3744    3.4571    3.9530 Cl        1 <0>         0.0000
     17 Cl2         2.1951   -1.2682    1.1317 Cl        1 <0>         0.0000
     18 H1         -0.4804    2.9412    1.0551 H         1 <0>         0.0000
     19 H2         -1.7564   -5.7042    0.3177 H         1 <0>         0.0000
     20 H3          0.0031   -5.5432    0.2076 H         1 <0>         0.0000
     21 H4         -0.7972   -5.4507    1.7947 H         1 <0>         0.0000
     22 H5         -2.0410   -0.0101   -1.3060 H         1 <0>         0.0000
@<TRIPOS>BOND
     1    1    2 1
     2    1    3 2
     3    1   18 1
     4    2    4 2
     5    2   15 1
     6    3   13 1
     7    3   16 1
     8    4   13 1
     9    4   17 1
    10    5    7 1
    11    5    8 2
    12    5   14 1
    13    6    9 2
    14    6   10 1
    15    6   14 1
    16    7   19 1
    17    7   20 1
    18    7   21 1
    19    8    9 1
    20   10   15 1
    21   10   22 1
    22   11   15 2
    23   12   15 2
