@<TRIPOS>MOLECULE
*****
   38    39     0     0     0
SMALL
NO_CHARGES

@<TRIPOS>ATOM
      1 C1         -4.4335    0.0635    0.3987 C.1       1 <0>         0.0000
      2 C2         -2.1924    0.8205   -0.4854 C.2       1 <0>         0.0000
      3 C3         -0.3972   -0.2497    2.3347 C.3       1 <0>         0.0000
      4 C4          2.5098    1.9084   -0.3702 C.3       1 <0>         0.0000
      5 C5          0.9668   -0.5592    1.6998 C.3       1 <0>         0.0000
      6 C6          1.1359    1.5447    0.2226 C.3       1 <0>         0.0000
      7 C7         -1.5524   -0.6968    1.4303 C.3       1 <0>         0.0000
      8 C8          2.8676    0.6918   -1.2172 C.3       1 <0>         0.0000
      9 C9         -0.1451   -0.5119   -0.5641 C.3       1 <0>         0.0000
     10 C10         1.0637   -0.0148    0.2646 C.3       1 <0>         0.0000
     11 C11         4.3636   -2.2311   -0.3086 C.3       1 <0>         0.0000
     12 C12        -3.5087    1.1891    0.2355 C.3       1 <0>         0.0000
     13 N1         -5.1549   -0.8390    0.5302 N.1       1 <0>         0.0000
     14 N2         -1.3933   -0.1166    0.0936 N.am      1 <0>         0.0000
     15 N3          2.3711   -0.4073   -0.3608 N.pl3     1 <0>         0.0000
     16 O1         -1.9208    1.3924   -1.5410 O.2       1 <0>         0.0000
     17 O2          2.7296   -1.9948   -2.3739 O.2       1 <0>         0.0000
     18 O3          1.8047   -2.8922   -0.1783 O.2       1 <0>         0.0000
     19 S1          2.6841   -1.9692   -0.9072 S.o2      1 <0>         0.0000
     20 H1         -0.4805   -0.7576    3.3017 H         1 <0>         0.0000
     21 H2         -0.4969    0.8253    2.5279 H         1 <0>         0.0000
     22 H3          2.4808    2.8285   -0.9591 H         1 <0>         0.0000
     23 H4          3.2538    2.0311    0.4226 H         1 <0>         0.0000
     24 H5          1.7761   -0.1273    2.2992 H         1 <0>         0.0000
     25 H6          1.1156   -1.6416    1.6758 H         1 <0>         0.0000
     26 H7          1.0066    1.9726    1.2194 H         1 <0>         0.0000
     27 H8          0.3348    1.9339   -0.4084 H         1 <0>         0.0000
     28 H9         -1.5554   -1.7889    1.3285 H         1 <0>         0.0000
     29 H10        -2.5114   -0.4179    1.8618 H         1 <0>         0.0000
     30 H11         2.3649    0.7020   -2.1916 H         1 <0>         0.0000
     31 H12         3.9419    0.5887   -1.3897 H         1 <0>         0.0000
     32 H13        -0.1313   -0.0911   -1.5683 H         1 <0>         0.0000
     33 H14        -0.1297   -1.6024   -0.6327 H         1 <0>         0.0000
     34 H15         4.6667   -3.2184   -0.6618 H         1 <0>         0.0000
     35 H16         5.0185   -1.4655   -0.7257 H         1 <0>         0.0000
     36 H17         4.3483   -2.1913    0.7802 H         1 <0>         0.0000
     37 H18        -3.3056    1.6256    1.2191 H         1 <0>         0.0000
     38 H19        -3.9813    1.9555   -0.3808 H         1 <0>         0.0000
@<TRIPOS>BOND
     1    1   12 1
     2    1   13 3
     3    2   12 1
     4    2   14 am
     5    2   16 2
     6    3    5 1
     7    3    7 1
     8    3   20 1
     9    3   21 1
    10    4    6 1
    11    4    8 1
    12    4   22 1
    13    4   23 1
    14    5   10 1
    15    5   24 1
    16    5   25 1
    17    6   10 1
    18    6   26 1
    19    6   27 1
    20    7   14 1
    21    7   28 1
    22    7   29 1
    23    8   15 1
    24    8   30 1
    25    8   31 1
    26    9   10 1
    27    9   14 1
    28    9   32 1
    29    9   33 1
    30   10   15 1
    31   11   19 1
    32   11   34 1
    33   11   35 1
    34   11   36 1
    35   12   37 1
    36   12   38 1
    37   15   19 1
    38   17   19 2
    39   18   19 2
