@<TRIPOS>MOLECULE
*****
   36    38     0     0     0
SMALL
NO_CHARGES

@<TRIPOS>ATOM
      1 C1          0.6578   -6.8022    6.4051 C.1       1 <0>         0.0000
      2 C2         -0.6176   -3.3465    5.8090 C.ar      1 <0>         0.0000
      3 C3         -0.4337   -4.5958    6.4048 C.ar      1 <0>         0.0000
      4 C4          0.0857   -2.9988    4.6553 C.ar      1 <0>         0.0000
      5 C5          8.2126   -4.5401    5.3565 C.ar      1 <0>         0.0000
      6 C6          7.4786   -6.6033    4.3005 C.ar      1 <0>         0.0000
      7 C7          9.4755   -5.0925    5.5681 C.ar      1 <0>         0.0000
      8 C8          8.7450   -7.1575    4.4958 C.ar      1 <0>         0.0000
      9 C9          1.1927   -5.1531    4.6710 C.ar      1 <0>         0.0000
     10 C10         0.4679   -5.5025    5.8203 C.ar      1 <0>         0.0000
     11 C11         3.9923   -3.9609    3.7288 C.2       1 <0>         0.0000
     12 C12         1.0203   -3.8861    4.0934 C.ar      1 <0>         0.0000
     13 C13         7.2225   -5.2935    4.7169 C.ar      1 <0>         0.0000
     14 C14         9.7201   -6.3898    5.1251 C.ar      1 <0>         0.0000
     15 C15         4.1785   -3.5888    5.1022 C.2       1 <0>         0.0000
     16 C16         5.1610   -4.6510    3.4133 C.2       1 <0>         0.0000
     17 C17         2.9462   -3.6322    2.7535 C.2       1 <0>         0.0000
     18 C18         3.3011   -2.7641    5.9916 C.3       1 <0>         0.0000
     19 N1          0.8168   -7.8549    6.8793 N.1       1 <0>         0.0000
     20 N2          5.3449   -4.0329    5.5624 N.2       1 <0>         0.0000
     21 N3          1.6771   -3.5192    2.9077 N.2       1 <0>         0.0000
     22 N4          5.9366   -4.7103    4.5285 N.pl3     1 <0>         0.0000
     23 F1         10.9489   -6.9263    5.3213 F         1 <0>         0.0000
     24 Cl1         5.6366   -5.2985    1.8888 Cl        1 <0>         0.0000
     25 H1         -1.3215   -2.6418    6.2427 H         1 <0>         0.0000
     26 H2         -0.9829   -4.8776    7.2972 H         1 <0>         0.0000
     27 H3         -0.0659   -2.0340    4.1801 H         1 <0>         0.0000
     28 H4          7.9830   -3.5342    5.6904 H         1 <0>         0.0000
     29 H5          6.6951   -7.1949    3.8400 H         1 <0>         0.0000
     30 H6         10.2634   -4.5328    6.0620 H         1 <0>         0.0000
     31 H7          8.9726   -8.1715    4.1833 H         1 <0>         0.0000
     32 H8          1.8818   -5.8644    4.2287 H         1 <0>         0.0000
     33 H9          3.3120   -3.4448    1.7403 H         1 <0>         0.0000
     34 H10         2.4812   -3.3575    6.4052 H         1 <0>         0.0000
     35 H11         3.8955   -2.3724    6.8200 H         1 <0>         0.0000
     36 H12         2.8588   -1.9291    5.4426 H         1 <0>         0.0000
@<TRIPOS>BOND
     1    1   10 1
     2    1   19 3
     3    2    3 ar
     4    2    4 ar
     5    2   25 1
     6    3   10 ar
     7    3   26 1
     8    4   12 ar
     9    4   27 1
    10    5    7 ar
    11    5   13 ar
    12    5   28 1
    13    6    8 ar
    14    6   13 ar
    15    6   29 1
    16    7   14 ar
    17    7   30 1
    18    8   14 ar
    19    8   31 1
    20    9   10 ar
    21    9   12 ar
    22    9   32 1
    23   11   15 1
    24   11   16 2
    25   11   17 1
    26   12   21 1
    27   13   22 1
    28   14   23 1
    29   15   18 1
    30   15   20 2
    31   16   22 1
    32   16   24 1
    33   17   21 2
    34   17   33 1
    35   18   34 1
    36   18   35 1
    37   18   36 1
    38   20   22 1
