@<TRIPOS>MOLECULE
*****
   35    37     0     0     0
SMALL
NO_CHARGES

@<TRIPOS>ATOM
      1 C1          1.7297   -1.0576   -1.3859 C.ar      1 <0>         0.0000
      2 C2          1.7870   -2.4354   -1.1100 C.ar      1 <0>         0.0000
      3 C3          0.6725   -7.5636   -7.4073 C.ar      1 <0>         0.0000
      4 C4          0.7544   -7.6931   -4.9964 C.ar      1 <0>         0.0000
      5 C5          1.0655   -0.5767   -2.5156 C.ar      1 <0>         0.0000
      6 C6         -0.3644   -6.6339   -7.3320 C.ar      1 <0>         0.0000
      7 C7         -0.2803   -6.7641   -4.8974 C.ar      1 <0>         0.0000
      8 C8          1.2456   -8.1056   -6.2454 C.ar      1 <0>         0.0000
      9 C9          1.1875   -3.3819   -1.9446 C.ar      1 <0>         0.0000
     10 C10         0.5156   -2.9030   -3.0850 C.ar      1 <0>         0.0000
     11 C11         0.4608   -1.5154   -3.3541 C.ar      1 <0>         0.0000
     12 C12        -0.8251   -6.2447   -6.0728 C.ar      1 <0>         0.0000
     13 C13        -0.6485   -3.0058   -4.9616 C.2       1 <0>         0.0000
     14 C14         2.3453   -9.1360   -6.3379 C.3       1 <0>         0.0000
     15 C15         1.2379   -4.8629   -1.6676 C.3       1 <0>         0.0000
     16 N1         -0.1178   -3.7145   -4.0198 N.2       1 <0>         0.0000
     17 N2         -1.3206   -3.5433   -6.0482 N.pl3     1 <0>         0.0000
     18 O1         -2.8152   -5.1971   -4.6799 O.2       1 <0>         0.0000
     19 O2         -2.8996   -5.0443   -7.2286 O.2       1 <0>         0.0000
     20 S1         -0.4489   -1.2416   -4.8375 S.3       1 <0>         0.0000
     21 S2         -2.1510   -5.0597   -5.9701 S.o2      1 <0>         0.0000
     22 H1          2.2086   -0.3551   -0.7094 H         1 <0>         0.0000
     23 H2          2.3129   -2.7751   -0.2210 H         1 <0>         0.0000
     24 H3          1.0387   -7.8748   -8.3827 H         1 <0>         0.0000
     25 H4          1.1884   -8.1028   -4.0874 H         1 <0>         0.0000
     26 H5          1.0210    0.4874   -2.7275 H         1 <0>         0.0000
     27 H6         -0.8180   -6.2242   -8.2289 H         1 <0>         0.0000
     28 H7         -0.6545   -6.4325   -3.9364 H         1 <0>         0.0000
     29 H8          1.9238  -10.1483   -6.3516 H         1 <0>         0.0000
     30 H9          2.9339   -9.0125   -7.2513 H         1 <0>         0.0000
     31 H10         3.0234   -9.0745   -5.4821 H         1 <0>         0.0000
     32 H11         0.2282   -5.2708   -1.5504 H         1 <0>         0.0000
     33 H12         1.7034   -5.3992   -2.5014 H         1 <0>         0.0000
     34 H13         1.8044   -5.0743   -0.7568 H         1 <0>         0.0000
     35 H14        -1.7935   -2.9116   -6.6893 H         1 <0>         0.0000
@<TRIPOS>BOND
     1    1    2 ar
     2    1    5 ar
     3    1   22 1
     4    2    9 ar
     5    2   23 1
     6    3    6 ar
     7    3    8 ar
     8    3   24 1
     9    4    7 ar
    10    4    8 ar
    11    4   25 1
    12    5   11 ar
    13    5   26 1
    14    6   12 ar
    15    6   27 1
    16    7   12 ar
    17    7   28 1
    18    8   14 1
    19    9   10 ar
    20    9   15 1
    21   10   11 ar
    22   10   16 1
    23   11   20 1
    24   12   21 1
    25   13   16 2
    26   13   17 1
    27   13   20 1
    28   14   29 1
    29   14   30 1
    30   14   31 1
    31   15   32 1
    32   15   33 1
    33   15   34 1
    34   17   21 1
    35   17   35 1
    36   18   21 2
    37   19   21 2
