@<TRIPOS>MOLECULE
*****
   40    43     0     0     0
SMALL
NO_CHARGES

@<TRIPOS>ATOM
      1 C1          1.9714   -1.8039    0.9794 C.ar      1 <0>         0.0000
      2 C2          1.0502   -1.0762    0.2168 C.ar      1 <0>         0.0000
      3 C3          2.6262   -2.8970    0.4111 C.ar      1 <0>         0.0000
      4 C4          0.7984   -1.4524   -1.1028 C.ar      1 <0>         0.0000
      5 C5          7.2766   -4.7986   -6.6961 C.ar      1 <0>         0.0000
      6 C6          6.1466   -4.9255   -5.8913 C.ar      1 <0>         0.0000
      7 C7          5.4501   -2.6073   -6.2987 C.ar      1 <0>         0.0000
      8 C8          2.3777   -3.2819   -0.9145 C.ar      1 <0>         0.0000
      9 C9          1.4550   -2.5478   -1.6793 C.ar      1 <0>         0.0000
     10 C10         7.4988   -3.5625   -7.3090 C.ar      1 <0>         0.0000
     11 C11         5.2386   -3.8551   -5.6869 C.ar      1 <0>         0.0000
     12 C12         6.5865   -2.5215   -7.0900 C.ar      1 <0>         0.0000
     13 C13         8.1972   -1.8714   -8.4137 C.2       1 <0>         0.0000
     14 C14         3.0894   -3.2880   -4.5121 C.2       1 <0>         0.0000
     15 C15         3.1095   -4.4696   -1.5136 C.3       1 <0>         0.0000
     16 C16         1.1369   -2.9326   -3.1161 C.3       1 <0>         0.0000
     17 C17         2.3921   -4.9691   -2.7701 C.3       1 <0>         0.0000
     18 C18         8.9140   -0.8856   -9.2655 C.3       1 <0>         0.0000
     19 N1          8.5130   -3.1036   -8.1612 N.2       1 <0>         0.0000
     20 N2          2.1214   -3.8555   -3.6825 N.am      1 <0>         0.0000
     21 N3          4.1447   -4.1254   -4.8366 N.am      1 <0>         0.0000
     22 O1          2.9869   -2.1423   -4.9511 O.2       1 <0>         0.0000
     23 O2          7.0340   -1.4287   -7.8014 O.3       1 <0>         0.0000
     24 H1          2.1769   -1.5202    2.0083 H         1 <0>         0.0000
     25 H2          0.5377   -0.2195    0.6466 H         1 <0>         0.0000
     26 H3          3.3411   -3.4655    1.0032 H         1 <0>         0.0000
     27 H4          0.0894   -0.8828   -1.7008 H         1 <0>         0.0000
     28 H5          7.9593   -5.6302   -6.8416 H         1 <0>         0.0000
     29 H6          5.9521   -5.8781   -5.4021 H         1 <0>         0.0000
     30 H7          4.7636   -1.7856   -6.1544 H         1 <0>         0.0000
     31 H8          4.1353   -4.1795   -1.7752 H         1 <0>         0.0000
     32 H9          3.1852   -5.2776   -0.7768 H         1 <0>         0.0000
     33 H10         0.1509   -3.4140   -3.1610 H         1 <0>         0.0000
     34 H11         1.1045   -2.0471   -3.7491 H         1 <0>         0.0000
     35 H12         2.9451   -5.7737   -3.2609 H         1 <0>         0.0000
     36 H13         1.4223   -5.4015   -2.5006 H         1 <0>         0.0000
     37 H14         8.2709   -0.5405  -10.0817 H         1 <0>         0.0000
     38 H15         9.2057   -0.0081   -8.6792 H         1 <0>         0.0000
     39 H16         9.8055   -1.3554   -9.6816 H         1 <0>         0.0000
     40 H17         4.1052   -5.0773   -4.5063 H         1 <0>         0.0000
@<TRIPOS>BOND
     1    1    2 ar
     2    1    3 ar
     3    1   24 1
     4    2    4 ar
     5    2   25 1
     6    3    8 ar
     7    3   26 1
     8    4    9 ar
     9    4   27 1
    10    5    6 ar
    11    5   10 ar
    12    5   28 1
    13    6   11 ar
    14    6   29 1
    15    7   11 ar
    16    7   12 ar
    17    7   30 1
    18    8    9 ar
    19    8   15 1
    20    9   16 1
    21   10   12 ar
    22   10   19 1
    23   11   21 1
    24   12   23 1
    25   13   18 1
    26   13   19 2
    27   13   23 1
    28   14   20 am
    29   14   21 am
    30   14   22 2
    31   15   17 1
    32   15   31 1
    33   15   32 1
    34   16   20 1
    35   16   33 1
    36   16   34 1
    37   17   20 1
    38   17   35 1
    39   17   36 1
    40   18   37 1
    41   18   38 1
    42   18   39 1
    43   21   40 1
