@<TRIPOS>MOLECULE
*****
   22    23     0     0     0
SMALL
NO_CHARGES

@<TRIPOS>ATOM
      1 C1          0.6660    1.7373    2.6147 C.2       1 <0>         0.0000
      2 C2          1.1536    0.4642    2.1745 C.2       1 <0>         0.0000
      3 C3          0.3609    2.5466    1.5610 C.2       1 <0>         0.0000
      4 C4          1.2039    0.3337    0.8059 C.2       1 <0>         0.0000
      5 C5         -1.1865   -3.7558    0.7673 C.2       1 <0>         0.0000
      6 C6         -0.5594   -2.2286    2.5053 C.2       1 <0>         0.0000
      7 C7         -1.4759   -4.8901   -0.1648 C.3       1 <0>         0.0000
      8 N1         -1.6011   -2.5314    0.5614 N.2       1 <0>         0.0000
      9 N2         -1.2501   -1.6617    1.5532 N.2       1 <0>         0.0000
     10 N3         -0.0409   -1.4870    3.5783 N.pl3     1 <0>         0.0000
     11 O1          1.8288   -0.1849    4.6499 O.2       1 <0>         0.0000
     12 O2          2.4337   -1.7779    2.7532 O.2       1 <0>         0.0000
     13 S1          0.6502    1.7809    0.0159 S.3       1 <0>         0.0000
     14 S2         -0.2599   -3.9393    2.2384 S.3       1 <0>         0.0000
     15 S3          1.5351   -0.7990    3.3576 S.o2      1 <0>         0.0000
     16 Cl1        -0.2358    4.1651    1.6280 Cl        1 <0>         0.0000
     17 Cl2         1.6684   -1.0124   -0.1523 Cl        1 <0>         0.0000
     18 H1          0.5673    2.0132    3.6576 H         1 <0>         0.0000
     19 H2         -0.5518   -5.3394   -0.5411 H         1 <0>         0.0000
     20 H3         -2.0532   -5.6744    0.3349 H         1 <0>         0.0000
     21 H4         -2.0540   -4.5065   -1.0075 H         1 <0>         0.0000
     22 H5         -0.0685   -1.9393    4.4922 H         1 <0>         0.0000
@<TRIPOS>BOND
     1    1    2 1
     2    1    3 2
     3    1   18 1
     4    2    4 2
     5    2   15 1
     6    3   13 1
     7    3   16 1
     8    4   13 1
     9    4   17 1
    10    5    7 1
    11    5    8 2
    12    5   14 1
    13    6    9 2
    14    6   10 1
    15    6   14 1
    16    7   19 1
    17    7   20 1
    18    7   21 1
    19    8    9 1
    20   10   15 1
    21   10   22 1
    22   11   15 2
    23   12   15 2
