@<TRIPOS>MOLECULE
*****
   35    37     0     0     0
SMALL
NO_CHARGES

@<TRIPOS>ATOM
      1 C1          1.2660   -1.7910   -1.1049 C.ar      1 <0>         0.0000
      2 C2          1.0905   -3.1863   -1.1187 C.ar      1 <0>         0.0000
      3 C3          0.2042   -6.7621   -8.4142 C.ar      1 <0>         0.0000
      4 C4         -0.1000   -7.3684   -6.0956 C.ar      1 <0>         0.0000
      5 C5          0.8420   -1.0017   -2.1754 C.ar      1 <0>         0.0000
      6 C6         -0.6975   -5.7081   -8.2670 C.ar      1 <0>         0.0000
      7 C7         -1.0027   -6.3201   -5.9253 C.ar      1 <0>         0.0000
      8 C8          0.5155   -7.6052   -7.3354 C.ar      1 <0>         0.0000
      9 C9          0.4887   -3.8451   -2.1937 C.ar      1 <0>         0.0000
     10 C10         0.0585   -3.0543   -3.2758 C.ar      1 <0>         0.0000
     11 C11         0.2369   -1.6513   -3.2532 C.ar      1 <0>         0.0000
     12 C12        -1.2874   -5.5007   -7.0188 C.ar      1 <0>         0.0000
     13 C13        -0.8317   -2.6055   -5.2489 C.2       1 <0>         0.0000
     14 C14         1.4676   -8.7637   -7.5117 C.3       1 <0>         0.0000
     15 C15         0.2918   -5.3393   -2.2287 C.3       1 <0>         0.0000
     16 N1         -0.5440   -3.5577   -4.4235 N.2       1 <0>         0.0000
     17 N2         -1.4114   -2.8088   -6.4915 N.pl3     1 <0>         0.0000
     18 O1         -3.2984   -4.4273   -5.6765 O.2       1 <0>         0.0000
     19 O2         -2.9928   -3.7861   -8.1300 O.2       1 <0>         0.0000
     20 S1         -0.4063   -0.9547   -4.7378 S.3       1 <0>         0.0000
     21 S2         -2.4423   -4.1585   -6.8252 S.o2      1 <0>         0.0000
     22 H1          1.7377   -1.3185   -0.2478 H         1 <0>         0.0000
     23 H2          1.4326   -3.7705   -0.2678 H         1 <0>         0.0000
     24 H3          0.6690   -6.9337   -9.3820 H         1 <0>         0.0000
     25 H4          0.1315   -8.0120   -5.2501 H         1 <0>         0.0000
     26 H5          0.9771    0.0757   -2.1637 H         1 <0>         0.0000
     27 H6         -0.9500   -5.0639   -9.1032 H         1 <0>         0.0000
     28 H7         -1.4709   -6.1247   -4.9682 H         1 <0>         0.0000
     29 H8          0.9169   -9.6815   -7.7504 H         1 <0>         0.0000
     30 H9          2.1736   -8.5817   -8.3267 H         1 <0>         0.0000
     31 H10         2.0394   -8.9529   -6.5987 H         1 <0>         0.0000
     32 H11        -0.7711   -5.5891   -2.3147 H         1 <0>         0.0000
     33 H12         0.7935   -5.7778   -3.0979 H         1 <0>         0.0000
     34 H13         0.6858   -5.8098   -1.3240 H         1 <0>         0.0000
     35 H14        -1.7023   -1.9976   -7.0312 H         1 <0>         0.0000
@<TRIPOS>BOND
     1    1    2 ar
     2    1    5 ar
     3    1   22 1
     4    2    9 ar
     5    2   23 1
     6    3    6 ar
     7    3    8 ar
     8    3   24 1
     9    4    7 ar
    10    4    8 ar
    11    4   25 1
    12    5   11 ar
    13    5   26 1
    14    6   12 ar
    15    6   27 1
    16    7   12 ar
    17    7   28 1
    18    8   14 1
    19    9   10 ar
    20    9   15 1
    21   10   11 ar
    22   10   16 1
    23   11   20 1
    24   12   21 1
    25   13   16 2
    26   13   17 1
    27   13   20 1
    28   14   29 1
    29   14   30 1
    30   14   31 1
    31   15   32 1
    32   15   33 1
    33   15   34 1
    34   17   21 1
    35   17   35 1
    36   18   21 2
    37   19   21 2
