@<TRIPOS>MOLECULE
*****
   40    43     0     0     0
SMALL
NO_CHARGES

@<TRIPOS>ATOM
      1 C1          1.3052    0.9049   -1.8268 C.ar      1 <0>         0.0000
      2 C2          0.0457    0.2982   -1.8647 C.ar      1 <0>         0.0000
      3 C3          2.4483    0.1633   -2.1467 C.ar      1 <0>         0.0000
      4 C4         -0.0707   -1.0496   -2.2239 C.ar      1 <0>         0.0000
      5 C5          3.0170   -6.0900   -9.3947 C.ar      1 <0>         0.0000
      6 C6          3.0709   -5.3193   -8.2355 C.ar      1 <0>         0.0000
      7 C7          1.0064   -6.3024   -7.3433 C.ar      1 <0>         0.0000
      8 C8          2.3348   -1.1854   -2.4928 C.ar      1 <0>         0.0000
      9 C9          1.0700   -1.7933   -2.5341 C.ar      1 <0>         0.0000
     10 C10         1.9471   -6.9786   -9.5316 C.ar      1 <0>         0.0000
     11 C11         2.0878   -5.4131   -7.2169 C.ar      1 <0>         0.0000
     12 C12         0.9901   -7.0522   -8.5104 C.ar      1 <0>         0.0000
     13 C13         0.5012   -8.4351  -10.1286 C.2       1 <0>         0.0000
     14 C14         1.4471   -4.4347   -4.9889 C.2       1 <0>         0.0000
     15 C15         3.5032   -2.0638   -2.8582 C.3       1 <0>         0.0000
     16 C16         1.0178   -3.2556   -2.9014 C.3       1 <0>         0.0000
     17 C17         3.1970   -2.8569   -4.1369 C.3       1 <0>         0.0000
     18 C18        -0.3270   -9.4733  -10.7977 C.3       1 <0>         0.0000
     19 N1          1.5958   -7.8796  -10.5469 N.2       1 <0>         0.0000
     20 N2          1.9110   -3.5512   -4.0339 N.am      1 <0>         0.0000
     21 N3          2.2749   -4.5770   -6.0958 N.am      1 <0>         0.0000
     22 O1          0.3832   -5.0465   -4.8617 O.2       1 <0>         0.0000
     23 O2          0.0556   -7.9912   -8.8923 O.3       1 <0>         0.0000
     24 H1          1.3967    1.9534   -1.5551 H         1 <0>         0.0000
     25 H2         -0.8439    0.8744   -1.6241 H         1 <0>         0.0000
     26 H3          3.4280    0.6362   -2.1245 H         1 <0>         0.0000
     27 H4         -1.0507   -1.5198   -2.2665 H         1 <0>         0.0000
     28 H5          3.7786   -6.0028  -10.1635 H         1 <0>         0.0000
     29 H6          3.8950   -4.6205   -8.1048 H         1 <0>         0.0000
     30 H7          0.2482   -6.3780   -6.5771 H         1 <0>         0.0000
     31 H8          4.4136   -1.4780   -3.0135 H         1 <0>         0.0000
     32 H9          3.7095   -2.7709   -2.0440 H         1 <0>         0.0000
     33 H10         1.3056   -3.8697   -2.0349 H         1 <0>         0.0000
     34 H11         0.0140   -3.5649   -3.1881 H         1 <0>         0.0000
     35 H12         3.1867   -2.1534   -4.9834 H         1 <0>         0.0000
     36 H13         4.0031   -3.5833   -4.3038 H         1 <0>         0.0000
     37 H14        -0.4039  -10.3689  -10.1726 H         1 <0>         0.0000
     38 H15        -1.3424   -9.1033  -10.9737 H         1 <0>         0.0000
     39 H16         0.1321   -9.7359  -11.7511 H         1 <0>         0.0000
     40 H17         3.0784   -3.9704   -6.1625 H         1 <0>         0.0000
@<TRIPOS>BOND
     1    1    2 ar
     2    1    3 ar
     3    1   24 1
     4    2    4 ar
     5    2   25 1
     6    3    8 ar
     7    3   26 1
     8    4    9 ar
     9    4   27 1
    10    5    6 ar
    11    5   10 ar
    12    5   28 1
    13    6   11 ar
    14    6   29 1
    15    7   11 ar
    16    7   12 ar
    17    7   30 1
    18    8    9 ar
    19    8   15 1
    20    9   16 1
    21   10   12 ar
    22   10   19 1
    23   11   21 1
    24   12   23 1
    25   13   18 1
    26   13   19 2
    27   13   23 1
    28   14   20 am
    29   14   21 am
    30   14   22 2
    31   15   17 1
    32   15   31 1
    33   15   32 1
    34   16   20 1
    35   16   33 1
    36   16   34 1
    37   17   20 1
    38   17   35 1
    39   17   36 1
    40   18   37 1
    41   18   38 1
    42   18   39 1
    43   21   40 1
