@<TRIPOS>MOLECULE
*****
   42    45     0     0     0
SMALL
NO_CHARGES

@<TRIPOS>ATOM
      1 C1          4.6031   10.1245   -6.6881 C.ar      1 <0>         0.0000
      2 C2          5.6392    9.2447   -6.2904 C.ar      1 <0>         0.0000
      3 C3          8.2970    2.2989    3.0682 C.ar      1 <0>         0.0000
      4 C4          6.9466    2.3191    3.4355 C.ar      1 <0>         0.0000
      5 C5          3.6742   10.5448   -5.7605 C.ar      1 <0>         0.0000
      6 C6          5.7350    8.8157   -4.9814 C.ar      1 <0>         0.0000
      7 C7          2.7783   10.5354   -3.4542 C.ar      1 <0>         0.0000
      8 C8          8.7821    3.1384    2.0574 C.ar      1 <0>         0.0000
      9 C9          2.8523   10.1057   -2.1506 C.ar      1 <0>         0.0000
     10 C10         6.0501    3.1855    2.7941 C.ar      1 <0>         0.0000
     11 C11         3.7462   10.1174   -4.4069 C.ar      1 <0>         0.0000
     12 C12         4.8060    9.2467   -3.9915 C.ar      1 <0>         0.0000
     13 C13         4.8815    8.8138   -2.6179 C.ar      1 <0>         0.0000
     14 C14         7.8861    4.0005    1.4201 C.ar      1 <0>         0.0000
     15 C15         3.8969    9.2457   -1.7278 C.ar      1 <0>         0.0000
     16 C16         6.5270    4.0216    1.7889 C.ar      1 <0>         0.0000
     17 C17         7.1056    5.6372   -0.0522 C.2       1 <0>         0.0000
     18 C18         6.0323    8.0126   -2.1851 C.2       1 <0>         0.0000
     19 C19         9.5211    5.0686   -0.1465 C.3       1 <0>         0.0000
     20 C20         3.1416    7.8099   -0.0156 C.3       1 <0>         0.0000
     21 N1          7.1966    6.5201   -0.9946 N.2       1 <0>         0.0000
     22 N2          5.9728    7.1189   -1.2573 N.2       1 <0>         0.0000
     23 N3          8.1813    4.9023    0.3999 N.pl3     1 <0>         0.0000
     24 O1          3.9513    8.9318   -0.3906 O.3       1 <0>         0.0000
     25 S1          5.6169    5.1992    0.8323 S.3       1 <0>         0.0000
     26 H1          4.5388   10.4557   -7.7212 H         1 <0>         0.0000
     27 H2          6.3610    8.8968   -7.0250 H         1 <0>         0.0000
     28 H3          8.9832    1.6239    3.5718 H         1 <0>         0.0000
     29 H4          6.5874    1.6614    4.2216 H         1 <0>         0.0000
     30 H5          2.8649   11.2097   -6.0539 H         1 <0>         0.0000
     31 H6          6.5229    8.1192   -4.7163 H         1 <0>         0.0000
     32 H7          1.9810   11.2048   -3.7687 H         1 <0>         0.0000
     33 H8          9.8308    3.1171    1.7782 H         1 <0>         0.0000
     34 H9          2.1321   10.4336   -1.4061 H         1 <0>         0.0000
     35 H10         5.0013    3.2040    3.0771 H         1 <0>         0.0000
     36 H11         6.9930    8.1997   -2.6722 H         1 <0>         0.0000
     37 H12         9.8704    4.1284   -0.5863 H         1 <0>         0.0000
     38 H13        10.2153    5.3777    0.6420 H         1 <0>         0.0000
     39 H14         9.4813    5.8368   -0.9164 H         1 <0>         0.0000
     40 H15         3.3132    7.6536    1.0508 H         1 <0>         0.0000
     41 H16         3.4462    6.9166   -0.5681 H         1 <0>         0.0000
     42 H17         2.0781    8.0195   -0.1927 H         1 <0>         0.0000
@<TRIPOS>BOND
     1    1    2 ar
     2    1    5 ar
     3    1   26 1
     4    2    6 ar
     5    2   27 1
     6    3    4 ar
     7    3    8 ar
     8    3   28 1
     9    4   10 ar
    10    4   29 1
    11    5   11 ar
    12    5   30 1
    13    6   12 ar
    14    6   31 1
    15    7    9 ar
    16    7   11 ar
    17    7   32 1
    18    8   14 ar
    19    8   33 1
    20    9   15 ar
    21    9   34 1
    22   10   16 ar
    23   10   35 1
    24   11   12 ar
    25   12   13 ar
    26   13   15 ar
    27   13   18 1
    28   14   16 ar
    29   14   23 1
    30   15   24 1
    31   16   25 1
    32   17   21 2
    33   17   23 1
    34   17   25 1
    35   18   22 2
    36   18   36 1
    37   19   23 1
    38   19   37 1
    39   19   38 1
    40   19   39 1
    41   20   24 1
    42   20   40 1
    43   20   41 1
    44   20   42 1
    45   21   22 1
