@<TRIPOS>MOLECULE
*****
   45    47     0     0     0
SMALL
NO_CHARGES

@<TRIPOS>ATOM
      1 C1         -1.1821    2.7507    1.8062 C.2       1 <0>         0.0000
      2 C2         -0.7558    1.5118    3.6090 C.2       1 <0>         0.0000
      3 C3         -0.7369    1.4659    2.2165 C.2       1 <0>         0.0000
      4 C4          0.0079   -0.8152    1.8785 C.2       1 <0>         0.0000
      5 C5         -1.2892   -2.3070   -0.9201 C.2       1 <0>         0.0000
      6 C6          0.3488   -1.9402    0.8960 C.3       1 <0>         0.0000
      7 C7          0.0701   -0.0973   -2.4337 C.3       1 <0>         0.0000
      8 C8          1.0676    1.0300   -2.7615 C.3       1 <0>         0.0000
      9 C9         -0.5291    0.6410   -0.0811 C.3       1 <0>         0.0000
     10 C10         1.7845   -0.1545   -0.7848 C.3       1 <0>         0.0000
     11 C11         0.2547   -0.3630   -0.9271 C.3       1 <0>         0.0000
     12 C12        -1.6802   -3.6370   -0.2928 C.3       1 <0>         0.0000
     13 C13        -1.2964    3.3295    5.2687 C.3       1 <0>         0.0000
     14 C14         3.7772    3.0442   -2.1028 C.3       1 <0>         0.0000
     15 N1         -1.4537    3.5264    2.8597 N.2       1 <0>         0.0000
     16 N2         -1.1960    2.7577    3.9383 N.pl3     1 <0>         0.0000
     17 N3         -0.3740    0.3950    1.3648 N.am      1 <0>         0.0000
     18 N4         -0.1130   -1.7171   -0.4741 N.am      1 <0>         0.0000
     19 N5          2.1041    0.9622   -1.6937 N.pl3     1 <0>         0.0000
     20 O1          0.1217   -1.0441    3.0841 O.2       1 <0>         0.0000
     21 O2         -1.9796   -1.8122   -1.8085 O.2       1 <0>         0.0000
     22 O3          3.1661    2.1146    0.3167 O.2       1 <0>         0.0000
     23 O4          1.3997    3.3838   -1.0050 O.2       1 <0>         0.0000
     24 S1          2.5273    2.4383   -0.9616 S.o2      1 <0>         0.0000
     25 H1         -1.3115    3.1498    0.8098 H         1 <0>         0.0000
     26 H2         -0.4921    0.7699    4.3432 H         1 <0>         0.0000
     27 H3          1.4347   -2.0764    0.9194 H         1 <0>         0.0000
     28 H4         -0.0811   -2.8455    1.3143 H         1 <0>         0.0000
     29 H5         -0.9515    0.1668   -2.6965 H         1 <0>         0.0000
     30 H6          0.3222   -1.0098   -2.9790 H         1 <0>         0.0000
     31 H7          1.5328    0.8879   -3.7411 H         1 <0>         0.0000
     32 H8          0.5793    2.0074   -2.7475 H         1 <0>         0.0000
     33 H9         -0.1790    1.6532   -0.2893 H         1 <0>         0.0000
     34 H10        -1.5892    0.5866   -0.3521 H         1 <0>         0.0000
     35 H11         2.1257    0.0770    0.2228 H         1 <0>         0.0000
     36 H12         2.3026   -1.0551   -1.1335 H         1 <0>         0.0000
     37 H13        -2.1549   -3.4815    0.6819 H         1 <0>         0.0000
     38 H14        -0.8293   -4.3096   -0.1561 H         1 <0>         0.0000
     39 H15        -2.4107   -4.1027   -0.9545 H         1 <0>         0.0000
     40 H16        -0.4159    3.9390    5.4960 H         1 <0>         0.0000
     41 H17        -2.1888    3.9559    5.3175 H         1 <0>         0.0000
     42 H18        -1.3766    2.5228    5.9998 H         1 <0>         0.0000
     43 H19         4.0854    4.0255   -1.7376 H         1 <0>         0.0000
     44 H20         4.6104    2.3421   -2.0995 H         1 <0>         0.0000
     45 H21         3.3336    3.1313   -3.0956 H         1 <0>         0.0000
@<TRIPOS>BOND
     1    1    3 1
     2    1   15 2
     3    1   25 1
     4    2    3 2
     5    2   16 1
     6    2   26 1
     7    3   17 1
     8    4    6 1
     9    4   17 am
    10    4   20 2
    11    5   12 1
    12    5   18 am
    13    5   21 2
    14    6   18 1
    15    6   27 1
    16    6   28 1
    17    7    8 1
    18    7   11 1
    19    7   29 1
    20    7   30 1
    21    8   19 1
    22    8   31 1
    23    8   32 1
    24    9   11 1
    25    9   17 1
    26    9   33 1
    27    9   34 1
    28   10   11 1
    29   10   19 1
    30   10   35 1
    31   10   36 1
    32   11   18 1
    33   12   37 1
    34   12   38 1
    35   12   39 1
    36   13   16 1
    37   13   40 1
    38   13   41 1
    39   13   42 1
    40   14   24 1
    41   14   43 1
    42   14   44 1
    43   14   45 1
    44   15   16 1
    45   19   24 1
    46   22   24 2
    47   23   24 2
