@<TRIPOS>MOLECULE
*****
   42    45     0     0     0
SMALL
NO_CHARGES

@<TRIPOS>ATOM
      1 C1         -5.3259    0.5322   -5.0457 C.ar      1 <0>         0.0000
      2 C2         -3.9959    0.7014   -5.4451 C.ar      1 <0>         0.0000
      3 C3         -5.6518   -0.4856   -4.1424 C.ar      1 <0>         0.0000
      4 C4          2.5860   -2.4736    0.4744 C.ar      1 <0>         0.0000
      5 C5         -2.9935   -0.1345   -4.9496 C.ar      1 <0>         0.0000
      6 C6         -4.6630   -1.3317   -3.6381 C.ar      1 <0>         0.0000
      7 C7          1.9876   -1.2148    0.5289 C.ar      1 <0>         0.0000
      8 C8         -0.1341   -2.2484   -0.0721 C.ar      1 <0>         0.0000
      9 C9          1.8716   -3.6262    0.1244 C.ar      1 <0>         0.0000
     10 C10        -3.3376   -1.1468   -4.0472 C.ar      1 <0>         0.0000
     11 C11         0.5016   -3.4968   -0.1827 C.ar      1 <0>         0.0000
     12 C12         0.6244   -1.1367    0.2586 C.ar      1 <0>         0.0000
     13 C13        -1.3803   -3.5051   -2.4073 C.2       1 <0>         0.0000
     14 C14        -0.4166   -2.8731   -3.2378 C.2       1 <0>         0.0000
     15 C15        -1.2420   -4.6899   -1.5075 C.2       1 <0>         0.0000
     16 C16         2.5687   -4.9752    0.1346 C.3       1 <0>         0.0000
     17 C17         1.7022   -6.1149   -0.4167 C.3       1 <0>         0.0000
     18 C18         0.2444   -5.9237    0.0027 C.3       1 <0>         0.0000
     19 C19         1.0497   -3.1266   -3.3839 C.3       1 <0>         0.0000
     20 N1         -2.5733   -2.9428   -2.6240 N.2       1 <0>         0.0000
     21 N2         -1.0456   -1.9312   -3.9455 N.2       1 <0>         0.0000
     22 N3         -2.3237   -2.0024   -3.5370 N.pl3     1 <0>         0.0000
     23 N4         -0.2336   -4.6511   -0.5552 N.am      1 <0>         0.0000
     24 O1         -1.9511   -5.6800   -1.6633 O.2       1 <0>         0.0000
     25 F1          0.0045    0.0678    0.3441 F         1 <0>         0.0000
     26 H1         -6.1010    1.1866   -5.4348 H         1 <0>         0.0000
     27 H2         -3.7329    1.4890   -6.1460 H         1 <0>         0.0000
     28 H3         -6.6823   -0.6261   -3.8278 H         1 <0>         0.0000
     29 H4          3.6456   -2.5655    0.7030 H         1 <0>         0.0000
     30 H5         -1.9592   -0.0143   -5.2497 H         1 <0>         0.0000
     31 H6         -4.9020   -2.1264   -2.9411 H         1 <0>         0.0000
     32 H7          2.5455   -0.3213    0.7896 H         1 <0>         0.0000
     33 H8         -1.1993   -2.1373   -0.2337 H         1 <0>         0.0000
     34 H9          3.5102   -4.9102   -0.4218 H         1 <0>         0.0000
     35 H10         2.8443   -5.2035    1.1723 H         1 <0>         0.0000
     36 H11         1.7428   -6.1360   -1.5114 H         1 <0>         0.0000
     37 H12         2.0743   -7.0809   -0.0603 H         1 <0>         0.0000
     38 H13        -0.4026   -6.7119   -0.3782 H         1 <0>         0.0000
     39 H14         0.1486   -5.8942    1.0944 H         1 <0>         0.0000
     40 H15         1.2715   -4.1949   -3.3137 H         1 <0>         0.0000
     41 H16         1.3975   -2.7577   -4.3511 H         1 <0>         0.0000
     42 H17         1.6151   -2.6183   -2.5963 H         1 <0>         0.0000
@<TRIPOS>BOND
     1    1    3 ar
     2    1    2 ar
     3    1   26 1
     4    2    5 ar
     5    2   27 1
     6    3    6 ar
     7    3   28 1
     8    4    7 ar
     9    4    9 ar
    10    4   29 1
    11    5   10 ar
    12    5   30 1
    13    6   10 ar
    14    6   31 1
    15    7   12 ar
    16    7   32 1
    17    8   11 ar
    18    8   12 ar
    19    8   33 1
    20    9   11 ar
    21    9   16 1
    22   10   22 1
    23   11   23 1
    24   12   25 1
    25   13   14 1
    26   13   15 1
    27   13   20 2
    28   14   19 1
    29   14   21 2
    30   15   23 am
    31   15   24 2
    32   16   17 1
    33   16   34 1
    34   16   35 1
    35   17   18 1
    36   17   36 1
    37   17   37 1
    38   18   23 1
    39   18   38 1
    40   18   39 1
    41   19   40 1
    42   19   41 1
    43   19   42 1
    44   20   22 1
    45   21   22 1
