@<TRIPOS>MOLECULE
*****
   42    45     0     0     0
SMALL
NO_CHARGES

@<TRIPOS>ATOM
      1 C1         -3.4162    3.5318   -1.7473 C.ar      1 <0>         0.0000
      2 C2         -3.5910    3.4855   -3.1344 C.ar      1 <0>         0.0000
      3 C3         -2.7874    2.4655   -1.0949 C.ar      1 <0>         0.0000
      4 C4          1.9906   -6.2832   -1.7859 C.ar      1 <0>         0.0000
      5 C5         -3.1436    2.3874   -3.8714 C.ar      1 <0>         0.0000
      6 C6         -2.3339    1.3599   -1.8160 C.ar      1 <0>         0.0000
      7 C7          1.8937   -7.2640   -2.7743 C.ar      1 <0>         0.0000
      8 C8          0.8122   -5.6153   -4.2171 C.ar      1 <0>         0.0000
      9 C9          1.4991   -4.9890   -1.9699 C.ar      1 <0>         0.0000
     10 C10        -2.5158    1.3301   -3.2034 C.ar      1 <0>         0.0000
     11 C11         0.8848   -4.6454   -3.1993 C.ar      1 <0>         0.0000
     12 C12         1.3091   -6.8886   -3.9753 C.ar      1 <0>         0.0000
     13 C13        -1.1729   -1.6499   -4.4021 C.2       1 <0>         0.0000
     14 C14        -1.6838   -1.0657   -5.5982 C.2       1 <0>         0.0000
     15 C15        -0.5935   -3.0265   -4.3240 C.2       1 <0>         0.0000
     16 C16         1.7114   -3.9344   -0.9136 C.3       1 <0>         0.0000
     17 C17         2.0417   -2.6264   -1.6289 C.3       1 <0>         0.0000
     18 C18         0.8519   -2.2243   -2.4843 C.3       1 <0>         0.0000
     19 C19        -1.6786   -1.5790   -7.0014 C.3       1 <0>         0.0000
     20 N1         -1.4307   -0.8193   -3.3819 N.2       1 <0>         0.0000
     21 N2         -2.2225    0.1119   -5.2798 N.2       1 <0>         0.0000
     22 N3         -2.0570    0.2103   -3.9478 N.pl3     1 <0>         0.0000
     23 N4          0.3751   -3.3181   -3.3773 N.am      1 <0>         0.0000
     24 O1         -1.0180   -3.8363   -5.1526 O.2       1 <0>         0.0000
     25 F1          1.2194   -7.8059   -4.9760 F         1 <0>         0.0000
     26 H1         -3.7673    4.3892   -1.1800 H         1 <0>         0.0000
     27 H2         -4.0789    4.3080   -3.6502 H         1 <0>         0.0000
     28 H3         -2.6492    2.4909   -0.0174 H         1 <0>         0.0000
     29 H4          2.4685   -6.5267   -0.8401 H         1 <0>         0.0000
     30 H5         -3.2732    2.3383   -4.9461 H         1 <0>         0.0000
     31 H6         -1.8491    0.5268   -1.3208 H         1 <0>         0.0000
     32 H7          2.2674   -8.2726   -2.6309 H         1 <0>         0.0000
     33 H8          0.3636   -5.4013   -5.1736 H         1 <0>         0.0000
     34 H9          0.8102   -3.7977   -0.3002 H         1 <0>         0.0000
     35 H10         2.5170   -4.2372   -0.2385 H         1 <0>         0.0000
     36 H11         2.2346   -1.8121   -0.9227 H         1 <0>         0.0000
     37 H12         2.9411   -2.7569   -2.2409 H         1 <0>         0.0000
     38 H13         0.0324   -1.9237   -1.8301 H         1 <0>         0.0000
     39 H14         1.1034   -1.3629   -3.1061 H         1 <0>         0.0000
     40 H15        -2.3509   -2.4357   -7.0944 H         1 <0>         0.0000
     41 H16        -1.9961   -0.7891   -7.6855 H         1 <0>         0.0000
     42 H17        -0.6826   -1.9279   -7.2868 H         1 <0>         0.0000
@<TRIPOS>BOND
     1    1    3 ar
     2    1    2 ar
     3    1   26 1
     4    2    5 ar
     5    2   27 1
     6    3    6 ar
     7    3   28 1
     8    4    7 ar
     9    4    9 ar
    10    4   29 1
    11    5   10 ar
    12    5   30 1
    13    6   10 ar
    14    6   31 1
    15    7   12 ar
    16    7   32 1
    17    8   11 ar
    18    8   12 ar
    19    8   33 1
    20    9   11 ar
    21    9   16 1
    22   10   22 1
    23   11   23 1
    24   12   25 1
    25   13   14 1
    26   13   15 1
    27   13   20 2
    28   14   19 1
    29   14   21 2
    30   15   23 am
    31   15   24 2
    32   16   17 1
    33   16   34 1
    34   16   35 1
    35   17   18 1
    36   17   36 1
    37   17   37 1
    38   18   23 1
    39   18   38 1
    40   18   39 1
    41   19   40 1
    42   19   41 1
    43   19   42 1
    44   20   22 1
    45   21   22 1
