@<TRIPOS>MOLECULE
*****
   50    52     0     0     0
SMALL
NO_CHARGES

@<TRIPOS>ATOM
      1 C1          2.5490   -3.1688    2.3733 C.ar      1 <0>         0.0000
      2 C2          0.4101   -4.1301    1.7922 C.ar      1 <0>         0.0000
      3 C3          2.9419   -4.3831    2.9360 C.ar      1 <0>         0.0000
      4 C4          0.8030   -5.3445    2.3549 C.ar      1 <0>         0.0000
      5 C5          1.2831   -3.0423    1.8014 C.ar      1 <0>         0.0000
      6 C6          2.0689   -5.4710    2.9268 C.ar      1 <0>         0.0000
      7 C7          0.8122   -0.6259    1.9510 C.2       1 <0>         0.0000
      8 C8          0.8654   -1.7514    1.2032 C.2       1 <0>         0.0000
      9 C9          0.3837    0.7286    1.4267 C.3       1 <0>         0.0000
     10 C10         0.5015   -1.7545   -0.2754 C.3       1 <0>         0.0000
     11 C11        -0.1025   -0.1148   -2.2158 C.3       1 <0>         0.0000
     12 C12        -0.5021    1.3714   -2.2305 C.3       1 <0>         0.0000
     13 C13         0.4742   -0.3310   -0.8215 C.3       1 <0>         0.0000
     14 C14        -0.2948    1.8906   -0.7944 C.3       1 <0>         0.0000
     15 C15        -0.3407    0.6206    0.0736 C.3       1 <0>         0.0000
     16 C16        -1.8034    0.1662    0.3150 C.3       1 <0>         0.0000
     17 C17         0.0681    4.6195   -1.3169 C.3       1 <0>         0.0000
     18 C18        -1.8361    5.0494    0.2637 C.3       1 <0>         0.0000
     19 C19         0.2406    3.9036    1.0898 C.3       1 <0>         0.0000
     20 C20        -0.6970    4.0997   -0.1007 C.3       1 <0>         0.0000
     21 O1          2.4523   -6.6559    3.4759 O.3       1 <0>         0.0000
     22 O2         -1.2765    2.8425   -0.4333 O.3       1 <0>         0.0000
     23 H1          3.2407   -2.3299    2.3880 H         1 <0>         0.0000
     24 H2         -0.5799   -4.0470    1.3501 H         1 <0>         0.0000
     25 H3          3.9293   -4.4756    3.3801 H         1 <0>         0.0000
     26 H4          0.1185   -6.1884    2.3447 H         1 <0>         0.0000
     27 H5          1.1000   -0.6588    2.9997 H         1 <0>         0.0000
     28 H6         -0.2639    1.2148    2.1660 H         1 <0>         0.0000
     29 H7          1.2813    1.3531    1.3393 H         1 <0>         0.0000
     30 H8          1.2418   -2.3346   -0.8405 H         1 <0>         0.0000
     31 H9         -0.4656   -2.2524   -0.4131 H         1 <0>         0.0000
     32 H10        -0.9812   -0.7451   -2.3920 H         1 <0>         0.0000
     33 H11         0.6291   -0.3434   -2.9974 H         1 <0>         0.0000
     34 H12         0.1234    1.9371   -2.9300 H         1 <0>         0.0000
     35 H13        -1.5393    1.4913   -2.5643 H         1 <0>         0.0000
     36 H14         1.5184    0.0232   -0.8540 H         1 <0>         0.0000
     37 H15         0.6878    2.3744   -0.7249 H         1 <0>         0.0000
     38 H16        -2.3050    0.0928   -0.6399 H         1 <0>         0.0000
     39 H17        -2.2944    0.8986    0.9405 H         1 <0>         0.0000
     40 H18        -1.7898   -0.7970    0.8060 H         1 <0>         0.0000
     41 H19         0.8866    3.9406   -1.5817 H         1 <0>         0.0000
     42 H20        -0.5864    4.7313   -2.1876 H         1 <0>         0.0000
     43 H21         0.5288    5.5907   -1.1033 H         1 <0>         0.0000
     44 H22        -2.3878    4.6804    1.1359 H         1 <0>         0.0000
     45 H23        -2.5626    5.1194   -0.5540 H         1 <0>         0.0000
     46 H24        -1.4674    6.0557    0.4870 H         1 <0>         0.0000
     47 H25        -0.3079    3.5308    1.9623 H         1 <0>         0.0000
     48 H26         1.0437    3.1963    0.8584 H         1 <0>         0.0000
     49 H27         0.6915    4.8558    1.3917 H         1 <0>         0.0000
     50 H28         1.7411   -7.3109    3.3926 H         1 <0>         0.0000
@<TRIPOS>BOND
     1    1    3 ar
     2    1    5 ar
     3    1   23 1
     4    2    4 ar
     5    2    5 ar
     6    2   24 1
     7    3    6 ar
     8    3   25 1
     9    4    6 ar
    10    4   26 1
    11    5    8 1
    12    6   21 1
    13    7    8 2
    14    7    9 1
    15    7   27 1
    16    8   10 1
    17    9   15 1
    18    9   28 1
    19    9   29 1
    20   10   13 1
    21   10   30 1
    22   10   31 1
    23   11   12 1
    24   11   13 1
    25   11   32 1
    26   11   33 1
    27   12   14 1
    28   12   34 1
    29   12   35 1
    30   13   15 1
    31   13   36 1
    32   14   15 1
    33   14   22 1
    34   14   37 1
    35   15   16 1
    36   16   38 1
    37   16   39 1
    38   16   40 1
    39   17   20 1
    40   17   41 1
    41   17   42 1
    42   17   43 1
    43   18   20 1
    44   18   44 1
    45   18   45 1
    46   18   46 1
    47   19   20 1
    48   19   47 1
    49   19   48 1
    50   19   49 1
    51   20   22 1
    52   21   50 1
