@<TRIPOS>MOLECULE
*****
   26    26     0     0     0
SMALL
NO_CHARGES

@<TRIPOS>ATOM
      1 C1          2.4762   -0.3915    0.3635 C.ar      1 <0>         0.0000
      2 C2          1.3996   -0.1487    1.2179 C.ar      1 <0>         0.0000
      3 C3          2.8531   -0.5671    3.1110 C.ar      1 <0>         0.0000
      4 C4          3.7504   -0.7215    0.8439 C.ar      1 <0>         0.0000
      5 C5          1.5863   -0.2437    2.6048 C.ar      1 <0>         0.0000
      6 C6          3.9139   -0.7987    2.2429 C.ar      1 <0>         0.0000
      7 C7          4.8544   -0.9846   -0.1142 C.2       1 <0>         0.0000
      8 C8         -0.6968    0.2932    3.0721 C.3       1 <0>         0.0000
      9 C9          6.0229    0.0162    2.9275 C.3       1 <0>         0.0000
     10 N1          4.8480   -0.2958   -1.2155 N.2       1 <0>         0.0000
     11 N2          5.7627   -1.9817    0.1692 N.pl3     1 <0>         0.0000
     12 O1          5.9471   -0.7108   -2.0370 O.3       1 <0>         0.0000
     13 O2          0.6080   -0.0417    3.5379 O.3       1 <0>         0.0000
     14 O3          5.1477   -1.1171    2.8012 O.3       1 <0>         0.0000
     15 H1          2.3348   -0.3338   -0.7106 H         1 <0>         0.0000
     16 H2          0.4324    0.0957    0.7945 H         1 <0>         0.0000
     17 H3          3.0061   -0.6385    4.1832 H         1 <0>         0.0000
     18 H4         -1.3104    0.4117    3.9660 H         1 <0>         0.0000
     19 H5         -1.1146   -0.5056    2.4474 H         1 <0>         0.0000
     20 H6         -0.6901    1.2338    2.5081 H         1 <0>         0.0000
     21 H7          6.9429   -0.3529    3.3851 H         1 <0>         0.0000
     22 H8          5.5691    0.7784    3.5715 H         1 <0>         0.0000
     23 H9          6.2454    0.4529    1.9469 H         1 <0>         0.0000
     24 H10         5.8859   -2.1977    1.1508 H         1 <0>         0.0000
     25 H11         6.6005   -1.9689   -0.4000 H         1 <0>         0.0000
     26 H12         5.8793   -0.0987   -2.7855 H         1 <0>         0.0000
@<TRIPOS>BOND
     1    1    2 ar
     2    1    4 ar
     3    1   15 1
     4    2    5 ar
     5    2   16 1
     6    3    5 ar
     7    3    6 ar
     8    3   17 1
     9    4    6 ar
    10    4    7 1
    11    5   13 1
    12    6   14 1
    13    7   10 2
    14    7   11 1
    15    8   13 1
    16    8   18 1
    17    8   19 1
    18    8   20 1
    19    9   14 1
    20    9   21 1
    21    9   22 1
    22    9   23 1
    23   10   12 1
    24   11   24 1
    25   11   25 1
    26   12   26 1
