@<TRIPOS>MOLECULE
*****
   42    45     0     0     0
SMALL
NO_CHARGES

@<TRIPOS>ATOM
      1 C1          2.1559   -1.4594    1.7224 C.ar      1 <0>         0.0000
      2 C2          0.8378   -1.3199    1.2749 C.ar      1 <0>         0.0000
      3 C3          2.6370   -2.7207    2.1048 C.ar      1 <0>         0.0000
      4 C4         -0.0314   -2.4176    1.2026 C.ar      1 <0>         0.0000
      5 C5         -0.9869   -8.7973    0.6422 C.ar      1 <0>         0.0000
      6 C6         -1.3639   -7.1109   -1.0371 C.ar      1 <0>         0.0000
      7 C7          1.7861   -3.8174    2.0389 C.ar      1 <0>         0.0000
      8 C8         -1.4385   -7.5214    0.3001 C.ar      1 <0>         0.0000
      9 C9          0.4627   -3.6644    1.5973 C.ar      1 <0>         0.0000
     10 C10        -0.4755   -9.6700   -0.3229 C.ar      1 <0>         0.0000
     11 C11        -0.4316   -9.2807   -1.6789 C.ar      1 <0>         0.0000
     12 C12        -0.8701   -7.9848   -2.0021 C.ar      1 <0>         0.0000
     13 C13        -1.4803   -5.1570    1.2026 C.2       1 <0>         0.0000
     14 C14         2.0648   -5.2742    2.3320 C.3       1 <0>         0.0000
     15 C15         0.7041  -12.2560   -1.7801 C.3       1 <0>         0.0000
     16 C16         0.6585   -5.9130    2.3204 C.3       1 <0>         0.0000
     17 C17         1.0958  -11.4678   -0.5309 C.3       1 <0>         0.0000
     18 C18        -0.3194  -11.4753   -2.6051 C.3       1 <0>         0.0000
     19 C19        -1.9976   -6.5859    1.3584 C.3       1 <0>         0.0000
     20 N1         -0.2026   -4.9163    1.6393 N.am      1 <0>         0.0000
     21 O1         -2.1803   -4.2896    0.6768 O.2       1 <0>         0.0000
     22 O2         -0.0576  -10.9040    0.1242 O.3       1 <0>         0.0000
     23 O3          0.0337  -10.0809   -2.6898 O.3       1 <0>         0.0000
     24 Cl1        -0.8107   -7.4692   -3.6743 Cl        1 <0>         0.0000
     25 H1          2.8082   -0.5917    1.7713 H         1 <0>         0.0000
     26 H2          0.4724   -0.3408    0.9762 H         1 <0>         0.0000
     27 H3          3.6631   -2.8395    2.4455 H         1 <0>         0.0000
     28 H4         -1.0495   -2.3144    0.8537 H         1 <0>         0.0000
     29 H5         -1.0059   -9.1436    1.6722 H         1 <0>         0.0000
     30 H6         -1.6972   -6.1204   -1.3301 H         1 <0>         0.0000
     31 H7          2.6962   -5.7072    1.5473 H         1 <0>         0.0000
     32 H8          2.5719   -5.4318    3.2876 H         1 <0>         0.0000
     33 H9          1.6086  -12.4498   -2.3676 H         1 <0>         0.0000
     34 H10         0.2712  -13.2249   -1.5071 H         1 <0>         0.0000
     35 H11         0.6383   -6.8642    1.7891 H         1 <0>         0.0000
     36 H12         0.2925   -6.0732    3.3417 H         1 <0>         0.0000
     37 H13         1.5667  -12.1142    0.2135 H         1 <0>         0.0000
     38 H14         1.7955  -10.6642   -0.7816 H         1 <0>         0.0000
     39 H15        -0.3548  -11.8306   -3.6374 H         1 <0>         0.0000
     40 H16        -1.3213  -11.5668   -2.1743 H         1 <0>         0.0000
     41 H17        -3.0839   -6.5143    1.2604 H         1 <0>         0.0000
     42 H18        -1.7793   -6.9819    2.3546 H         1 <0>         0.0000
@<TRIPOS>BOND
     1    1    2 ar
     2    1    3 ar
     3    1   25 1
     4    2    4 ar
     5    2   26 1
     6    3    7 ar
     7    3   27 1
     8    4    9 ar
     9    4   28 1
    10    5    8 ar
    11    5   10 ar
    12    5   29 1
    13    6    8 ar
    14    6   12 ar
    15    6   30 1
    16    7    9 ar
    17    7   14 1
    18    8   19 1
    19    9   20 1
    20   10   11 ar
    21   10   22 1
    22   11   12 ar
    23   11   23 1
    24   12   24 1
    25   13   19 1
    26   13   20 am
    27   13   21 2
    28   14   16 1
    29   14   31 1
    30   14   32 1
    31   15   17 1
    32   15   18 1
    33   15   33 1
    34   15   34 1
    35   16   20 1
    36   16   35 1
    37   16   36 1
    38   17   22 1
    39   17   37 1
    40   17   38 1
    41   18   23 1
    42   18   39 1
    43   18   40 1
    44   19   41 1
    45   19   42 1
