@<TRIPOS>MOLECULE
*****
   25    26     0     0     0
SMALL
NO_CHARGES

@<TRIPOS>ATOM
      1 C1         -2.8868    0.6223   -4.8303 C.ar      1 <0>         0.0000
      2 C2         -4.0558    0.2203   -5.4905 C.ar      1 <0>         0.0000
      3 C3         -1.9650   -0.3258   -4.3713 C.ar      1 <0>         0.0000
      4 C4         -4.3067   -1.1268   -5.6926 C.ar      1 <0>         0.0000
      5 C5         -2.2407   -1.6881   -4.5865 C.ar      1 <0>         0.0000
      6 C6         -3.3994   -2.0890   -5.2408 C.ar      1 <0>         0.0000
      7 C7          3.0460    1.7550   -3.1170 C.3       1 <0>         0.0000
      8 C8          2.4272    3.0464   -2.5676 C.3       1 <0>         0.0000
      9 C9          0.8600    1.3526   -2.7754 C.3       1 <0>         0.0000
     10 C10        -0.4774    1.3141   -3.4907 C.3       1 <0>         0.0000
     11 O1          1.9150    1.0783   -3.6719 O.3       1 <0>         0.0000
     12 O2          1.0689    2.6744   -2.2737 O.3       1 <0>         0.0000
     13 O3         -0.8018   -0.0555   -3.7197 O.3       1 <0>         0.0000
     14 F1         -5.4268   -1.5377   -6.3263 F         1 <0>         0.0000
     15 F2         -1.3768   -2.6223   -4.1551 F         1 <0>         0.0000
     16 F3         -3.6401   -3.3956   -5.4342 F         1 <0>         0.0000
     17 H1         -2.7061    1.6796   -4.6809 H         1 <0>         0.0000
     18 H2         -4.7737    0.9507   -5.8491 H         1 <0>         0.0000
     19 H3          3.7743    1.9130   -3.9139 H         1 <0>         0.0000
     20 H4          3.4993    1.1522   -2.3180 H         1 <0>         0.0000
     21 H5          2.9121    3.3988   -1.6525 H         1 <0>         0.0000
     22 H6          2.4238    3.8498   -3.3126 H         1 <0>         0.0000
     23 H7          0.8728    0.6359   -1.9390 H         1 <0>         0.0000
     24 H8         -0.3942    1.8640   -4.4351 H         1 <0>         0.0000
     25 H9         -1.2314    1.7888   -2.8518 H         1 <0>         0.0000
@<TRIPOS>BOND
     1    1    2 ar
     2    1    3 ar
     3    1   17 1
     4    2    4 ar
     5    2   18 1
     6    3    5 ar
     7    3   13 1
     8    4    6 ar
     9    4   14 1
    10    5    6 ar
    11    5   15 1
    12    6   16 1
    13    7    8 1
    14    7   11 1
    15    7   19 1
    16    7   20 1
    17    8   12 1
    18    8   21 1
    19    8   22 1
    20    9   10 1
    21    9   12 1
    22    9   11 1
    23    9   23 1
    24   10   13 1
    25   10   24 1
    26   10   25 1
