@<TRIPOS>MOLECULE
*****
   37    40     0     0     0
SMALL
NO_CHARGES

@<TRIPOS>ATOM
      1 C1          0.4210   -3.9878    3.4192 C.ar      1 <0>         0.0000
      2 C2          1.0242   -2.7400    3.6286 C.ar      1 <0>         0.0000
      3 C3          0.7080   -4.7420    2.2746 C.ar      1 <0>         0.0000
      4 C4          2.7988   -7.4889   -4.0210 C.ar      1 <0>         0.0000
      5 C5          3.3276   -7.9958   -5.2162 C.ar      1 <0>         0.0000
      6 C6          1.9300   -2.2182    2.6945 C.ar      1 <0>         0.0000
      7 C7          1.9241   -9.6834   -3.3912 C.ar      1 <0>         0.0000
      8 C8          1.6107   -4.2238    1.3426 C.ar      1 <0>         0.0000
      9 C9          2.1020   -8.3049   -3.1085 C.ar      1 <0>         0.0000
     10 C10         3.1448   -9.3465   -5.4637 C.ar      1 <0>         0.0000
     11 C11         2.4612  -10.1657   -4.5674 C.ar      1 <0>         0.0000
     12 C12         2.1981   -2.9820    1.5701 C.ar      1 <0>         0.0000
     13 C13         2.1063   -4.7861    0.0498 C.2       1 <0>         0.0000
     14 C14         1.5800   -7.7144   -1.8555 C.2       1 <0>         0.0000
     15 C15         3.2588  -11.4501   -6.2196 C.3       1 <0>         0.0000
     16 C16         0.4954   -8.4158   -1.0650 C.3       1 <0>         0.0000
     17 N1          2.9576   -4.0855   -0.6405 N.2       1 <0>         0.0000
     18 N2          2.0951   -6.5822   -1.4982 N.2       1 <0>         0.0000
     19 N3          1.6391   -6.0007   -0.3503 N.pl3     1 <0>         0.0000
     20 O1          2.7814   -1.5035   -0.5967 O.2       1 <0>         0.0000
     21 O2          4.6878   -2.6320    0.6234 O.2       1 <0>         0.0000
     22 O3          3.5346  -10.0797   -6.5600 O.3       1 <0>         0.0000
     23 O4          2.3988  -11.4505   -5.0678 O.3       1 <0>         0.0000
     24 S1          3.2958   -2.6348    0.1747 S.o2      1 <0>         0.0000
     25 H1         -0.2786   -4.3755    4.1542 H         1 <0>         0.0000
     26 H2          0.7868   -2.1718    4.5235 H         1 <0>         0.0000
     27 H3          0.2254   -5.7068    2.1369 H         1 <0>         0.0000
     28 H4          2.9271   -6.4399   -3.7797 H         1 <0>         0.0000
     29 H5          3.8543   -7.3580   -5.9187 H         1 <0>         0.0000
     30 H6          2.4039   -1.2528    2.8448 H         1 <0>         0.0000
     31 H7          1.4140  -10.3587   -2.7137 H         1 <0>         0.0000
     32 H8          2.7468  -11.9334   -7.0543 H         1 <0>         0.0000
     33 H9          4.2009  -11.9569   -5.9716 H         1 <0>         0.0000
     34 H10         0.8854   -8.8310   -0.1268 H         1 <0>         0.0000
     35 H11        -0.3139   -7.7184   -0.8173 H         1 <0>         0.0000
     36 H12         0.0410   -9.2304   -1.6261 H         1 <0>         0.0000
     37 H13         0.9912   -6.4860    0.2614 H         1 <0>         0.0000
@<TRIPOS>BOND
     1    1    2 ar
     2    1    3 ar
     3    1   25 1
     4    2    6 ar
     5    2   26 1
     6    3    8 ar
     7    3   27 1
     8    4    5 ar
     9    4    9 ar
    10    4   28 1
    11    5   10 ar
    12    5   29 1
    13    6   12 ar
    14    6   30 1
    15    7    9 ar
    16    7   11 ar
    17    7   31 1
    18    8   12 ar
    19    8   13 1
    20    9   14 1
    21   10   11 ar
    22   10   22 1
    23   11   23 1
    24   12   24 1
    25   13   17 2
    26   13   19 1
    27   14   16 1
    28   14   18 2
    29   15   22 1
    30   15   23 1
    31   15   32 1
    32   15   33 1
    33   16   34 1
    34   16   35 1
    35   16   36 1
    36   17   24 1
    37   18   19 1
    38   19   37 1
    39   20   24 2
    40   21   24 2
