@<TRIPOS>MOLECULE
*****
   25    26     0     0     0
SMALL
NO_CHARGES

@<TRIPOS>ATOM
      1 C1         -1.2315   -6.7528   -2.1913 C.ar      1 <0>         0.0000
      2 C2         -1.8844   -7.9843   -2.2665 C.ar      1 <0>         0.0000
      3 C3         -3.5522   -6.9969   -3.7320 C.ar      1 <0>         0.0000
      4 C4         -1.7093   -5.6308   -2.8786 C.ar      1 <0>         0.0000
      5 C5         -2.8692   -5.7887   -3.6508 C.ar      1 <0>         0.0000
      6 C6         -3.0458   -8.0930   -3.0330 C.ar      1 <0>         0.0000
      7 C7          1.0785   -3.1772   -0.8340 C.3       1 <0>         0.0000
      8 C8          1.5118   -2.1618   -1.8878 C.3       1 <0>         0.0000
      9 C9         -0.7917   -2.2874   -1.8282 C.3       1 <0>         0.0000
     10 C10        -1.7179   -3.2540   -2.5529 C.3       1 <0>         0.0000
     11 O1         -0.2921   -2.8205   -0.6089 O.3       1 <0>         0.0000
     12 O2          0.3194   -1.9673   -2.6560 O.3       1 <0>         0.0000
     13 O3         -0.9950   -4.4698   -2.8088 O.3       1 <0>         0.0000
     14 F1         -3.3443   -4.7312   -4.3582 F         1 <0>         0.0000
     15 Br1        -3.9631   -9.7719   -3.1362 Br        1 <0>         0.0000
     16 H1         -0.3340   -6.6380   -1.5912 H         1 <0>         0.0000
     17 H2         -1.4991   -8.8425   -1.7265 H         1 <0>         0.0000
     18 H3         -4.4453   -7.0649   -4.3436 H         1 <0>         0.0000
     19 H4          1.1493   -4.2032   -1.2112 H         1 <0>         0.0000
     20 H5          1.6126   -3.0845    0.1144 H         1 <0>         0.0000
     21 H6          1.8278   -1.2147   -1.4305 H         1 <0>         0.0000
     22 H7          2.2940   -2.5278   -2.5569 H         1 <0>         0.0000
     23 H8         -1.3592   -1.3774   -1.5825 H         1 <0>         0.0000
     24 H9         -2.0555   -2.8029   -3.4905 H         1 <0>         0.0000
     25 H10        -2.5846   -3.4574   -1.9149 H         1 <0>         0.0000
@<TRIPOS>BOND
     1    1    2 ar
     2    1    4 ar
     3    1   16 1
     4    2    6 ar
     5    2   17 1
     6    3    5 ar
     7    3    6 ar
     8    3   18 1
     9    4    5 ar
    10    4   13 1
    11    5   14 1
    12    6   15 1
    13    7    8 1
    14    7   11 1
    15    7   19 1
    16    7   20 1
    17    8   12 1
    18    8   21 1
    19    8   22 1
    20    9   10 1
    21    9   12 1
    22    9   11 1
    23    9   23 1
    24   10   13 1
    25   10   24 1
    26   10   25 1
