@<TRIPOS>MOLECULE
*****
   28    30     0     0     0
SMALL
NO_CHARGES

@<TRIPOS>ATOM
      1 C1         -1.5138   -2.3697    0.9178 C.ar      1 <0>         0.0000
      2 C2          0.3861    0.8031    3.4144 C.ar      1 <0>         0.0000
      3 C3          0.6820    0.3004    2.1315 C.ar      1 <0>         0.0000
      4 C4         -2.0283   -3.3391    1.7764 C.ar      1 <0>         0.0000
      5 C5         -1.4481    1.1397    1.2465 C.ar      1 <0>         0.0000
      6 C6          0.2187   -4.2182    2.1088 C.ar      1 <0>         0.0000
      7 C7         -0.1442   -2.3100    0.6256 C.ar      1 <0>         0.0000
      8 C8         -0.8187    1.4604    3.5730 C.ar      1 <0>         0.0000
      9 C9         -1.7098    1.6296    2.5121 C.ar      1 <0>         0.0000
     10 C10        -0.2275    0.4599    1.0887 C.ar      1 <0>         0.0000
     11 C11         0.6922   -3.2478    1.2332 C.ar      1 <0>         0.0000
     12 C12        -1.1520   -4.2540    2.3674 C.ar      1 <0>         0.0000
     13 C13         0.3960   -1.3366   -0.3791 C.2       1 <0>         0.0000
     14 C14        -2.6128    2.5826    4.3387 C.3       1 <0>         0.0000
     15 O1          1.0299   -1.6619   -1.3519 O.2       1 <0>         0.0000
     16 O2         -1.3304    2.0493    4.7087 O.3       1 <0>         0.0000
     17 O3         -2.8152    2.3270    2.9349 O.3       1 <0>         0.0000
     18 O4          0.0712   -0.0124   -0.1927 O.3       1 <0>         0.0000
     19 F1          2.0212   -3.1912    1.0068 F         1 <0>         0.0000
     20 Cl1        -1.7792   -5.4675    3.4609 Cl        1 <0>         0.0000
     21 H1         -2.1879   -1.6530    0.4599 H         1 <0>         0.0000
     22 H2          1.0801    0.6859    4.2401 H         1 <0>         0.0000
     23 H3          1.6246   -0.2064    1.9515 H         1 <0>         0.0000
     24 H4         -3.0910   -3.3848    1.9882 H         1 <0>         0.0000
     25 H5         -2.1321    1.2669    0.4145 H         1 <0>         0.0000
     26 H6          0.9082   -4.9165    2.5705 H         1 <0>         0.0000
     27 H7         -3.3969    2.0770    4.9129 H         1 <0>         0.0000
     28 H8         -2.6208    3.6633    4.5121 H         1 <0>         0.0000
@<TRIPOS>BOND
     1    1    4 ar
     2    1    7 ar
     3    1   21 1
     4    2    3 ar
     5    2    8 ar
     6    2   22 1
     7    3   10 ar
     8    3   23 1
     9    4   12 ar
    10    4   24 1
    11    5    9 ar
    12    5   10 ar
    13    5   25 1
    14    6   11 ar
    15    6   12 ar
    16    6   26 1
    17    7   11 ar
    18    7   13 1
    19    8    9 ar
    20    8   16 1
    21    9   17 1
    22   10   18 1
    23   11   19 1
    24   12   20 1
    25   13   15 2
    26   13   18 1
    27   14   16 1
    28   14   17 1
    29   14   27 1
    30   14   28 1
