@<TRIPOS>MOLECULE
*****
   22    22     0     0     0
SMALL
NO_CHARGES

@<TRIPOS>ATOM
      1 C1          1.7922   -0.6078    0.0785 C.ar      1 <0>         0.0000
      2 C2          1.7776   -0.6793    2.8592 C.ar      1 <0>         0.0000
      3 C3          0.6554   -0.1933    0.7546 C.ar      1 <0>         0.0000
      4 C4          2.9352   -1.0476    0.7600 C.ar      1 <0>         0.0000
      5 C5          0.6544   -0.2122    2.1696 C.ar      1 <0>         0.0000
      6 C6          2.9073   -1.0926    2.1624 C.ar      1 <0>         0.0000
      7 C7         -1.7105   -0.4121    0.1355 C.2       1 <0>         0.0000
      8 C8         -2.8432    0.2436   -0.6324 C.3       1 <0>         0.0000
      9 N1         -0.4933    0.2456    0.0495 N.am      1 <0>         0.0000
     10 N2          4.0926   -1.4612   -0.0298 N.pl3     1 <0>         0.0000
     11 O1          4.0400   -1.2674   -1.2529 O.3       1 <0>         0.0000
     12 O2         -1.8553   -1.4262    0.8032 O.2       1 <0>         0.0000
     13 O3          5.0483   -1.9779    0.5552 O.2       1 <0>         0.0000
     14 O4         -0.4418    0.2656    2.8024 O.3       1 <0>         0.0000
     15 F1          3.9540   -1.5021    2.8876 F         1 <0>         0.0000
     16 H1          1.8090   -0.6134   -1.0051 H         1 <0>         0.0000
     17 H2          1.8050   -0.7051    3.9452 H         1 <0>         0.0000
     18 H3         -3.5016   -0.5346   -1.0210 H         1 <0>         0.0000
     19 H4         -2.4996    0.8773   -1.4555 H         1 <0>         0.0000
     20 H5         -3.4222    0.8631    0.0602 H         1 <0>         0.0000
     21 H6         -0.3964    1.0215   -0.5922 H         1 <0>         0.0000
     22 H7         -0.3745    0.0983    3.7564 H         1 <0>         0.0000
@<TRIPOS>BOND
     1    1    3 ar
     2    1    4 ar
     3    1   16 1
     4    2    5 ar
     5    2    6 ar
     6    2   17 1
     7    3    5 ar
     8    3    9 1
     9    4    6 ar
    10    4   10 1
    11    5   14 1
    12    6   15 1
    13    7    8 1
    14    7    9 am
    15    7   12 2
    16    8   18 1
    17    8   19 1
    18    8   20 1
    19    9   21 1
    20   10   11 1
    21   10   13 2
    22   14   22 1
