@<TRIPOS>MOLECULE
*****
   42    45     0     0     0
SMALL
NO_CHARGES

@<TRIPOS>ATOM
      1 C1         -1.9011   -9.5483   -0.8110 C.ar      1 <0>         0.0000
      2 C2         -1.2476   -8.6291    0.0140 C.ar      1 <0>         0.0000
      3 C3         -3.0257   -9.1469   -1.5488 C.ar      1 <0>         0.0000
      4 C4         -1.6823   -7.2996    0.1133 C.ar      1 <0>         0.0000
      5 C5         -0.1820   -4.6255    2.0761 C.ar      1 <0>         0.0000
      6 C6         -2.4144   -3.7879    2.4218 C.ar      1 <0>         0.0000
      7 C7         -3.4621   -7.8311   -1.4629 C.ar      1 <0>         0.0000
      8 C8         -1.4021   -4.1974    1.5466 C.ar      1 <0>         0.0000
      9 C9         -2.7797   -6.9027   -0.6550 C.ar      1 <0>         0.0000
     10 C10         0.0377   -4.6673    3.4550 C.ar      1 <0>         0.0000
     11 C11        -0.9927   -4.3007    4.3483 C.ar      1 <0>         0.0000
     12 C12        -2.2038   -3.8502    3.7979 C.ar      1 <0>         0.0000
     13 C13        -3.0303   -4.3773   -0.3997 C.2       1 <0>         0.0000
     14 C14        -4.6317   -7.1525   -2.1407 C.3       1 <0>         0.0000
     15 C15         1.3531   -5.1682    6.3228 C.3       1 <0>         0.0000
     16 C16        -4.7691   -5.8368   -1.3482 C.3       1 <0>         0.0000
     17 C17         1.8225   -4.4788    5.0420 C.3       1 <0>         0.0000
     18 C18        -0.1462   -5.4598    6.2536 C.3       1 <0>         0.0000
     19 C19        -1.5930   -4.1385    0.0391 C.3       1 <0>         0.0000
     20 N1         -3.4344   -5.6476   -0.7318 N.am      1 <0>         0.0000
     21 O1         -3.8204   -3.4331   -0.4825 O.2       1 <0>         0.0000
     22 O2          1.2739   -5.1120    3.8691 O.3       1 <0>         0.0000
     23 O3         -0.8717   -4.3387    5.7132 O.3       1 <0>         0.0000
     24 Cl1        -3.4940   -3.3723    4.8815 Cl        1 <0>         0.0000
     25 H1         -1.5519  -10.5756   -0.8656 H         1 <0>         0.0000
     26 H2         -0.3961   -8.9475    0.6099 H         1 <0>         0.0000
     27 H3         -3.5555   -9.8600   -2.1762 H         1 <0>         0.0000
     28 H4         -1.1942   -6.6293    0.8075 H         1 <0>         0.0000
     29 H5          0.6387   -4.9233    1.4286 H         1 <0>         0.0000
     30 H6         -3.3634   -3.4272    2.0400 H         1 <0>         0.0000
     31 H7         -4.4016   -6.9531   -3.1946 H         1 <0>         0.0000
     32 H8         -5.5474   -7.7482   -2.1084 H         1 <0>         0.0000
     33 H9          1.8886   -6.1123    6.4738 H         1 <0>         0.0000
     34 H10         1.5818   -4.5167    7.1737 H         1 <0>         0.0000
     35 H11        -5.0135   -4.9669   -1.9560 H         1 <0>         0.0000
     36 H12        -5.5209   -5.9197   -0.5553 H         1 <0>         0.0000
     37 H13         1.5423   -3.4209    5.0439 H         1 <0>         0.0000
     38 H14         2.9071   -4.5469    4.9300 H         1 <0>         0.0000
     39 H15        -0.3449   -6.3453    5.6417 H         1 <0>         0.0000
     40 H16        -0.5664   -5.6274    7.2478 H         1 <0>         0.0000
     41 H17        -1.3580   -3.1295   -0.3134 H         1 <0>         0.0000
     42 H18        -0.9046   -4.8299   -0.4529 H         1 <0>         0.0000
@<TRIPOS>BOND
     1    1    2 ar
     2    1    3 ar
     3    1   25 1
     4    2    4 ar
     5    2   26 1
     6    3    7 ar
     7    3   27 1
     8    4    9 ar
     9    4   28 1
    10    5    8 ar
    11    5   10 ar
    12    5   29 1
    13    6    8 ar
    14    6   12 ar
    15    6   30 1
    16    7    9 ar
    17    7   14 1
    18    8   19 1
    19    9   20 1
    20   10   11 ar
    21   10   22 1
    22   11   12 ar
    23   11   23 1
    24   12   24 1
    25   13   19 1
    26   13   20 am
    27   13   21 2
    28   14   16 1
    29   14   31 1
    30   14   32 1
    31   15   17 1
    32   15   18 1
    33   15   33 1
    34   15   34 1
    35   16   20 1
    36   16   35 1
    37   16   36 1
    38   17   22 1
    39   17   37 1
    40   17   38 1
    41   18   23 1
    42   18   39 1
    43   18   40 1
    44   19   41 1
    45   19   42 1
