@<TRIPOS>MOLECULE
*****
   38    40     0     0     0
SMALL
NO_CHARGES

@<TRIPOS>ATOM
      1 C1         -3.9832    0.9602   -6.2934 C.2       1 <0>         0.0000
      2 C2          0.6395   -0.0805   -1.6012 C.2       1 <0>         0.0000
      3 C3         -0.7247   -0.0040   -1.3438 C.2       1 <0>         0.0000
      4 C4         -1.9933    1.5693   -5.5190 C.2       1 <0>         0.0000
      5 C5         -1.8101    0.2065   -5.4674 C.2       1 <0>         0.0000
      6 C6         -0.3248   -0.3372   -3.5195 C.2       1 <0>         0.0000
      7 C7          1.8110    0.0879   -0.7021 C.2       1 <0>         0.0000
      8 C8         -1.5814    0.1689   -0.1254 C.3       1 <0>         0.0000
      9 C9          0.3880   -0.2783    1.3934 C.3       1 <0>         0.0000
     10 C10        -0.8528    0.6178    1.1566 C.3       1 <0>         0.0000
     11 C11        -0.9894    2.6063   -5.1055 C.3       1 <0>         0.0000
     12 C12        -1.8139    0.4091    2.3406 C.3       1 <0>         0.0000
     13 C13        -0.4562    2.0997    1.0699 C.3       1 <0>         0.0000
     14 C14        -0.6038   -0.5564   -4.9798 C.3       1 <0>         0.0000
     15 N1         -3.2299    1.9782   -5.9911 N.2       1 <0>         0.0000
     16 N2          0.8587   -0.2806   -2.9599 N.2       1 <0>         0.0000
     17 N3         -1.3190   -0.1743   -2.5804 N.pl3     1 <0>         0.0000
     18 N4          1.5852    0.0976    0.6571 N.am      1 <0>         0.0000
     19 O1          2.9485    0.2500   -1.1419 O.2       1 <0>         0.0000
     20 S1         -3.2514   -0.6004   -6.0291 S.3       1 <0>         0.0000
     21 H1         -4.9902    1.0443   -6.6888 H         1 <0>         0.0000
     22 H2         -2.3788    0.8910   -0.3463 H         1 <0>         0.0000
     23 H3         -2.0865   -0.7861    0.0775 H         1 <0>         0.0000
     24 H4          0.6562   -0.2213    2.4522 H         1 <0>         0.0000
     25 H5          0.1153   -1.3244    1.1928 H         1 <0>         0.0000
     26 H6         -0.7846    3.2869   -5.9380 H         1 <0>         0.0000
     27 H7         -1.3843    3.2101   -4.2814 H         1 <0>         0.0000
     28 H8         -0.0497    2.1572   -4.7794 H         1 <0>         0.0000
     29 H9         -1.3879    0.8132    3.2652 H         1 <0>         0.0000
     30 H10        -2.0241   -0.6549    2.5026 H         1 <0>         0.0000
     31 H11        -2.7696    0.9150    2.1650 H         1 <0>         0.0000
     32 H12         0.1264    2.3983    1.9480 H         1 <0>         0.0000
     33 H13        -1.3521    2.7295    1.0309 H         1 <0>         0.0000
     34 H14         0.1479    2.3105    0.1848 H         1 <0>         0.0000
     35 H15        -0.7322   -1.6274   -5.1736 H         1 <0>         0.0000
     36 H16         0.2932   -0.2532   -5.5268 H         1 <0>         0.0000
     37 H17        -2.3116   -0.1133   -2.7749 H         1 <0>         0.0000
     38 H18         2.4437    0.2143    1.1810 H         1 <0>         0.0000
@<TRIPOS>BOND
     1    1   15 2
     2    1   20 1
     3    1   21 1
     4    2    3 2
     5    2    7 1
     6    2   16 1
     7    3    8 1
     8    3   17 1
     9    4    5 2
    10    4   11 1
    11    4   15 1
    12    5   14 1
    13    5   20 1
    14    6   14 1
    15    6   16 2
    16    6   17 1
    17    7   18 am
    18    7   19 2
    19    8   10 1
    20    8   22 1
    21    8   23 1
    22    9   10 1
    23    9   18 1
    24    9   24 1
    25    9   25 1
    26   10   12 1
    27   10   13 1
    28   11   26 1
    29   11   27 1
    30   11   28 1
    31   12   29 1
    32   12   30 1
    33   12   31 1
    34   13   32 1
    35   13   33 1
    36   13   34 1
    37   14   35 1
    38   14   36 1
    39   17   37 1
    40   18   38 1
