@<TRIPOS>MOLECULE
*****
   25    26     0     0     0
SMALL
NO_CHARGES

@<TRIPOS>ATOM
      1 C1         -2.2457    0.3189   -3.2205 C.ar      1 <0>         0.0000
      2 C2         -3.5627    0.7249   -2.9872 C.ar      1 <0>         0.0000
      3 C3         -2.7327    2.6119   -1.6853 C.ar      1 <0>         0.0000
      4 C4         -1.1630    1.0304   -2.6944 C.ar      1 <0>         0.0000
      5 C5         -3.7784    1.8689   -2.2265 C.ar      1 <0>         0.0000
      6 C6         -1.4365    2.1708   -1.9260 C.ar      1 <0>         0.0000
      7 C7          3.0771   -1.2703   -3.1082 C.3       1 <0>         0.0000
      8 C8          1.9418   -1.6531   -4.0545 C.3       1 <0>         0.0000
      9 C9          2.1942    0.6268   -4.0904 C.3       1 <0>         0.0000
     10 C10         0.9886    1.4341   -3.6296 C.3       1 <0>         0.0000
     11 O1          2.9189    0.1460   -2.9646 O.3       1 <0>         0.0000
     12 O2          1.8330   -0.4910   -4.8890 O.3       1 <0>         0.0000
     13 O3          0.1113    0.5664   -2.8941 O.3       1 <0>         0.0000
     14 F1         -5.0504    2.2817   -1.9965 F         1 <0>         0.0000
     15 F2         -0.4043    2.8683   -1.3931 F         1 <0>         0.0000
     16 H1         -2.0331   -0.5638   -3.8158 H         1 <0>         0.0000
     17 H2         -4.4070    0.1748   -3.3899 H         1 <0>         0.0000
     18 H3         -2.9175    3.4972   -1.0862 H         1 <0>         0.0000
     19 H4          2.9958   -1.7270   -2.1189 H         1 <0>         0.0000
     20 H5          4.0597   -1.4977   -3.5421 H         1 <0>         0.0000
     21 H6          2.1716   -2.5077   -4.6948 H         1 <0>         0.0000
     22 H7          1.0050   -1.8231   -3.5133 H         1 <0>         0.0000
     23 H8          2.8347    1.2765   -4.7044 H         1 <0>         0.0000
     24 H9          0.4689    1.8283   -4.5111 H         1 <0>         0.0000
     25 H10         1.3270    2.2659   -3.0031 H         1 <0>         0.0000
@<TRIPOS>BOND
     1    1    2 ar
     2    1    4 ar
     3    1   16 1
     4    2    5 ar
     5    2   17 1
     6    3    5 ar
     7    3    6 ar
     8    3   18 1
     9    4    6 ar
    10    4   13 1
    11    5   14 1
    12    6   15 1
    13    7    8 1
    14    7   11 1
    15    7   19 1
    16    7   20 1
    17    8   12 1
    18    8   21 1
    19    8   22 1
    20    9   10 1
    21    9   12 1
    22    9   11 1
    23    9   23 1
    24   10   13 1
    25   10   24 1
    26   10   25 1
