@<TRIPOS>MOLECULE
*****
   22    23     0     0     0
SMALL
NO_CHARGES

@<TRIPOS>ATOM
      1 C1          1.6312   -0.2980    0.5029 C.ar      1 <0>         0.0000
      2 C2          2.6454   -0.5604    1.4242 C.ar      1 <0>         0.0000
      3 C3          0.3135   -0.1224    0.9463 C.ar      1 <0>         0.0000
      4 C4          2.3055   -0.6396    2.7767 C.ar      1 <0>         0.0000
      5 C5         -0.0518   -0.1980    2.3016 C.ar      1 <0>         0.0000
      6 C6          0.9831   -0.4631    3.2179 C.ar      1 <0>         0.0000
      7 C7          3.1357   -0.8978    3.9588 C.2       1 <0>         0.0000
      8 C8         -1.4887    0.0083    2.6372 C.2       1 <0>         0.0000
      9 C9          2.1488   -0.8483    5.1315 C.3       1 <0>         0.0000
     10 C10        -3.1174    0.1076    4.3368 C.3       1 <0>         0.0000
     11 O1          4.3352   -1.1089    4.0438 O.2       1 <0>         0.0000
     12 O2         -2.3488    0.2382    1.8024 O.2       1 <0>         0.0000
     13 O3          0.8447   -0.5759    4.5659 O.3       1 <0>         0.0000
     14 O4         -1.7392   -0.0856    3.9578 O.3       1 <0>         0.0000
     15 H1          1.8544   -0.2285   -0.5573 H         1 <0>         0.0000
     16 H2          3.6784   -0.7024    1.1184 H         1 <0>         0.0000
     17 H3         -0.4812    0.0821    0.2353 H         1 <0>         0.0000
     18 H4          2.1088   -1.8027    5.6633 H         1 <0>         0.0000
     19 H5          2.4010   -0.0485    5.8331 H         1 <0>         0.0000
     20 H6         -3.1334    0.0085    5.4218 H         1 <0>         0.0000
     21 H7         -3.7503   -0.6504    3.8694 H         1 <0>         0.0000
     22 H8         -3.4606    1.0992    4.0330 H         1 <0>         0.0000
@<TRIPOS>BOND
     1    1    2 ar
     2    1    3 ar
     3    1   15 1
     4    2    4 ar
     5    2   16 1
     6    3    5 ar
     7    3   17 1
     8    4    6 ar
     9    4    7 1
    10    5    6 ar
    11    5    8 1
    12    6   13 1
    13    7    9 1
    14    7   11 2
    15    8   12 2
    16    8   14 1
    17    9   13 1
    18    9   18 1
    19    9   19 1
    20   10   14 1
    21   10   20 1
    22   10   21 1
    23   10   22 1
