@<TRIPOS>MOLECULE
*****
   21    21     0     0     0
SMALL
NO_CHARGES

@<TRIPOS>ATOM
      1 C1          1.9325   -1.5855   -0.1842 C.ar      1 <0>         0.0000
      2 C2          0.8672   -1.0042    0.5128 C.ar      1 <0>         0.0000
      3 C3          3.1066   -1.9412    0.4826 C.ar      1 <0>         0.0000
      4 C4          2.1419   -1.1232    2.5672 C.ar      1 <0>         0.0000
      5 C5          0.9627   -0.7710    1.8901 C.ar      1 <0>         0.0000
      6 C6          3.1904   -1.7025    1.8572 C.ar      1 <0>         0.0000
      7 C7          0.2258    1.2621    3.1391 C.2       1 <0>         0.0000
      8 C8         -0.1708   -0.1175    2.6596 C.3       1 <0>         0.0000
      9 N1          0.5894    1.5750    4.3342 N.2       1 <0>         0.0000
     10 N2          0.1532    2.2818    2.1860 N.pl3     1 <0>         0.0000
     11 O1          0.5328    0.4477    5.2106 O.3       1 <0>         0.0000
     12 Br1         4.7972   -2.1909    2.7897 Br        1 <0>         0.0000
     13 H1          1.8491   -1.7665   -1.2526 H         1 <0>         0.0000
     14 H2         -0.0458   -0.7410   -0.0164 H         1 <0>         0.0000
     15 H3          3.9362   -2.3940   -0.0504 H         1 <0>         0.0000
     16 H4          2.2254   -0.9387    3.6340 H         1 <0>         0.0000
     17 H5         -1.0524   -0.0194    2.0200 H         1 <0>         0.0000
     18 H6         -0.4408   -0.7231    3.5257 H         1 <0>         0.0000
     19 H7          0.4975    1.9935    1.2743 H         1 <0>         0.0000
     20 H8          0.6100    3.1341    2.4995 H         1 <0>         0.0000
     21 H9          0.7676    0.8499    6.0616 H         1 <0>         0.0000
@<TRIPOS>BOND
     1    1    2 ar
     2    1    3 ar
     3    1   13 1
     4    2    5 ar
     5    2   14 1
     6    3    6 ar
     7    3   15 1
     8    4    5 ar
     9    4    6 ar
    10    4   16 1
    11    5    8 1
    12    6   12 1
    13    7    8 1
    14    7    9 2
    15    7   10 1
    16    8   17 1
    17    8   18 1
    18    9   11 1
    19   10   19 1
    20   10   20 1
    21   11   21 1
