@<TRIPOS>MOLECULE
*****
   25    26     0     0     0
SMALL
NO_CHARGES

@<TRIPOS>ATOM
      1 C1         -0.3219   -7.8210   -3.0318 C.ar      1 <0>         0.0000
      2 C2         -0.9717   -7.5508   -4.2425 C.ar      1 <0>         0.0000
      3 C3         -1.5806   -5.3412   -3.3950 C.ar      1 <0>         0.0000
      4 C4         -0.9436   -5.6195   -2.1792 C.ar      1 <0>         0.0000
      5 C5         -0.3155   -6.8683   -2.0259 C.ar      1 <0>         0.0000
      6 C6         -1.5886   -6.3126   -4.3994 C.ar      1 <0>         0.0000
      7 C7          1.1646   -2.5282   -1.7423 C.3       1 <0>         0.0000
      8 C8          0.5562   -2.2972   -3.1272 C.3       1 <0>         0.0000
      9 C9         -1.1016   -2.3523   -1.4996 C.3       1 <0>         0.0000
     10 C10        -1.7334   -3.6527   -0.9986 C.3       1 <0>         0.0000
     11 O1          0.1278   -2.0665   -0.8631 O.3       1 <0>         0.0000
     12 O2         -0.8580   -2.4172   -2.9017 O.3       1 <0>         0.0000
     13 O3         -0.8543   -4.7756   -1.1123 O.3       1 <0>         0.0000
     14 F1          0.3110   -7.1379   -0.8571 F         1 <0>         0.0000
     15 Br1        -2.4654   -5.9068   -6.0589 Br        1 <0>         0.0000
     16 H1          0.1745   -8.7712   -2.8599 H         1 <0>         0.0000
     17 H2         -0.9881   -8.2877   -5.0375 H         1 <0>         0.0000
     18 H3         -2.0197   -4.3686   -3.5713 H         1 <0>         0.0000
     19 H4          1.3785   -3.5857   -1.5578 H         1 <0>         0.0000
     20 H5          2.0561   -1.9272   -1.5525 H         1 <0>         0.0000
     21 H6          0.7772   -1.2947   -3.5114 H         1 <0>         0.0000
     22 H7          0.8563   -3.0488   -3.8620 H         1 <0>         0.0000
     23 H8         -1.7902   -1.5243   -1.2810 H         1 <0>         0.0000
     24 H9         -2.6820   -3.8343   -1.5154 H         1 <0>         0.0000
     25 H10        -1.9315   -3.5461    0.0714 H         1 <0>         0.0000
@<TRIPOS>BOND
     1    1    2 ar
     2    1    5 ar
     3    1   16 1
     4    2    6 ar
     5    2   17 1
     6    3    4 ar
     7    3    6 ar
     8    3   18 1
     9    4    5 ar
    10    4   13 1
    11    5   14 1
    12    6   15 1
    13    7    8 1
    14    7   11 1
    15    7   19 1
    16    7   20 1
    17    8   12 1
    18    8   21 1
    19    8   22 1
    20    9   10 1
    21    9   12 1
    22    9   11 1
    23    9   23 1
    24   10   13 1
    25   10   24 1
    26   10   25 1
