@<TRIPOS>MOLECULE
*****
   37    40     0     0     0
SMALL
NO_CHARGES

@<TRIPOS>ATOM
      1 C1          4.7373   -2.8934   -1.5764 C.ar      1 <0>         0.0000
      2 C2          4.8172   -1.8396   -0.6573 C.ar      1 <0>         0.0000
      3 C3          3.7185   -3.8517   -1.4989 C.ar      1 <0>         0.0000
      4 C4          3.7397   -7.7115   -3.3720 C.ar      1 <0>         0.0000
      5 C5          4.6004   -8.2281   -4.3537 C.ar      1 <0>         0.0000
      6 C6          3.8678   -1.7142    0.3666 C.ar      1 <0>         0.0000
      7 C7          1.7731   -8.5768   -4.5341 C.ar      1 <0>         0.0000
      8 C8          2.7733   -3.7351   -0.4734 C.ar      1 <0>         0.0000
      9 C9          2.3441   -7.8683   -3.4463 C.ar      1 <0>         0.0000
     10 C10         4.0151   -8.9044   -5.4101 C.ar      1 <0>         0.0000
     11 C11         2.6335   -9.0709   -5.4932 C.ar      1 <0>         0.0000
     12 C12         2.8687   -2.6707    0.4266 C.ar      1 <0>         0.0000
     13 C13         1.5781   -4.5600   -0.1249 C.2       1 <0>         0.0000
     14 C14         1.4803   -7.2814   -2.3976 C.2       1 <0>         0.0000
     15 C15         3.5647  -10.0439   -7.2961 C.3       1 <0>         0.0000
     16 C16         0.1551   -7.9192   -2.0455 C.3       1 <0>         0.0000
     17 N1          0.8453   -4.1841    0.8888 N.2       1 <0>         0.0000
     18 N2          1.9345   -6.2221   -1.8075 N.2       1 <0>         0.0000
     19 N3          1.1884   -5.6734   -0.8069 N.pl3     1 <0>         0.0000
     20 O1          1.9811   -3.0842    2.9325 O.2       1 <0>         0.0000
     21 O2          0.5741   -1.6593    1.3891 O.2       1 <0>         0.0000
     22 O3          4.6250   -9.5022   -6.4859 O.3       1 <0>         0.0000
     23 O4          2.3164   -9.7751   -6.6332 O.3       1 <0>         0.0000
     24 S1          1.4926   -2.7807    1.5873 S.o2      1 <0>         0.0000
     25 H1          5.4778   -2.9697   -2.3678 H         1 <0>         0.0000
     26 H2          5.6181   -1.1100   -0.7400 H         1 <0>         0.0000
     27 H3          3.6544   -4.6615   -2.2128 H         1 <0>         0.0000
     28 H4          4.1579   -7.1917   -2.5171 H         1 <0>         0.0000
     29 H5          5.6775   -8.1151   -4.2829 H         1 <0>         0.0000
     30 H6          3.9098   -0.8990    1.0827 H         1 <0>         0.0000
     31 H7          0.7018   -8.7057   -4.6435 H         1 <0>         0.0000
     32 H8          3.5699   -9.5511   -8.2742 H         1 <0>         0.0000
     33 H9          3.6998  -11.1261   -7.3899 H         1 <0>         0.0000
     34 H10         0.1262   -8.1865   -0.9816 H         1 <0>         0.0000
     35 H11        -0.6830   -7.2391   -2.2411 H         1 <0>         0.0000
     36 H12        -0.0145   -8.8386   -2.6033 H         1 <0>         0.0000
     37 H13         0.3372   -6.1138   -0.4620 H         1 <0>         0.0000
@<TRIPOS>BOND
     1    1    2 ar
     2    1    3 ar
     3    1   25 1
     4    2    6 ar
     5    2   26 1
     6    3    8 ar
     7    3   27 1
     8    4    5 ar
     9    4    9 ar
    10    4   28 1
    11    5   10 ar
    12    5   29 1
    13    6   12 ar
    14    6   30 1
    15    7    9 ar
    16    7   11 ar
    17    7   31 1
    18    8   12 ar
    19    8   13 1
    20    9   14 1
    21   10   11 ar
    22   10   22 1
    23   11   23 1
    24   12   24 1
    25   13   17 2
    26   13   19 1
    27   14   16 1
    28   14   18 2
    29   15   22 1
    30   15   23 1
    31   15   32 1
    32   15   33 1
    33   16   34 1
    34   16   35 1
    35   16   36 1
    36   17   24 1
    37   18   19 1
    38   19   37 1
    39   20   24 2
    40   21   24 2
