@<TRIPOS>MOLECULE
*****
   25    26     0     0     0
SMALL
NO_CHARGES

@<TRIPOS>ATOM
      1 C1         -0.7395   -1.4985   -5.0397 C.ar      1 <0>         0.0000
      2 C2         -1.3437   -1.9913   -6.1976 C.ar      1 <0>         0.0000
      3 C3         -3.0806   -0.3041   -5.9945 C.ar      1 <0>         0.0000
      4 C4         -1.2846   -0.4181   -4.3359 C.ar      1 <0>         0.0000
      5 C5         -2.4647    0.1523   -4.8346 C.ar      1 <0>         0.0000
      6 C6         -2.5081   -1.3830   -6.6689 C.ar      1 <0>         0.0000
      7 C7          1.6600    0.1417   -0.5348 C.3       1 <0>         0.0000
      8 C8          2.1944   -0.2268   -1.9160 C.3       1 <0>         0.0000
      9 C9          0.7757    1.5694   -2.1172 C.3       1 <0>         0.0000
     10 C10        -0.4554    1.3890   -2.9940 C.3       1 <0>         0.0000
     11 O1          0.5488    0.9925   -0.8375 O.3       1 <0>         0.0000
     12 O2          1.9352    0.9631   -2.6733 O.3       1 <0>         0.0000
     13 O3         -0.6775   -0.0188   -3.1805 O.3       1 <0>         0.0000
     14 F1         -3.0406    1.1811   -4.1608 F         1 <0>         0.0000
     15 Br1        -3.3432   -2.0368   -8.2646 Br        1 <0>         0.0000
     16 H1          0.1742   -1.9447   -4.6593 H         1 <0>         0.0000
     17 H2         -0.9064   -2.8293   -6.7296 H         1 <0>         0.0000
     18 H3         -3.9922    0.1731   -6.3375 H         1 <0>         0.0000
     19 H4          1.2907   -0.7124    0.0374 H         1 <0>         0.0000
     20 H5          2.4076    0.6885    0.0550 H         1 <0>         0.0000
     21 H6          3.2703   -0.4144   -1.9377 H         1 <0>         0.0000
     22 H7          1.6517   -1.0773   -2.3431 H         1 <0>         0.0000
     23 H8          0.9811    2.6460   -2.0197 H         1 <0>         0.0000
     24 H9         -0.2751    1.8740   -3.9593 H         1 <0>         0.0000
     25 H10        -1.3197    1.8537   -2.5105 H         1 <0>         0.0000
@<TRIPOS>BOND
     1    1    2 ar
     2    1    4 ar
     3    1   16 1
     4    2    6 ar
     5    2   17 1
     6    3    5 ar
     7    3    6 ar
     8    3   18 1
     9    4    5 ar
    10    4   13 1
    11    5   14 1
    12    6   15 1
    13    7    8 1
    14    7   11 1
    15    7   19 1
    16    7   20 1
    17    8   12 1
    18    8   21 1
    19    8   22 1
    20    9   10 1
    21    9   12 1
    22    9   11 1
    23    9   23 1
    24   10   13 1
    25   10   24 1
    26   10   25 1
