@<TRIPOS>MOLECULE
*****
   27    29     0     0     0
SMALL
NO_CHARGES

@<TRIPOS>ATOM
      1 C1          8.3498   -4.7305   -2.9256 C.ar      1 <0>         0.0000
      2 C2          8.3630   -5.9997   -2.3398 C.ar      1 <0>         0.0000
      3 C3          7.5494   -3.7284   -2.3812 C.ar      1 <0>         0.0000
      4 C4          2.1277   -2.3556    0.9316 C.ar      1 <0>         0.0000
      5 C5          0.8706   -2.0931    1.4586 C.ar      1 <0>         0.0000
      6 C6          7.5873   -6.2563   -1.2072 C.ar      1 <0>         0.0000
      7 C7          1.2695    0.2850    1.1511 C.ar      1 <0>         0.0000
      8 C8          2.9887   -1.3223    0.5064 C.ar      1 <0>         0.0000
      9 C9          6.7499   -3.9670   -1.2483 C.ar      1 <0>         0.0000
     10 C10         0.4513   -0.7637    1.5657 C.ar      1 <0>         0.0000
     11 C11         2.5333    0.0062    0.6228 C.ar      1 <0>         0.0000
     12 C12         6.7903   -5.2452   -0.6654 C.ar      1 <0>         0.0000
     13 C13         5.9221   -2.8582   -0.7394 C.2       1 <0>         0.0000
     14 C14         4.2862   -1.7458   -0.0252 C.2       1 <0>         0.0000
     15 N1          4.6139   -2.9775   -0.3284 N.2       1 <0>         0.0000
     16 N2          6.3884   -1.6248   -0.7006 N.2       1 <0>         0.0000
     17 O1          5.2984   -0.8760   -0.2252 O.3       1 <0>         0.0000
     18 Cl1        -1.1263   -0.4035    2.2275 Cl        1 <0>         0.0000
     19 Cl2         3.4818    1.3786    0.1050 Cl        1 <0>         0.0000
     20 Br1         5.8277   -5.6626    0.9394 Br        1 <0>         0.0000
     21 H1          8.9546   -4.5239   -3.8038 H         1 <0>         0.0000
     22 H2          8.9787   -6.7922   -2.7564 H         1 <0>         0.0000
     23 H3          7.5223   -2.7405   -2.8302 H         1 <0>         0.0000
     24 H4          2.4794   -3.3775    0.8376 H         1 <0>         0.0000
     25 H5          0.2248   -2.9015    1.7842 H         1 <0>         0.0000
     26 H6          7.6063   -7.2338   -0.7369 H         1 <0>         0.0000
     27 H7          0.9329    1.3123    1.2317 H         1 <0>         0.0000
@<TRIPOS>BOND
     1    1    2 ar
     2    1    3 ar
     3    1   21 1
     4    2    6 ar
     5    2   22 1
     6    3    9 ar
     7    3   23 1
     8    4    5 ar
     9    4    8 ar
    10    4   24 1
    11    5   10 ar
    12    5   25 1
    13    6   12 ar
    14    6   26 1
    15    7   10 ar
    16    7   11 ar
    17    7   27 1
    18    8   11 ar
    19    8   14 1
    20    9   12 ar
    21    9   13 1
    22   10   18 1
    23   11   19 1
    24   12   20 1
    25   13   15 1
    26   13   16 2
    27   14   15 2
    28   14   17 1
    29   16   17 1
