@<TRIPOS>MOLECULE
*****
   30    32     0     0     0
SMALL
NO_CHARGES

@<TRIPOS>ATOM
      1 C1         -4.4642    2.5101    0.5759 C.ar      1 <0>         0.0000
      2 C2         -4.3196    3.7455    1.2351 C.ar      1 <0>         0.0000
      3 C3         -3.3912    1.6246    0.4785 C.ar      1 <0>         0.0000
      4 C4         -3.1060    4.1315    1.8115 C.ar      1 <0>         0.0000
      5 C5         -0.0364    2.1463    1.7993 C.2       1 <0>         0.0000
      6 C6         -2.1632    1.9897    1.0479 C.ar      1 <0>         0.0000
      7 C7         -0.8783    1.3168    1.1222 C.2       1 <0>         0.0000
      8 C8         -2.0370    3.2377    1.7069 C.ar      1 <0>         0.0000
      9 C9         -0.1564    4.4011    2.8798 C.2       1 <0>         0.0000
     10 C10         0.8245   -0.6696    0.7451 C.3       1 <0>         0.0000
     11 C11         0.0637   -1.9946    0.9974 C.3       1 <0>         0.0000
     12 C12        -0.5717   -0.0274    0.5499 C.3       1 <0>         0.0000
     13 C13         1.2991    4.2632    3.2844 C.3       1 <0>         0.0000
     14 N1         -0.7068    3.3304    2.1720 N.am      1 <0>         0.0000
     15 N2         -1.1667   -1.2004    1.2708 N.3       1 <0>         0.0000
     16 O1         -0.8190    5.3916    3.1548 O.2       1 <0>         0.0000
     17 H1         -5.4246    2.2457    0.1412 H         1 <0>         0.0000
     18 H2         -5.1705    4.4184    1.2998 H         1 <0>         0.0000
     19 H3         -3.5065    0.6697   -0.0279 H         1 <0>         0.0000
     20 H4         -2.9931    5.0804    2.3183 H         1 <0>         0.0000
     21 H5          1.0026    2.0041    2.0524 H         1 <0>         0.0000
     22 H6          1.3251   -0.3109    1.6473 H         1 <0>         0.0000
     23 H7          1.5129   -0.6295   -0.1009 H         1 <0>         0.0000
     24 H8          0.0097   -2.6136    0.0902 H         1 <0>         0.0000
     25 H9          0.3902   -2.6168    1.8368 H         1 <0>         0.0000
     26 H10        -0.8369   -0.0298   -0.5195 H         1 <0>         0.0000
     27 H11         1.9468    4.1532    2.4090 H         1 <0>         0.0000
     28 H12         1.4515    3.3931    3.9304 H         1 <0>         0.0000
     29 H13         1.5799    5.1658    3.8262 H         1 <0>         0.0000
     30 H14        -2.0182   -1.5675    0.8491 H         1 <0>         0.0000
@<TRIPOS>BOND
     1    1    2 ar
     2    1    3 ar
     3    1   17 1
     4    2    4 ar
     5    2   18 1
     6    3    6 ar
     7    3   19 1
     8    4    8 ar
     9    4   20 1
    10    5    7 2
    11    5   14 1
    12    5   21 1
    13    6    7 1
    14    6    8 ar
    15    7   12 1
    16    8   14 1
    17    9   13 1
    18    9   14 am
    19    9   16 2
    20   10   11 1
    21   10   12 1
    22   10   22 1
    23   10   23 1
    24   11   15 1
    25   11   24 1
    26   11   25 1
    27   12   15 1
    28   12   26 1
    29   13   27 1
    30   13   28 1
    31   13   29 1
    32   15   30 1
