@<TRIPOS>MOLECULE
*****
   26    26     0     0     0
SMALL
NO_CHARGES

@<TRIPOS>ATOM
      1 C1          1.8792   -0.9169    0.3790 C.ar      1 <0>         0.0000
      2 C2          0.8155   -0.3244    1.0505 C.ar      1 <0>         0.0000
      3 C3          1.7687   -1.0823    3.1542 C.ar      1 <0>         0.0000
      4 C4          2.9094   -1.5892    1.0543 C.ar      1 <0>         0.0000
      5 C5          0.7657   -0.4039    2.4480 C.ar      1 <0>         0.0000
      6 C6          2.8360   -1.6775    2.4606 C.ar      1 <0>         0.0000
      7 C7          4.0128   -2.1920    0.2644 C.2       1 <0>         0.0000
      8 C8         -0.3941    0.1680    4.4660 C.3       1 <0>         0.0000
      9 C9          3.7936   -2.4712    4.5080 C.3       1 <0>         0.0000
     10 N1          5.2364   -1.9259    0.5853 N.2       1 <0>         0.0000
     11 N2          3.6401   -2.9308   -0.8544 N.pl3     1 <0>         0.0000
     12 O1          6.1230   -2.6104   -0.3137 O.3       1 <0>         0.0000
     13 O2         -0.3028    0.2068    3.0461 O.3       1 <0>         0.0000
     14 O3          3.8149   -2.3866    3.0894 O.3       1 <0>         0.0000
     15 H1          1.9344   -0.8465   -0.7034 H         1 <0>         0.0000
     16 H2          0.0308    0.2060    0.5208 H         1 <0>         0.0000
     17 H3          1.7195   -1.1568    4.2310 H         1 <0>         0.0000
     18 H4         -1.3008    0.7178    4.7216 H         1 <0>         0.0000
     19 H5          0.4694    0.6547    4.9363 H         1 <0>         0.0000
     20 H6         -0.4801   -0.8620    4.8344 H         1 <0>         0.0000
     21 H7          4.6736   -3.0550    4.7809 H         1 <0>         0.0000
     22 H8          2.8930   -2.9840    4.8701 H         1 <0>         0.0000
     23 H9          3.8612   -1.4785    4.9701 H         1 <0>         0.0000
     24 H10         2.7850   -3.4617   -0.7421 H         1 <0>         0.0000
     25 H11         4.4034   -3.4602   -1.2626 H         1 <0>         0.0000
     26 H12         6.9910   -2.3668    0.0423 H         1 <0>         0.0000
@<TRIPOS>BOND
     1    1    2 ar
     2    1    4 ar
     3    1   15 1
     4    2    5 ar
     5    2   16 1
     6    3    5 ar
     7    3    6 ar
     8    3   17 1
     9    4    6 ar
    10    4    7 1
    11    5   13 1
    12    6   14 1
    13    7   10 2
    14    7   11 1
    15    8   13 1
    16    8   18 1
    17    8   19 1
    18    8   20 1
    19    9   14 1
    20    9   21 1
    21    9   22 1
    22    9   23 1
    23   10   12 1
    24   11   24 1
    25   11   25 1
    26   12   26 1
