@<TRIPOS>MOLECULE
*****
   20    20     0     0     0
SMALL
NO_CHARGES

@<TRIPOS>ATOM
      1 C1          3.8719   -1.9846    3.3233 C.2       1 <0>         0.0000
      2 C2          5.0609   -1.6864    2.7119 C.2       1 <0>         0.0000
      3 C3          2.7325   -1.4334    2.6448 C.2       1 <0>         0.0000
      4 C4          3.0955   -0.7189    1.5246 C.2       1 <0>         0.0000
      5 C5          1.3169   -1.6188    3.1366 C.3       1 <0>         0.0000
      6 C6          1.8271   -1.0089   -0.6277 C.3       1 <0>         0.0000
      7 C7          2.2050   -0.0471    0.5098 C.3       1 <0>         0.0000
      8 N1          2.9066    1.1145   -0.0647 N.3       1 <0>         0.0000
      9 S1          4.8269   -0.7210    1.2922 S.3       1 <0>         0.0000
     10 H1          3.7984   -2.5778    4.2304 H         1 <0>         0.0000
     11 H2          6.0598   -1.9693    3.0198 H         1 <0>         0.0000
     12 H3          1.0368   -0.8365    3.8529 H         1 <0>         0.0000
     13 H4          0.5891   -1.5954    2.3215 H         1 <0>         0.0000
     14 H5          1.2087   -2.5808    3.6472 H         1 <0>         0.0000
     15 H6          2.7267   -1.3232   -1.1645 H         1 <0>         0.0000
     16 H7          1.3293   -1.8981   -0.2308 H         1 <0>         0.0000
     17 H8          1.1470   -0.5234   -1.3386 H         1 <0>         0.0000
     18 H9          1.2780    0.2415    1.0309 H         1 <0>         0.0000
     19 H10         3.0821    1.8086    0.6603 H         1 <0>         0.0000
     20 H11         2.3203    1.5572   -0.7706 H         1 <0>         0.0000
@<TRIPOS>BOND
     1    1    2 2
     2    1    3 1
     3    1   10 1
     4    2    9 1
     5    2   11 1
     6    3    4 2
     7    3    5 1
     8    4    7 1
     9    4    9 1
    10    5   12 1
    11    5   13 1
    12    5   14 1
    13    6    7 1
    14    6   15 1
    15    6   16 1
    16    6   17 1
    17    7    8 1
    18    7   18 1
    19    8   19 1
    20    8   20 1
