@<TRIPOS>MOLECULE
*****
   42    45     0     0     0
SMALL
NO_CHARGES

@<TRIPOS>ATOM
      1 C1         -1.7915   -2.5855   -4.9250 C.ar      1 <0>         0.0000
      2 C2         -0.8028   -3.0457   -4.0525 C.ar      1 <0>         0.0000
      3 C3         -3.1441   -2.7229   -4.5771 C.ar      1 <0>         0.0000
      4 C4         -1.1308   -3.6389   -2.8245 C.ar      1 <0>         0.0000
      5 C5         -0.6028   -5.5761    2.3619 C.ar      1 <0>         0.0000
      6 C6         -0.8579   -3.1836    2.4354 C.ar      1 <0>         0.0000
      7 C7         -3.4806   -3.3052   -3.3624 C.ar      1 <0>         0.0000
      8 C8         -0.8591   -4.3733    1.7018 C.ar      1 <0>         0.0000
      9 C9         -2.4810   -3.7497   -2.4755 C.ar      1 <0>         0.0000
     10 C10        -0.3566   -5.6087    3.7348 C.ar      1 <0>         0.0000
     11 C11        -0.3947   -4.4166    4.4937 C.ar      1 <0>         0.0000
     12 C12        -0.6345   -3.2145    3.8111 C.ar      1 <0>         0.0000
     13 C13        -2.5935   -4.7020   -0.1055 C.2       1 <0>         0.0000
     14 C14        -4.8450   -3.5559   -2.7609 C.3       1 <0>         0.0000
     15 C15         0.1907   -6.6261    6.7147 C.3       1 <0>         0.0000
     16 C16        -4.5379   -4.5206   -1.5988 C.3       1 <0>         0.0000
     17 C17         0.8455   -6.8959    5.3600 C.3       1 <0>         0.0000
     18 C18        -0.7678   -5.4393    6.6151 C.3       1 <0>         0.0000
     19 C19        -1.1396   -4.3458    0.2193 C.3       1 <0>         0.0000
     20 N1         -3.0930   -4.3195   -1.3320 N.am      1 <0>         0.0000
     21 O1         -3.3150   -5.2897    0.6972 O.2       1 <0>         0.0000
     22 O2         -0.1160   -6.8471    4.2895 O.3       1 <0>         0.0000
     23 O3         -0.1881   -4.3656    5.8484 O.3       1 <0>         0.0000
     24 Cl1        -0.6717   -1.7154    4.7188 Cl        1 <0>         0.0000
     25 H1         -1.5145   -2.1351   -5.8739 H         1 <0>         0.0000
     26 H2          0.2447   -2.9581   -4.3284 H         1 <0>         0.0000
     27 H3         -3.9238   -2.3811   -5.2540 H         1 <0>         0.0000
     28 H4         -0.3371   -4.0130   -2.1922 H         1 <0>         0.0000
     29 H5         -0.5885   -6.5190    1.8235 H         1 <0>         0.0000
     30 H6         -1.0455   -2.2302    1.9508 H         1 <0>         0.0000
     31 H7         -5.2767   -2.6186   -2.3893 H         1 <0>         0.0000
     32 H8         -5.5526   -3.9856   -3.4745 H         1 <0>         0.0000
     33 H9         -0.3699   -7.5038    7.0557 H         1 <0>         0.0000
     34 H10         0.9783   -6.4278    7.4506 H         1 <0>         0.0000
     35 H11        -5.1042   -4.3225   -0.6898 H         1 <0>         0.0000
     36 H12        -4.7084   -5.5653   -1.8817 H         1 <0>         0.0000
     37 H13         1.6431   -6.1725    5.1628 H         1 <0>         0.0000
     38 H14         1.2753   -7.8998    5.3216 H         1 <0>         0.0000
     39 H15        -1.7148   -5.7385    6.1558 H         1 <0>         0.0000
     40 H16        -0.9808   -5.0140    7.5986 H         1 <0>         0.0000
     41 H17        -0.9025   -3.3608   -0.1901 H         1 <0>         0.0000
     42 H18        -0.4961   -5.0677   -0.2972 H         1 <0>         0.0000
@<TRIPOS>BOND
     1    1    2 ar
     2    1    3 ar
     3    1   25 1
     4    2    4 ar
     5    2   26 1
     6    3    7 ar
     7    3   27 1
     8    4    9 ar
     9    4   28 1
    10    5    8 ar
    11    5   10 ar
    12    5   29 1
    13    6    8 ar
    14    6   12 ar
    15    6   30 1
    16    7    9 ar
    17    7   14 1
    18    8   19 1
    19    9   20 1
    20   10   11 ar
    21   10   22 1
    22   11   12 ar
    23   11   23 1
    24   12   24 1
    25   13   19 1
    26   13   20 am
    27   13   21 2
    28   14   16 1
    29   14   31 1
    30   14   32 1
    31   15   17 1
    32   15   18 1
    33   15   33 1
    34   15   34 1
    35   16   20 1
    36   16   35 1
    37   16   36 1
    38   17   22 1
    39   17   37 1
    40   17   38 1
    41   18   23 1
    42   18   39 1
    43   18   40 1
    44   19   41 1
    45   19   42 1
