@<TRIPOS>MOLECULE
*****
   44    46     0     0     0
SMALL
NO_CHARGES

@<TRIPOS>ATOM
      1 C1         -0.9074   -7.5859    3.6781 C.ar      1 <0>         0.0000
      2 C2         -1.7409   -6.7637    4.4413 C.ar      1 <0>         0.0000
      3 C3         -1.5319   -6.3888    1.6971 C.ar      1 <0>         0.0000
      4 C4         -3.7928   -2.5496    1.0676 C.2       1 <0>         0.0000
      5 C5         -0.7905   -7.4173    2.2914 C.ar      1 <0>         0.0000
      6 C6         -2.4892   -5.7362    3.8541 C.ar      1 <0>         0.0000
      7 C7         -2.3572   -5.5722    2.4676 C.ar      1 <0>         0.0000
      8 C8         -4.7562   -3.5813    0.8422 C.2       1 <0>         0.0000
      9 C9         -2.7525   -3.2131    1.7130 C.2       1 <0>         0.0000
     10 C10        -3.9689   -1.1260    0.7593 C.2       1 <0>         0.0000
     11 C11        -1.6983   -1.6412   -1.0568 C.3       1 <0>         0.0000
     12 C12        -1.2090    0.6727   -0.5815 C.3       1 <0>         0.0000
     13 C13        -0.2114   -1.8543   -1.3311 C.3       1 <0>         0.0000
     14 C14         0.2638    0.3850   -0.8446 C.3       1 <0>         0.0000
     15 C15         0.0801   -8.3297    1.4593 C.3       1 <0>         0.0000
     16 C16        -3.3904   -4.8359    4.6616 C.3       1 <0>         0.0000
     17 C17        -6.0905   -3.4455    0.1761 C.3       1 <0>         0.0000
     18 N1         -4.3278   -4.7641    1.2847 N.2       1 <0>         0.0000
     19 N2         -3.1591   -0.2313    0.3030 N.2       1 <0>         0.0000
     20 N3         -3.0911   -4.5281    1.8178 N.pl3     1 <0>         0.0000
     21 N4         -1.8675   -0.5444   -0.0887 N.pl3     1 <0>         0.0000
     22 O1          0.4273   -0.6684   -1.7938 O.3       1 <0>         0.0000
     23 Cl1        -1.2798   -2.6124    2.3635 Cl        1 <0>         0.0000
     24 H1         -0.3394   -8.3725    4.1703 H         1 <0>         0.0000
     25 H2         -1.8118   -6.9229    5.5147 H         1 <0>         0.0000
     26 H3         -1.4754   -6.2130    0.6258 H         1 <0>         0.0000
     27 H4         -4.9602   -0.7289    0.9820 H         1 <0>         0.0000
     28 H5         -2.2253   -1.3966   -1.9941 H         1 <0>         0.0000
     29 H6         -2.1179   -2.5675   -0.6663 H         1 <0>         0.0000
     30 H7         -1.3114    1.4475    0.1820 H         1 <0>         0.0000
     31 H8         -1.6910    1.0314   -1.5052 H         1 <0>         0.0000
     32 H9          0.2794   -2.2120   -0.4135 H         1 <0>         0.0000
     33 H10        -0.0809   -2.6037   -2.1164 H         1 <0>         0.0000
     34 H11         0.7548    1.2644   -1.2690 H         1 <0>         0.0000
     35 H12         0.7654    0.1182    0.0984 H         1 <0>         0.0000
     36 H13        -0.4926   -9.1910    1.0947 H         1 <0>         0.0000
     37 H14         0.4830   -7.8103    0.5848 H         1 <0>         0.0000
     38 H15         0.9216   -8.7170    2.0410 H         1 <0>         0.0000
     39 H16        -2.9978   -3.8137    4.6980 H         1 <0>         0.0000
     40 H17        -4.3908   -4.7840    4.2214 H         1 <0>         0.0000
     41 H18        -3.4828   -5.1974    5.6888 H         1 <0>         0.0000
     42 H19        -5.9863   -3.0658   -0.8459 H         1 <0>         0.0000
     43 H20        -6.5864   -4.4178    0.1404 H         1 <0>         0.0000
     44 H21        -6.7353   -2.7456    0.7196 H         1 <0>         0.0000
@<TRIPOS>BOND
     1    1    2 ar
     2    1    5 ar
     3    1   24 1
     4    2    6 ar
     5    2   25 1
     6    3    5 ar
     7    3    7 ar
     8    3   26 1
     9    4    8 1
    10    4    9 2
    11    4   10 1
    12    5   15 1
    13    6    7 ar
    14    6   16 1
    15    7   20 1
    16    8   17 1
    17    8   18 2
    18    9   20 1
    19    9   23 1
    20   10   19 2
    21   10   27 1
    22   11   13 1
    23   11   21 1
    24   11   28 1
    25   11   29 1
    26   12   14 1
    27   12   21 1
    28   12   30 1
    29   12   31 1
    30   13   22 1
    31   13   32 1
    32   13   33 1
    33   14   22 1
    34   14   34 1
    35   14   35 1
    36   15   36 1
    37   15   37 1
    38   15   38 1
    39   16   39 1
    40   16   40 1
    41   16   41 1
    42   17   42 1
    43   17   43 1
    44   17   44 1
    45   18   20 1
    46   19   21 1
