@<TRIPOS>MOLECULE
*****
   42    45     0     0     0
SMALL
NO_CHARGES

@<TRIPOS>ATOM
      1 C1         -5.9362   -4.3197    5.4386 C.ar      1 <0>         0.0000
      2 C2         -4.5995   -3.9763    5.2243 C.ar      1 <0>         0.0000
      3 C3         -6.8364   -4.3128    4.3619 C.ar      1 <0>         0.0000
      4 C4         -4.1296   -3.6300    3.9490 C.ar      1 <0>         0.0000
      5 C5         -0.8842   -4.9702   -0.0064 C.ar      1 <0>         0.0000
      6 C6         -0.6408   -2.5877   -0.2500 C.ar      1 <0>         0.0000
      7 C7         -6.3818   -3.9752    3.0942 C.ar      1 <0>         0.0000
      8 C8         -1.2707   -3.6795    0.3556 C.ar      1 <0>         0.0000
      9 C9         -5.0289   -3.6487    2.8774 C.ar      1 <0>         0.0000
     10 C10         0.1069   -5.1880   -0.9670 C.ar      1 <0>         0.0000
     11 C11         0.7236   -4.0931   -1.6096 C.ar      1 <0>         0.0000
     12 C12         0.3376   -2.8005   -1.2168 C.ar      1 <0>         0.0000
     13 C13        -3.7083   -3.1427    0.7474 C.2       1 <0>         0.0000
     14 C14        -7.1400   -3.9037    1.7881 C.3       1 <0>         0.0000
     15 C15         2.1084   -6.5905   -3.0240 C.3       1 <0>         0.0000
     16 C16        -6.1639   -3.1511    0.8627 C.3       1 <0>         0.0000
     17 C17         1.7885   -6.7949   -1.5434 C.3       1 <0>         0.0000
     18 C18         1.4969   -5.2819   -3.5259 C.3       1 <0>         0.0000
     19 C19        -2.3547   -3.4699    1.3843 C.3       1 <0>         0.0000
     20 N1         -4.8414   -3.3241    1.5113 N.am      1 <0>         0.0000
     21 O1         -3.8042   -2.7501   -0.4132 O.2       1 <0>         0.0000
     22 O2          0.4082   -6.5020   -1.2552 O.3       1 <0>         0.0000
     23 O3          1.6907   -4.2180   -2.5742 O.3       1 <0>         0.0000
     24 Cl1         1.0963   -1.4211   -1.9865 Cl        1 <0>         0.0000
     25 H1         -6.2797   -4.5781    6.4362 H         1 <0>         0.0000
     26 H2         -3.9048   -3.9619    6.0600 H         1 <0>         0.0000
     27 H3         -7.8829   -4.5647    4.5180 H         1 <0>         0.0000
     28 H4         -3.0951   -3.3376    3.8314 H         1 <0>         0.0000
     29 H5         -1.3353   -5.8436    0.4568 H         1 <0>         0.0000
     30 H6         -0.9263   -1.5722    0.0036 H         1 <0>         0.0000
     31 H7         -7.3422   -4.9126    1.4082 H         1 <0>         0.0000
     32 H8         -8.0988   -3.3871    1.8799 H         1 <0>         0.0000
     33 H9          3.1973   -6.5820   -3.1481 H         1 <0>         0.0000
     34 H10         1.7119   -7.4175   -3.6239 H         1 <0>         0.0000
     35 H11        -6.1212   -3.5384   -0.1544 H         1 <0>         0.0000
     36 H12        -6.3986   -2.0824    0.8071 H         1 <0>         0.0000
     37 H13         1.9345   -7.8367   -1.2475 H         1 <0>         0.0000
     38 H14         2.4291   -6.1662   -0.9169 H         1 <0>         0.0000
     39 H15         1.9790   -4.9429   -4.4457 H         1 <0>         0.0000
     40 H16         0.4265   -5.3995   -3.7207 H         1 <0>         0.0000
     41 H17        -2.4510   -4.3573    2.0149 H         1 <0>         0.0000
     42 H18        -2.0870   -2.6379    2.0461 H         1 <0>         0.0000
@<TRIPOS>BOND
     1    1    2 ar
     2    1    3 ar
     3    1   25 1
     4    2    4 ar
     5    2   26 1
     6    3    7 ar
     7    3   27 1
     8    4    9 ar
     9    4   28 1
    10    5    8 ar
    11    5   10 ar
    12    5   29 1
    13    6    8 ar
    14    6   12 ar
    15    6   30 1
    16    7    9 ar
    17    7   14 1
    18    8   19 1
    19    9   20 1
    20   10   11 ar
    21   10   22 1
    22   11   12 ar
    23   11   23 1
    24   12   24 1
    25   13   19 1
    26   13   20 am
    27   13   21 2
    28   14   16 1
    29   14   31 1
    30   14   32 1
    31   15   17 1
    32   15   18 1
    33   15   33 1
    34   15   34 1
    35   16   20 1
    36   16   35 1
    37   16   36 1
    38   17   22 1
    39   17   37 1
    40   17   38 1
    41   18   23 1
    42   18   39 1
    43   18   40 1
    44   19   41 1
    45   19   42 1
