@<TRIPOS>MOLECULE
*****
   24    24     0     0     0
SMALL
NO_CHARGES

@<TRIPOS>ATOM
      1 C1         -0.5469   -1.1635    0.2651 C.1       1 <0>         0.0000
      2 C2         -4.6722    0.7554    1.2388 C.ar      1 <0>         0.0000
      3 C3         -3.4875    0.7421    3.3444 C.ar      1 <0>         0.0000
      4 C4         -5.8618    1.0385    1.9099 C.ar      1 <0>         0.0000
      5 C5         -4.6771    1.0252    4.0155 C.ar      1 <0>         0.0000
      6 C6         -3.4851    0.6071    1.9561 C.ar      1 <0>         0.0000
      7 C7         -5.8642    1.1734    3.2982 C.ar      1 <0>         0.0000
      8 C8         -2.2303    0.3085    1.2487 C.2       1 <0>         0.0000
      9 C9         -2.6055   -2.0607    1.4088 C.2       1 <0>         0.0000
     10 C10        -1.7692   -0.9187    0.9526 C.2       1 <0>         0.0000
     11 C11        -2.9220   -5.4671    1.5439 C.3       1 <0>         0.0000
     12 N1          0.4487   -1.3672   -0.2952 N.1       1 <0>         0.0000
     13 N2         -2.2851   -3.2984    1.2141 N.2       1 <0>         0.0000
     14 O1         -3.2851   -4.1125    1.7640 O.3       1 <0>         0.0000
     15 F1         -7.0061    1.4471    3.9426 F         1 <0>         0.0000
     16 H1         -4.6860    0.6533    0.1563 H         1 <0>         0.0000
     17 H2         -2.5703    0.6294    3.9176 H         1 <0>         0.0000
     18 H3         -6.7861    1.1540    1.3519 H         1 <0>         0.0000
     19 H4         -4.6792    1.1308    5.0964 H         1 <0>         0.0000
     20 H5         -1.6773    1.1951    0.9434 H         1 <0>         0.0000
     21 H6         -3.5416   -1.7980    1.9362 H         1 <0>         0.0000
     22 H7         -3.6878   -6.1233    1.9646 H         1 <0>         0.0000
     23 H8         -1.9563   -5.6675    2.0150 H         1 <0>         0.0000
     24 H9         -2.8443   -5.6441    0.4686 H         1 <0>         0.0000
@<TRIPOS>BOND
     1    1   10 1
     2    1   12 3
     3    2    4 ar
     4    2    6 ar
     5    2   16 1
     6    3    5 ar
     7    3    6 ar
     8    3   17 1
     9    4    7 ar
    10    4   18 1
    11    5    7 ar
    12    5   19 1
    13    6    8 1
    14    7   15 1
    15    8   10 2
    16    8   20 1
    17    9   10 1
    18    9   13 2
    19    9   21 1
    20   11   14 1
    21   11   22 1
    22   11   23 1
    23   11   24 1
    24   13   14 1
