@<TRIPOS>MOLECULE
*****
   62    65     0     0     0
SMALL
NO_CHARGES

@<TRIPOS>ATOM
      1 C1          0.0963   -9.2818    0.4384 C.ar      1 <0>         0.0000
      2 C2          4.5425   -3.7166    6.7736 C.ar      1 <0>         0.0000
      3 C3         -0.2455   -9.4311    1.7880 C.ar      1 <0>         0.0000
      4 C4          0.6489   -8.0764   -0.0030 C.ar      1 <0>         0.0000
      5 C5          5.3402   -4.4649    5.8991 C.ar      1 <0>         0.0000
      6 C6          3.2255   -3.4150    6.4161 C.ar      1 <0>         0.0000
      7 C7          1.1865   -1.4995    1.4019 C.ar      1 <0>         0.0000
      8 C8         -0.8502   -2.6906    1.0192 C.ar      1 <0>         0.0000
      9 C9         -0.0353   -8.3794    2.6829 C.ar      1 <0>         0.0000
     10 C10         0.8572   -7.0246    0.8963 C.ar      1 <0>         0.0000
     11 C11         4.8193   -4.9047    4.6801 C.ar      1 <0>         0.0000
     12 C12         2.7078   -3.8553    5.1926 C.ar      1 <0>         0.0000
     13 C13         1.7343   -2.6134    2.0349 C.ar      1 <0>         0.0000
     14 C14        -0.3167   -3.8223    1.6363 C.ar      1 <0>         0.0000
     15 C15        -0.1155   -1.5068    0.8820 C.ar      1 <0>         0.0000
     16 C16         0.5145   -7.1656    2.2456 C.ar      1 <0>         0.0000
     17 C17         3.4996   -4.6023    4.3139 C.ar      1 <0>         0.0000
     18 C18         0.9932   -3.8098    2.1610 C.ar      1 <0>         0.0000
     19 C19        -0.0960   -2.2376   -4.3405 C.2       1 <0>         0.0000
     20 C20        -1.9460    1.4421    0.4852 C.3       1 <0>         0.0000
     21 C21        -0.4820    1.0858    0.8578 C.3       1 <0>         0.0000
     22 C22        -2.2048   -0.0597    0.1910 C.3       1 <0>         0.0000
     23 C23        -0.6587   -0.2995    0.1511 C.3       1 <0>         0.0000
     24 C24         0.4192   -1.8515   -5.7077 C.3       1 <0>         0.0000
     25 C25         0.7062   -6.0282    3.2418 C.3       1 <0>         0.0000
     26 C26         2.9661   -5.0820    2.9692 C.3       1 <0>         0.0000
     27 C27        -0.1039   -0.2336   -1.2876 C.3       1 <0>         0.0000
     28 C28        -0.4027   -1.4793   -2.1063 C.3       1 <0>         0.0000
     29 N1          1.5365   -4.9325    2.7815 N.pl3     1 <0>         0.0000
     30 O1         -0.6098   -3.3040   -4.0593 O.2       1 <0>         0.0000
     31 O2          0.0732   -1.2275   -3.4556 O.3       1 <0>         0.0000
     32 H1         -0.0662  -10.0984   -0.2604 H         1 <0>         0.0000
     33 H2          4.9447   -3.3751    7.7239 H         1 <0>         0.0000
     34 H3         -0.6715  -10.3667    2.1420 H         1 <0>         0.0000
     35 H4          0.9145   -7.9498   -1.0495 H         1 <0>         0.0000
     36 H5          6.3646   -4.7085    6.1698 H         1 <0>         0.0000
     37 H6          2.5986   -2.8345    7.0884 H         1 <0>         0.0000
     38 H7          1.7872   -0.5949    1.3290 H         1 <0>         0.0000
     39 H8         -1.8580   -2.7498    0.6153 H         1 <0>         0.0000
     40 H9         -0.2990   -8.5035    3.7322 H         1 <0>         0.0000
     41 H10         1.2834   -6.0885    0.5481 H         1 <0>         0.0000
     42 H11         5.4432   -5.4911    4.0072 H         1 <0>         0.0000
     43 H12         1.6852   -3.6169    4.9155 H         1 <0>         0.0000
     44 H13         2.7290   -2.5399    2.4617 H         1 <0>         0.0000
     45 H14        -0.9128   -4.7276    1.6742 H         1 <0>         0.0000
     46 H15        -2.0109    2.0631   -0.4126 H         1 <0>         0.0000
     47 H16        -2.5556    1.9018    1.2675 H         1 <0>         0.0000
     48 H17         0.3093    1.7367    0.4715 H         1 <0>         0.0000
     49 H18        -0.3486    0.9685    1.9368 H         1 <0>         0.0000
     50 H19        -2.6694   -0.5638    1.0426 H         1 <0>         0.0000
     51 H20        -2.7728   -0.3041   -0.7121 H         1 <0>         0.0000
     52 H21        -0.2329   -1.0854   -6.1393 H         1 <0>         0.0000
     53 H22         0.4250   -2.7281   -6.3551 H         1 <0>         0.0000
     54 H23         1.4229   -1.4252   -5.6336 H         1 <0>         0.0000
     55 H24        -0.2710   -5.6330    3.5398 H         1 <0>         0.0000
     56 H25         1.1529   -6.4299    4.1592 H         1 <0>         0.0000
     57 H26         3.4900   -4.5615    2.1602 H         1 <0>         0.0000
     58 H27         3.2156   -6.1427    2.8455 H         1 <0>         0.0000
     59 H28         0.9822   -0.0892   -1.2452 H         1 <0>         0.0000
     60 H29        -0.5220    0.6386   -1.8044 H         1 <0>         0.0000
     61 H30         0.1037   -2.3617   -1.7109 H         1 <0>         0.0000
     62 H31        -1.4734   -1.6993   -2.1484 H         1 <0>         0.0000
@<TRIPOS>BOND
     1    1    4 ar
     2    1    3 ar
     3    1   32 1
     4    2    6 ar
     5    2    5 ar
     6    2   33 1
     7    3    9 ar
     8    3   34 1
     9    4   10 ar
    10    4   35 1
    11    5   11 ar
    12    5   36 1
    13    6   12 ar
    14    6   37 1
    15    7   13 ar
    16    7   15 ar
    17    7   38 1
    18    8   14 ar
    19    8   15 ar
    20    8   39 1
    21    9   16 ar
    22    9   40 1
    23   10   16 ar
    24   10   41 1
    25   11   17 ar
    26   11   42 1
    27   12   17 ar
    28   12   43 1
    29   13   18 ar
    30   13   44 1
    31   14   18 ar
    32   14   45 1
    33   15   23 1
    34   16   25 1
    35   17   26 1
    36   18   29 1
    37   19   24 1
    38   19   30 2
    39   19   31 1
    40   20   22 1
    41   20   21 1
    42   20   46 1
    43   20   47 1
    44   21   23 1
    45   21   48 1
    46   21   49 1
    47   22   23 1
    48   22   50 1
    49   22   51 1
    50   23   27 1
    51   24   52 1
    52   24   53 1
    53   24   54 1
    54   25   29 1
    55   25   55 1
    56   25   56 1
    57   26   29 1
    58   26   57 1
    59   26   58 1
    60   27   28 1
    61   27   59 1
    62   27   60 1
    63   28   31 1
    64   28   61 1
    65   28   62 1
