@<TRIPOS>MOLECULE
*****
   69    73     0     0     0
SMALL
NO_CHARGES

@<TRIPOS>ATOM
      1 C1          5.5193    7.6915   -5.9280 C.ar      1 <0>         0.0000
      2 C2          4.9105    8.2288   -4.7890 C.ar      1 <0>         0.0000
      3 C3          5.7968    6.3208   -5.9926 C.ar      1 <0>         0.0000
      4 C4        -10.5210   -6.1621   -1.2234 C.ar      1 <0>         0.0000
      5 C5         -1.1785    0.5448   -0.2474 C.ar      1 <0>         0.0000
      6 C6          0.3018    3.9106    0.2071 C.ar      1 <0>         0.0000
      7 C7          1.4088    2.0111   -0.8077 C.ar      1 <0>         0.0000
      8 C8          4.5925    7.4012   -3.7101 C.ar      1 <0>         0.0000
      9 C9          5.4699    5.4900   -4.9214 C.ar      1 <0>         0.0000
     10 C10        -9.6084   -5.1930   -1.6326 C.ar      1 <0>         0.0000
     11 C11        -2.4016   -0.1088   -0.3612 C.ar      1 <0>         0.0000
     12 C12         1.5251    4.5674    0.3264 C.ar      1 <0>         0.0000
     13 C13         2.6400    2.6534   -0.6950 C.ar      1 <0>         0.0000
     14 C14        -2.2415    2.6266   -0.8262 C.ar      1 <0>         0.0000
     15 C15       -10.1242   -7.0883   -0.2490 C.ar      1 <0>         0.0000
     16 C16        -8.0337   -6.1710   -0.1020 C.ar      1 <0>         0.0000
     17 C17         0.2262    2.6264   -0.3612 C.ar      1 <0>         0.0000
     18 C18        -1.0762    1.9285   -0.4819 C.ar      1 <0>         0.0000
     19 C19         4.8759    6.0269   -3.7688 C.ar      1 <0>         0.0000
     20 C20        -3.4854    1.9958   -0.9460 C.ar      1 <0>         0.0000
     21 C21        -8.3296   -5.1900   -1.0569 C.ar      1 <0>         0.0000
     22 C22        -3.5396    0.6177   -0.7120 C.ar      1 <0>         0.0000
     23 C23         2.6793    3.9296   -0.1319 C.ar      1 <0>         0.0000
     24 C24         4.5617    5.0772   -2.6582 C.2       1 <0>         0.0000
     25 C25        -4.7279    2.7725   -1.3295 C.3       1 <0>         0.0000
     26 C26        -5.9981    1.9897   -0.9792 C.3       1 <0>         0.0000
     27 C27        -5.8332    0.5485   -1.4477 C.3       1 <0>         0.0000
     28 C28        -7.0361   -0.3252   -1.1124 C.3       1 <0>         0.0000
     29 C29        -7.6341   -2.7926   -0.8308 C.3       1 <0>         0.0000
     30 C30        -7.2951   -4.1575   -1.4341 C.3       1 <0>         0.0000
     31 N1         -8.9051   -7.1003    0.3046 N.ar      1 <0>         0.0000
     32 N2          4.3935    5.6566   -1.3990 N.am      1 <0>         0.0000
     33 N3         -6.6790   -1.7644   -1.3792 N.4       1 <0>         0.0000
     34 O1          4.4363    3.8709   -2.8242 O.2       1 <0>         0.0000
     35 O2          5.3035    3.7515    0.1336 O.2       1 <0>         0.0000
     36 O3          4.1231    5.8169    1.0586 O.2       1 <0>         0.0000
     37 O4         -4.7383   -0.1008   -0.7870 O.3       1 <0>         0.0000
     38 O5         -7.2205   -3.8931   -2.8439 O.3       1 <0>         0.0000
     39 S1          4.2536    4.7561    0.0583 S.o2      1 <0>         0.0000
     40 H1          5.7727    8.3382   -6.7637 H         1 <0>         0.0000
     41 H2          4.6808    9.2897   -4.7427 H         1 <0>         0.0000
     42 H3          6.2680    5.9025   -6.8777 H         1 <0>         0.0000
     43 H4        -11.5198   -6.2085   -1.6465 H         1 <0>         0.0000
     44 H5         -0.3006   -0.0192    0.0523 H         1 <0>         0.0000
     45 H6         -0.5947    4.3850    0.5958 H         1 <0>         0.0000
     46 H7          1.3664    1.0309   -1.2738 H         1 <0>         0.0000
     47 H8          4.0908    7.8324   -2.8477 H         1 <0>         0.0000
     48 H9          5.6713    4.4239   -4.9550 H         1 <0>         0.0000
     49 H10        -9.8750   -4.4660   -2.3963 H         1 <0>         0.0000
     50 H11        -2.4836   -1.1747   -0.1672 H         1 <0>         0.0000
     51 H12         1.5937    5.5455    0.7920 H         1 <0>         0.0000
     52 H13         3.5531    2.1912   -1.0510 H         1 <0>         0.0000
     53 H14        -2.1823    3.6931   -1.0296 H         1 <0>         0.0000
     54 H15       -10.8148   -7.8557    0.0950 H         1 <0>         0.0000
     55 H16        -7.0439   -6.2134    0.3548 H         1 <0>         0.0000
     56 H17        -4.7363    3.7401   -0.8200 H         1 <0>         0.0000
     57 H18        -4.7129    2.9877   -2.4050 H         1 <0>         0.0000
     58 H19        -6.1605    1.9901    0.1044 H         1 <0>         0.0000
     59 H20        -6.8766    2.4399   -1.4528 H         1 <0>         0.0000
     60 H21        -5.6467    0.5325   -2.5331 H         1 <0>         0.0000
     61 H22        -7.9126   -0.0710   -1.7104 H         1 <0>         0.0000
     62 H23        -7.2802   -0.2503   -0.0508 H         1 <0>         0.0000
     63 H24        -7.5574   -2.7959    0.2570 H         1 <0>         0.0000
     64 H25        -8.6395   -2.4866   -1.1254 H         1 <0>         0.0000
     65 H26        -6.3123   -4.4819   -1.0616 H         1 <0>         0.0000
     66 H27         4.6852    6.6139   -1.2213 H         1 <0>         0.0000
     67 H28        -6.6056   -1.9473   -2.3912 H         1 <0>         0.0000
     68 H29        -5.7304   -1.8957   -0.9957 H         1 <0>         0.0000
     69 H30        -7.0752   -4.7258   -3.3240 H         1 <0>         0.0000
@<TRIPOS>BOND
     1    1    3 ar
     2    1    2 ar
     3    1   40 1
     4    2    8 ar
     5    2   41 1
     6    3    9 ar
     7    3   42 1
     8    4   10 ar
     9    4   15 ar
    10    4   43 1
    11    5   11 ar
    12    5   18 ar
    13    5   44 1
    14    6   12 ar
    15    6   17 ar
    16    6   45 1
    17    7   13 ar
    18    7   17 ar
    19    7   46 1
    20    8   19 ar
    21    8   47 1
    22    9   19 ar
    23    9   48 1
    24   10   21 ar
    25   10   49 1
    26   11   22 ar
    27   11   50 1
    28   12   23 ar
    29   12   51 1
    30   13   23 ar
    31   13   52 1
    32   14   18 ar
    33   14   20 ar
    34   14   53 1
    35   15   31 ar
    36   15   54 1
    37   16   21 ar
    38   16   31 ar
    39   16   55 1
    40   17   18 1
    41   19   24 1
    42   20   22 ar
    43   20   25 1
    44   21   30 1
    45   22   37 1
    46   23   39 1
    47   24   32 am
    48   24   34 2
    49   25   26 1
    50   25   56 1
    51   25   57 1
    52   26   27 1
    53   26   58 1
    54   26   59 1
    55   27   28 1
    56   27   37 1
    57   27   60 1
    58   28   33 1
    59   28   61 1
    60   28   62 1
    61   29   30 1
    62   29   33 1
    63   29   63 1
    64   29   64 1
    65   30   38 1
    66   30   65 1
    67   32   39 1
    68   32   66 1
    69   33   67 1
    70   33   68 1
    71   35   39 2
    72   36   39 2
    73   38   69 1
