@<TRIPOS>MOLECULE
*****
   69    73     0     0     0
SMALL
NO_CHARGES

@<TRIPOS>ATOM
      1 C1          3.0929    9.8753    4.6669 C.ar      1 <0>         0.0000
      2 C2          3.5546    8.5841    4.9430 C.ar      1 <0>         0.0000
      3 C3          2.6216   10.1912    3.3871 C.ar      1 <0>         0.0000
      4 C4        -10.0540   -6.5161   -2.3944 C.ar      1 <0>         0.0000
      5 C5         -0.9982    0.3591   -0.3278 C.ar      1 <0>         0.0000
      6 C6          0.5798    3.6587   -0.8958 C.ar      1 <0>         0.0000
      7 C7          1.2613    2.0522    0.7833 C.ar      1 <0>         0.0000
      8 C8          3.5601    7.6138    3.9387 C.ar      1 <0>         0.0000
      9 C9          2.6146    9.2211    2.3853 C.ar      1 <0>         0.0000
     10 C10        -9.1923   -5.4466   -2.6250 C.ar      1 <0>         0.0000
     11 C11        -2.1926   -0.3281   -0.5221 C.ar      1 <0>         0.0000
     12 C12         1.7745    4.3559   -0.7311 C.ar      1 <0>         0.0000
     13 C13         2.4618    2.7376    0.9601 C.ar      1 <0>         0.0000
     14 C14        -2.1737    2.4514   -0.5313 C.ar      1 <0>         0.0000
     15 C15        -9.5968   -7.5908   -1.6194 C.ar      1 <0>         0.0000
     16 C16        -7.5440   -6.6237   -1.3304 C.ar      1 <0>         0.0000
     17 C17         0.3053    2.5022   -0.1447 C.ar      1 <0>         0.0000
     18 C18        -0.9672    1.7658   -0.3353 C.ar      1 <0>         0.0000
     19 C19         3.0947    7.9296    2.6518 C.ar      1 <0>         0.0000
     20 C20        -3.3904    1.7866   -0.7240 C.ar      1 <0>         0.0000
     21 C21        -7.9021   -5.4943   -2.0774 C.ar      1 <0>         0.0000
     22 C22        -3.3729    0.3877   -0.7234 C.ar      1 <0>         0.0000
     23 C23         2.6999    3.8850    0.2013 C.ar      1 <0>         0.0000
     24 C24         3.0679    6.9463    1.5268 C.2       1 <0>         0.0000
     25 C25        -4.6821    2.5533   -0.9206 C.3       1 <0>         0.0000
     26 C26        -5.9017    1.6530   -0.6936 C.3       1 <0>         0.0000
     27 C27        -5.6775    0.3305   -1.4178 C.3       1 <0>         0.0000
     28 C28        -6.8283   -0.6512   -1.2328 C.3       1 <0>         0.0000
     29 C29        -7.3040   -3.1543   -1.4091 C.3       1 <0>         0.0000
     30 C30        -6.9208   -4.3630   -2.2660 C.3       1 <0>         0.0000
     31 N1         -8.3660   -7.6519   -1.0955 N.ar      1 <0>         0.0000
     32 N2          3.9320    5.8572    1.6586 N.am      1 <0>         0.0000
     33 N3         -6.4084   -1.9964   -1.7661 N.4       1 <0>         0.0000
     34 O1          2.3328    7.0595    0.5545 O.2       1 <0>         0.0000
     35 O2          4.5608    5.4472   -0.8396 O.2       1 <0>         0.0000
     36 O3          5.2251    3.8400    1.0288 O.2       1 <0>         0.0000
     37 O4         -4.5380   -0.3680   -0.8976 O.3       1 <0>         0.0000
     38 O5         -6.8894   -3.8330   -3.6006 O.3       1 <0>         0.0000
     39 S1          4.2589    4.7388    0.3952 S.o2      1 <0>         0.0000
     40 H1          3.0965   10.6311    5.4477 H         1 <0>         0.0000
     41 H2          3.9064    8.3324    5.9396 H         1 <0>         0.0000
     42 H3          2.2613   11.1934    3.1723 H         1 <0>         0.0000
     43 H4        -11.0593   -6.5270   -2.8043 H         1 <0>         0.0000
     44 H5         -0.0772   -0.2016   -0.2006 H         1 <0>         0.0000
     45 H6         -0.1329    4.0015   -1.6404 H         1 <0>         0.0000
     46 H7          1.0587    1.1722    1.3869 H         1 <0>         0.0000
     47 H8          3.8927    6.6079    4.1816 H         1 <0>         0.0000
     48 H9          2.2479    9.4450    1.3885 H         1 <0>         0.0000
     49 H10        -9.5064   -4.6013   -3.2329 H         1 <0>         0.0000
     50 H11        -2.2156   -1.4143   -0.5291 H         1 <0>         0.0000
     51 H12         1.9945    5.2457   -1.3091 H         1 <0>         0.0000
     52 H13         3.2083    2.3883    1.6663 H         1 <0>         0.0000
     53 H14        -2.1775    3.5384   -0.5032 H         1 <0>         0.0000
     54 H15       -10.2466   -8.4400   -1.4176 H         1 <0>         0.0000
     55 H16        -6.5432   -6.7065   -0.9039 H         1 <0>         0.0000
     56 H17        -4.7176    3.4060   -0.2368 H         1 <0>         0.0000
     57 H18        -4.7150    2.9678   -1.9356 H         1 <0>         0.0000
     58 H19        -6.0336    1.4493    0.3749 H         1 <0>         0.0000
     59 H20        -6.8142    2.1334   -1.0612 H         1 <0>         0.0000
     60 H21        -5.5134    0.5203   -2.4902 H         1 <0>         0.0000
     61 H22        -7.7295   -0.3373   -1.7616 H         1 <0>         0.0000
     62 H23        -7.0513   -0.7855   -0.1724 H         1 <0>         0.0000
     63 H24        -7.2014   -3.3599   -0.3430 H         1 <0>         0.0000
     64 H25        -8.3285   -2.8461   -1.6246 H         1 <0>         0.0000
     65 H26        -5.9169   -4.7068   -1.9761 H         1 <0>         0.0000
     66 H27         4.6725    5.8611    2.3548 H         1 <0>         0.0000
     67 H28        -6.3465   -1.9844   -2.7953 H         1 <0>         0.0000
     68 H29        -5.4474   -2.1490   -1.4237 H         1 <0>         0.0000
     69 H30        -6.7183   -4.5516   -4.2325 H         1 <0>         0.0000
@<TRIPOS>BOND
     1    1    3 ar
     2    1    2 ar
     3    1   40 1
     4    2    8 ar
     5    2   41 1
     6    3    9 ar
     7    3   42 1
     8    4   10 ar
     9    4   15 ar
    10    4   43 1
    11    5   11 ar
    12    5   18 ar
    13    5   44 1
    14    6   12 ar
    15    6   17 ar
    16    6   45 1
    17    7   13 ar
    18    7   17 ar
    19    7   46 1
    20    8   19 ar
    21    8   47 1
    22    9   19 ar
    23    9   48 1
    24   10   21 ar
    25   10   49 1
    26   11   22 ar
    27   11   50 1
    28   12   23 ar
    29   12   51 1
    30   13   23 ar
    31   13   52 1
    32   14   18 ar
    33   14   20 ar
    34   14   53 1
    35   15   31 ar
    36   15   54 1
    37   16   21 ar
    38   16   31 ar
    39   16   55 1
    40   17   18 1
    41   19   24 1
    42   20   22 ar
    43   20   25 1
    44   21   30 1
    45   22   37 1
    46   23   39 1
    47   24   32 am
    48   24   34 2
    49   25   26 1
    50   25   56 1
    51   25   57 1
    52   26   27 1
    53   26   58 1
    54   26   59 1
    55   27   28 1
    56   27   37 1
    57   27   60 1
    58   28   33 1
    59   28   61 1
    60   28   62 1
    61   29   30 1
    62   29   33 1
    63   29   63 1
    64   29   64 1
    65   30   38 1
    66   30   65 1
    67   32   39 1
    68   32   66 1
    69   33   67 1
    70   33   68 1
    71   35   39 2
    72   36   39 2
    73   38   69 1
