@<TRIPOS>MOLECULE
*****
   74    76     0     0     0
SMALL
NO_CHARGES

@<TRIPOS>ATOM
      1 C1          2.7151    2.1044   -2.7333 C.ar      1 <0>         0.0000
      2 C2          2.2701    1.0562   -1.9219 C.ar      1 <0>         0.0000
      3 C3          0.7742    3.3870   -2.1400 C.ar      1 <0>         0.0000
      4 C4          0.3270    2.3387   -1.3351 C.ar      1 <0>         0.0000
      5 C5          1.9811    3.2877   -2.8473 C.ar      1 <0>         0.0000
      6 C6          1.0688    1.1537   -1.2141 C.ar      1 <0>         0.0000
      7 C7          2.2901    5.8227   -3.1513 C.3       1 <0>         0.0000
      8 C8         -0.7964   -0.5038   -0.7489 C.3       1 <0>         0.0000
      9 C9          3.6861    6.4161   -3.3270 C.3       1 <0>         0.0000
     10 C10        -0.3978   -1.5030   -1.8233 C.3       1 <0>         0.0000
     11 C11         2.4381    4.4050   -3.7802 C.3       1 <0>         0.0000
     12 C12         0.5802    0.0205   -0.3066 C.3       1 <0>         0.0000
     13 C13         1.7150    4.2875   -5.1279 C.3       1 <0>         0.0000
     14 C14         0.6304    0.4459    1.1640 C.3       1 <0>         0.0000
     15 C15         6.0393    5.3469   -5.2178 C.3       1 <0>         0.0000
     16 C16         0.9230   -3.7248   -3.0686 C.3       1 <0>         0.0000
     17 C17         6.8541    4.8491   -1.4216 C.3       1 <0>         0.0000
     18 C18         6.5096    2.9898   -3.0603 C.3       1 <0>         0.0000
     19 C19         8.3325    4.6803   -3.4350 C.3       1 <0>         0.0000
     20 C20         3.9799   -2.4089   -1.0066 C.3       1 <0>         0.0000
     21 C21         2.4574   -4.2533   -0.2302 C.3       1 <0>         0.0000
     22 C22         3.6494   -4.4025   -2.4347 C.3       1 <0>         0.0000
     23 C23         5.9179    5.4050   -3.6865 C.3       1 <0>         0.0000
     24 C24         1.7146   -2.7579   -2.1709 C.3       1 <0>         0.0000
     25 C25         6.8979    4.4706   -2.9143 C.3       1 <0>         0.0000
     26 C26         2.9305   -3.4497   -1.4545 C.3       1 <0>         0.0000
     27 N1          4.5328    5.2277   -3.1946 N.3       1 <0>         0.0000
     28 N2          0.7465   -2.1917   -1.2100 N.3       1 <0>         0.0000
     29 O1          3.8441    4.2818   -4.0839 O.3       1 <0>         0.0000
     30 O2          1.4369   -1.1313   -0.4365 O.3       1 <0>         0.0000
     31 H1          3.6453    2.0103   -3.2821 H         1 <0>         0.0000
     32 H2          2.8603    0.1523   -1.8307 H         1 <0>         0.0000
     33 H3          0.1714    4.2897   -2.2135 H         1 <0>         0.0000
     34 H4         -0.6105    2.4532   -0.7951 H         1 <0>         0.0000
     35 H5          2.0463    5.7479   -2.0904 H         1 <0>         0.0000
     36 H6          1.5168    6.4150   -3.6470 H         1 <0>         0.0000
     37 H7         -1.4539    0.2810   -1.1255 H         1 <0>         0.0000
     38 H8         -1.2882   -1.0167    0.0831 H         1 <0>         0.0000
     39 H9          3.7924    6.9040   -4.3090 H         1 <0>         0.0000
     40 H10         3.9480    7.1315   -2.5426 H         1 <0>         0.0000
     41 H11        -1.1876   -2.2268   -2.0330 H         1 <0>         0.0000
     42 H12        -0.1289   -0.9795   -2.7554 H         1 <0>         0.0000
     43 H13         2.0134    5.1064   -5.7902 H         1 <0>         0.0000
     44 H14         0.6309    4.3193   -4.9834 H         1 <0>         0.0000
     45 H15         1.9685    3.3382   -5.6087 H         1 <0>         0.0000
     46 H16         0.3092   -0.3829    1.8012 H         1 <0>         0.0000
     47 H17        -0.0202    1.3075    1.3419 H         1 <0>         0.0000
     48 H18         1.6505    0.7281    1.4398 H         1 <0>         0.0000
     49 H19         5.9510    4.3264   -5.5948 H         1 <0>         0.0000
     50 H20         7.0009    5.7555   -5.5373 H         1 <0>         0.0000
     51 H21         5.2524    5.9387   -5.6930 H         1 <0>         0.0000
     52 H22         0.4815   -4.5380   -2.4842 H         1 <0>         0.0000
     53 H23         1.5704   -4.1572   -3.8314 H         1 <0>         0.0000
     54 H24         0.1173   -3.2095   -3.5955 H         1 <0>         0.0000
     55 H25         7.1993    5.8789   -1.2646 H         1 <0>         0.0000
     56 H26         5.8360    4.7654   -1.0325 H         1 <0>         0.0000
     57 H27         7.5036    4.1881   -0.8367 H         1 <0>         0.0000
     58 H28         6.4520    2.6810   -4.1090 H         1 <0>         0.0000
     59 H29         5.5406    2.7994   -2.5959 H         1 <0>         0.0000
     60 H30         7.2554    2.3564   -2.5661 H         1 <0>         0.0000
     61 H31         8.4600    4.3022   -4.4539 H         1 <0>         0.0000
     62 H32         9.0454    4.1485   -2.7954 H         1 <0>         0.0000
     63 H33         8.6114    5.7414   -3.4293 H         1 <0>         0.0000
     64 H34         4.3409   -1.8249   -1.8624 H         1 <0>         0.0000
     65 H35         3.5802   -1.7187   -0.2655 H         1 <0>         0.0000
     66 H36         4.8462   -2.9212   -0.5721 H         1 <0>         0.0000
     67 H37         1.7011   -4.9972   -0.5023 H         1 <0>         0.0000
     68 H38         2.0231   -3.5972    0.5270 H         1 <0>         0.0000
     69 H39         3.3055   -4.7867    0.2150 H         1 <0>         0.0000
     70 H40         3.0509   -5.2847   -2.6786 H         1 <0>         0.0000
     71 H41         4.5816   -4.7570   -1.9825 H         1 <0>         0.0000
     72 H42         3.9126   -3.8964   -3.3717 H         1 <0>         0.0000
     73 H43         6.1751    6.4263   -3.3752 H         1 <0>         0.0000
     74 H44         2.1151   -1.9529   -2.8114 H         1 <0>         0.0000
@<TRIPOS>BOND
     1    1    2 ar
     2    1    5 ar
     3    1   31 1
     4    2    6 ar
     5    2   32 1
     6    3    4 ar
     7    3    5 ar
     8    3   33 1
     9    4    6 ar
    10    4   34 1
    11    5   11 1
    12    6   12 1
    13    7    9 1
    14    7   11 1
    15    7   35 1
    16    7   36 1
    17    8   10 1
    18    8   12 1
    19    8   37 1
    20    8   38 1
    21    9   27 1
    22    9   39 1
    23    9   40 1
    24   10   28 1
    25   10   41 1
    26   10   42 1
    27   11   13 1
    28   11   29 1
    29   12   14 1
    30   12   30 1
    31   13   43 1
    32   13   44 1
    33   13   45 1
    34   14   46 1
    35   14   47 1
    36   14   48 1
    37   15   23 1
    38   15   49 1
    39   15   50 1
    40   15   51 1
    41   16   24 1
    42   16   52 1
    43   16   53 1
    44   16   54 1
    45   17   25 1
    46   17   55 1
    47   17   56 1
    48   17   57 1
    49   18   25 1
    50   18   58 1
    51   18   59 1
    52   18   60 1
    53   19   25 1
    54   19   61 1
    55   19   62 1
    56   19   63 1
    57   20   26 1
    58   20   64 1
    59   20   65 1
    60   20   66 1
    61   21   26 1
    62   21   67 1
    63   21   68 1
    64   21   69 1
    65   22   26 1
    66   22   70 1
    67   22   71 1
    68   22   72 1
    69   23   25 1
    70   23   27 1
    71   23   73 1
    72   24   26 1
    73   24   28 1
    74   24   74 1
    75   27   29 1
    76   28   30 1
