@<TRIPOS>MOLECULE
*****
   55    56     0     0     0
SMALL
NO_CHARGES

@<TRIPOS>ATOM
      1 C1         -2.4670    0.1225    1.7956 C.ar      1 <0>         0.0000
      2 C2         -2.6836    1.1950    0.9102 C.ar      1 <0>         0.0000
      3 C3         -1.2971   -0.6162    1.6979 C.ar      1 <0>         0.0000
      4 C4         -1.7356    1.5335   -0.0505 C.ar      1 <0>         0.0000
      5 C5         -0.3279   -0.3000    0.7247 C.ar      1 <0>         0.0000
      6 C6         -0.5514    0.7908   -0.1394 C.ar      1 <0>         0.0000
      7 C7          0.8645   -1.1442    0.5543 C.2       1 <0>         0.0000
      8 C8          1.7008    0.6781   -0.9053 C.3       1 <0>         0.0000
      9 C9          1.7118   -0.8554   -0.7000 C.3       1 <0>         0.0000
     10 C10         3.5752    4.7875   -3.2736 C.3       1 <0>         0.0000
     11 C11         0.9015   -3.6699   -4.5379 C.3       1 <0>         0.0000
     12 C12         4.9102   -2.9498    1.9965 C.3       1 <0>         0.0000
     13 C13         2.5083    1.2048   -2.0866 C.3       1 <0>         0.0000
     14 C14         1.0379   -1.5572   -1.9129 C.3       1 <0>         0.0000
     15 C15         3.1333   -1.4086   -0.4938 C.3       1 <0>         0.0000
     16 C16         3.4403    3.2610   -3.2778 C.3       1 <0>         0.0000
     17 C17         2.6344    2.7330   -2.0858 C.3       1 <0>         0.0000
     18 C18         0.8568   -3.0638   -1.7395 C.3       1 <0>         0.0000
     19 C19         3.9422   -0.6743    0.5741 C.3       1 <0>         0.0000
     20 O1          1.1515   -2.0602    1.3230 O.2       1 <0>         0.0000
     21 O2         -0.3123   -5.2241   -2.7588 O.2       1 <0>         0.0000
     22 O3         -1.3241   -2.9321   -3.2838 O.2       1 <0>         0.0000
     23 O4          6.0403   -2.1013   -0.2647 O.2       1 <0>         0.0000
     24 O5          6.2817   -0.6760    1.8451 O.2       1 <0>         0.0000
     25 O6          0.3495    1.1585   -1.0907 O.3       1 <0>         0.0000
     26 S1         -0.1493   -3.7950   -3.0691 S.o2      1 <0>         0.0000
     27 S2          5.4772   -1.5608    0.9866 S.o2      1 <0>         0.0000
     28 H1         -3.2155   -0.1286    2.5410 H         1 <0>         0.0000
     29 H2         -3.6010    1.7739    0.9780 H         1 <0>         0.0000
     30 H3         -1.1051   -1.4631    2.3497 H         1 <0>         0.0000
     31 H4         -1.8862    2.3657   -0.7312 H         1 <0>         0.0000
     32 H5          2.0719    1.1455    0.0190 H         1 <0>         0.0000
     33 H6          2.5923    5.2708   -3.3106 H         1 <0>         0.0000
     34 H7          4.1528    5.1388   -4.1350 H         1 <0>         0.0000
     35 H8          4.0826    5.1367   -2.3671 H         1 <0>         0.0000
     36 H9          0.3449   -4.1606   -5.3385 H         1 <0>         0.0000
     37 H10         1.0656   -2.6203   -4.7842 H         1 <0>         0.0000
     38 H11         1.8403   -4.1953   -4.3552 H         1 <0>         0.0000
     39 H12         5.8069   -3.5244    2.2352 H         1 <0>         0.0000
     40 H13         4.4495   -2.5610    2.9052 H         1 <0>         0.0000
     41 H14         4.2075   -3.5592    1.4281 H         1 <0>         0.0000
     42 H15         3.5080    0.7587   -2.0637 H         1 <0>         0.0000
     43 H16         2.0344    0.8751   -3.0175 H         1 <0>         0.0000
     44 H17         1.6570   -1.3609   -2.7938 H         1 <0>         0.0000
     45 H18         0.0607   -1.1074   -2.1020 H         1 <0>         0.0000
     46 H19         3.6877   -1.3977   -1.4347 H         1 <0>         0.0000
     47 H20         3.0288   -2.4536   -0.1985 H         1 <0>         0.0000
     48 H21         4.4389    2.8044   -3.2734 H         1 <0>         0.0000
     49 H22         2.9594    2.9379   -4.2104 H         1 <0>         0.0000
     50 H23         3.1150    3.0551   -1.1516 H         1 <0>         0.0000
     51 H24         1.6338    3.1790   -2.0899 H         1 <0>         0.0000
     52 H25         1.7940   -3.6250   -1.7251 H         1 <0>         0.0000
     53 H26         0.2963   -3.3195   -0.8362 H         1 <0>         0.0000
     54 H27         4.3011    0.3057    0.2482 H         1 <0>         0.0000
     55 H28         3.3997   -0.5522    1.5145 H         1 <0>         0.0000
@<TRIPOS>BOND
     1    1    2 ar
     2    1    3 ar
     3    1   28 1
     4    2    4 ar
     5    2   29 1
     6    3    5 ar
     7    3   30 1
     8    4    6 ar
     9    4   31 1
    10    5    6 ar
    11    5    7 1
    12    6   25 1
    13    7    9 1
    14    7   20 2
    15    8    9 1
    16    8   13 1
    17    8   25 1
    18    8   32 1
    19    9   14 1
    20    9   15 1
    21   10   16 1
    22   10   33 1
    23   10   34 1
    24   10   35 1
    25   11   26 1
    26   11   36 1
    27   11   37 1
    28   11   38 1
    29   12   27 1
    30   12   39 1
    31   12   40 1
    32   12   41 1
    33   13   17 1
    34   13   42 1
    35   13   43 1
    36   14   18 1
    37   14   44 1
    38   14   45 1
    39   15   19 1
    40   15   46 1
    41   15   47 1
    42   16   17 1
    43   16   48 1
    44   16   49 1
    45   17   50 1
    46   17   51 1
    47   18   26 1
    48   18   52 1
    49   18   53 1
    50   19   27 1
    51   19   54 1
    52   19   55 1
    53   21   26 2
    54   22   26 2
    55   23   27 2
    56   24   27 2
