@<TRIPOS>MOLECULE
*****
   62    65     0     0     0
SMALL
NO_CHARGES

@<TRIPOS>ATOM
      1 C1          0.4122   -3.5636    7.7510 C.ar      1 <0>         0.0000
      2 C2          0.0976   -6.9182   -0.7276 C.ar      1 <0>         0.0000
      3 C3          1.6104   -3.1875    7.1330 C.ar      1 <0>         0.0000
      4 C4         -0.4356   -4.4739    7.1125 C.ar      1 <0>         0.0000
      5 C5          0.3343   -5.5408   -0.8134 C.ar      1 <0>         0.0000
      6 C6          0.8066   -7.6898    0.1985 C.ar      1 <0>         0.0000
      7 C7          1.7505   -0.9092    1.6946 C.ar      1 <0>         0.0000
      8 C8         -0.4047   -1.8102    2.2299 C.ar      1 <0>         0.0000
      9 C9          1.9595   -3.7193    5.8895 C.ar      1 <0>         0.0000
     10 C10        -0.0847   -5.0002    5.8651 C.ar      1 <0>         0.0000
     11 C11         1.2782   -4.9444    0.0267 C.ar      1 <0>         0.0000
     12 C12         1.7428   -7.0833    1.0431 C.ar      1 <0>         0.0000
     13 C13         2.3558   -2.0672    2.1723 C.ar      1 <0>         0.0000
     14 C14         0.1941   -2.9836    2.6990 C.ar      1 <0>         0.0000
     15 C15         0.3528   -0.7618    1.7008 C.ar      1 <0>         0.0000
     16 C16         1.1149   -4.6324    5.2438 C.ar      1 <0>         0.0000
     17 C17         1.9896   -5.7057    0.9693 C.ar      1 <0>         0.0000
     18 C18         1.5852   -3.1412    2.6554 C.ar      1 <0>         0.0000
     19 C19        -1.0062   -1.9961   -3.1373 C.2       1 <0>         0.0000
     20 C20        -1.2371    2.3542    1.5986 C.3       1 <0>         0.0000
     21 C21         0.2312    1.8537    1.5457 C.3       1 <0>         0.0000
     22 C22        -1.7098    0.8762    1.5554 C.3       1 <0>         0.0000
     23 C23        -0.2843    0.4552    1.0695 C.3       1 <0>         0.0000
     24 C24        -0.9580   -1.7734   -4.6303 C.3       1 <0>         0.0000
     25 C25         1.5010   -5.2484    3.9136 C.3       1 <0>         0.0000
     26 C26         2.9408   -5.0347    1.9444 C.3       1 <0>         0.0000
     27 C27        -0.2075    0.3546   -0.4698 C.3       1 <0>         0.0000
     28 C28        -0.7968   -0.9371   -1.0144 C.3       1 <0>         0.0000
     29 N1          2.2524   -4.3339    3.0549 N.pl3     1 <0>         0.0000
     30 O1         -1.2486   -3.0598   -2.5957 O.2       1 <0>         0.0000
     31 O2         -0.7576   -0.8505   -2.4647 O.3       1 <0>         0.0000
     32 H1          0.1396   -3.1469    8.7175 H         1 <0>         0.0000
     33 H2         -0.6353   -7.3858   -1.3805 H         1 <0>         0.0000
     34 H3          2.2718   -2.4750    7.6202 H         1 <0>         0.0000
     35 H4         -1.3718   -4.7681    7.5805 H         1 <0>         0.0000
     36 H5         -0.2174   -4.9301   -1.5225 H         1 <0>         0.0000
     37 H6          0.6302   -8.7608    0.2657 H         1 <0>         0.0000
     38 H7          2.3742   -0.1022    1.3152 H         1 <0>         0.0000
     39 H8         -1.4888   -1.7354    2.2521 H         1 <0>         0.0000
     40 H9          2.8816   -3.4193    5.4006 H         1 <0>         0.0000
     41 H10        -0.7541   -5.6995    5.3671 H         1 <0>         0.0000
     42 H11         1.4579   -3.8751   -0.0445 H         1 <0>         0.0000
     43 H12         2.2866   -7.6872    1.7674 H         1 <0>         0.0000
     44 H13         3.4394   -2.1515    2.1730 H         1 <0>         0.0000
     45 H14        -0.4382   -3.7808    3.0710 H         1 <0>         0.0000
     46 H15        -1.5213    2.9126    0.7024 H         1 <0>         0.0000
     47 H16        -1.5283    2.9372    2.4759 H         1 <0>         0.0000
     48 H17         0.9195    2.3780    0.8747 H         1 <0>         0.0000
     49 H18         0.6825    1.7932    2.5399 H         1 <0>         0.0000
     50 H19        -1.9256    0.4952    2.5569 H         1 <0>         0.0000
     51 H20        -2.5526    0.6349    0.8999 H         1 <0>         0.0000
     52 H21        -1.8360   -1.1966   -4.9386 H         1 <0>         0.0000
     53 H22        -0.9618   -2.7358   -5.1418 H         1 <0>         0.0000
     54 H23        -0.0715   -1.1969   -4.9057 H         1 <0>         0.0000
     55 H24         2.1592   -6.1055    4.1014 H         1 <0>         0.0000
     56 H25         0.6067   -5.6624    3.4225 H         1 <0>         0.0000
     57 H26         3.6115   -5.7771    2.3893 H         1 <0>         0.0000
     58 H27         3.5656   -4.3068    1.4236 H         1 <0>         0.0000
     59 H28         0.8418    0.4177   -0.7812 H         1 <0>         0.0000
     60 H29        -0.7269    1.2072   -0.9230 H         1 <0>         0.0000
     61 H30        -0.2290   -1.8113   -0.6948 H         1 <0>         0.0000
     62 H31        -1.8364   -1.0825   -0.7042 H         1 <0>         0.0000
@<TRIPOS>BOND
     1    1    4 ar
     2    1    3 ar
     3    1   32 1
     4    2    6 ar
     5    2    5 ar
     6    2   33 1
     7    3    9 ar
     8    3   34 1
     9    4   10 ar
    10    4   35 1
    11    5   11 ar
    12    5   36 1
    13    6   12 ar
    14    6   37 1
    15    7   13 ar
    16    7   15 ar
    17    7   38 1
    18    8   14 ar
    19    8   15 ar
    20    8   39 1
    21    9   16 ar
    22    9   40 1
    23   10   16 ar
    24   10   41 1
    25   11   17 ar
    26   11   42 1
    27   12   17 ar
    28   12   43 1
    29   13   18 ar
    30   13   44 1
    31   14   18 ar
    32   14   45 1
    33   15   23 1
    34   16   25 1
    35   17   26 1
    36   18   29 1
    37   19   24 1
    38   19   30 2
    39   19   31 1
    40   20   22 1
    41   20   21 1
    42   20   46 1
    43   20   47 1
    44   21   23 1
    45   21   48 1
    46   21   49 1
    47   22   23 1
    48   22   50 1
    49   22   51 1
    50   23   27 1
    51   24   52 1
    52   24   53 1
    53   24   54 1
    54   25   29 1
    55   25   55 1
    56   25   56 1
    57   26   29 1
    58   26   57 1
    59   26   58 1
    60   27   28 1
    61   27   59 1
    62   27   60 1
    63   28   31 1
    64   28   61 1
    65   28   62 1
