@<TRIPOS>MOLECULE
*****
   27    29     0     0     0
SMALL
NO_CHARGES

@<TRIPOS>ATOM
      1 C1          0.5879   -0.3895    2.0326 C.ar      1 <0>         0.0000
      2 C2          0.6059   -1.2963    3.1005 C.ar      1 <0>         0.0000
      3 C3         -0.5949   -1.9764    0.6076 C.ar      1 <0>         0.0000
      4 C4          2.0395   -0.9541   -3.0118 C.2       1 <0>         0.0000
      5 C5          0.8639   -1.0149   -2.3014 C.2       1 <0>         0.0000
      6 C6          2.2172    0.5236   -1.4901 C.2       1 <0>         0.0000
      7 C7         -0.0019   -0.7252    0.8101 C.ar      1 <0>         0.0000
      8 C8          0.0148   -2.5539    2.9104 C.ar      1 <0>         0.0000
      9 C9         -0.5629   -2.8586    1.6855 C.ar      1 <0>         0.0000
     10 C10        -1.7184   -4.9651    0.9166 C.3       1 <0>         0.0000
     11 C11         0.0001    0.2699   -0.3035 C.3       1 <0>         0.0000
     12 N1          2.8778    0.0054   -2.5016 N.2       1 <0>         0.0000
     13 N2         -0.1175   -3.6247    3.7544 N.2       1 <0>         0.0000
     14 N3         -0.7576   -4.5879    3.1003 N.2       1 <0>         0.0000
     15 N4          0.9926   -0.0628   -1.3297 N.pl3     1 <0>         0.0000
     16 N5         -1.0237   -4.1307    1.8656 N.pl3     1 <0>         0.0000
     17 H1          1.0436    0.5887    2.1682 H         1 <0>         0.0000
     18 H2          1.0662   -1.0272    4.0455 H         1 <0>         0.0000
     19 H3         -1.0546   -2.2451   -0.3372 H         1 <0>         0.0000
     20 H4          2.3250   -1.5524   -3.8647 H         1 <0>         0.0000
     21 H5         -0.0194   -1.6303   -2.3999 H         1 <0>         0.0000
     22 H6          2.5705    1.3163   -0.8448 H         1 <0>         0.0000
     23 H7         -0.9713   -5.5371    0.3601 H         1 <0>         0.0000
     24 H8         -2.3953   -5.6379    1.4504 H         1 <0>         0.0000
     25 H9         -2.3009   -4.3343    0.2393 H         1 <0>         0.0000
     26 H10        -0.9826    0.3323   -0.7959 H         1 <0>         0.0000
     27 H11         0.2210    1.2860    0.0583 H         1 <0>         0.0000
@<TRIPOS>BOND
     1    1    2 ar
     2    1    7 ar
     3    1   17 1
     4    2    8 ar
     5    2   18 1
     6    3    7 ar
     7    3    9 ar
     8    3   19 1
     9    4    5 2
    10    4   12 1
    11    4   20 1
    12    5   15 1
    13    5   21 1
    14    6   12 2
    15    6   15 1
    16    6   22 1
    17    7   11 1
    18    8    9 ar
    19    8   13 1
    20    9   16 1
    21   10   16 1
    22   10   23 1
    23   10   24 1
    24   10   25 1
    25   11   15 1
    26   11   26 1
    27   11   27 1
    28   13   14 2
    29   14   16 1
