@<TRIPOS>MOLECULE
*****
   45    49     0     0     0
SMALL
NO_CHARGES

@<TRIPOS>ATOM
      1 C1         -2.0470    5.6422    1.1551 C.ar      1 <0>         0.0000
      2 C2          0.2238    4.7225    1.2624 C.ar      1 <0>         0.0000
      3 C3         -2.3393    4.5850    0.2750 C.ar      1 <0>         0.0000
      4 C4         -0.7488    5.6780    1.6299 C.ar      1 <0>         0.0000
      5 C5         -3.4629    4.0870   -0.4676 C.2       1 <0>         0.0000
      6 C6         -7.2563    5.5703   -0.6236 C.ar      1 <0>         0.0000
      7 C7         -1.2889    3.6818   -0.0332 C.ar      1 <0>         0.0000
      8 C8         -6.2614    6.1987    0.1632 C.ar      1 <0>         0.0000
      9 C9         -4.8216    4.6370   -0.5145 C.ar      1 <0>         0.0000
     10 C10        -8.1654    7.4598    0.4723 C.2       1 <0>         0.0000
     11 C11        -0.7030   -0.9675   -0.9453 C.3       1 <0>         0.0000
     12 C12        -0.9593    0.2728    0.8513 C.3       1 <0>         0.0000
     13 C13        -1.5024    0.3305   -0.6119 C.3       1 <0>         0.0000
     14 C14        -8.5618    6.3181   -0.4962 C.3       1 <0>         0.0000
     15 C15        -0.5065   -1.1625    0.5633 C.3       1 <0>         0.0000
     16 C16        -9.0280    6.9142   -1.8378 C.3       1 <0>         0.0000
     17 C17        -9.6674    5.4573    0.1440 C.3       1 <0>         0.0000
     18 C18        -1.1606    1.5673   -1.4318 C.3       1 <0>         0.0000
     19 N1         -0.0334    3.7147    0.4294 N.ar      1 <0>         0.0000
     20 N2         -3.1165    2.9932   -1.1541 N.2       1 <0>         0.0000
     21 N3         -6.9873    4.4954   -1.3279 N.ar      1 <0>         0.0000
     22 N4         -5.0269    5.7594    0.2434 N.ar      1 <0>         0.0000
     23 N5         -5.7267    4.0080   -1.2745 N.ar      1 <0>         0.0000
     24 N6         -1.8134    2.7580   -0.9051 N.pl3     1 <0>         0.0000
     25 N7         -6.8069    7.2993    0.7948 N.am      1 <0>         0.0000
     26 O1         -8.8745    8.3485    0.8971 O.2       1 <0>         0.0000
     27 F1         -0.3726    6.6609    2.4868 F         1 <0>         0.0000
     28 F2          0.7519   -1.5115    0.9807 F         1 <0>         0.0000
     29 F3         -1.3671   -2.1031    1.0862 F         1 <0>         0.0000
     30 H1         -2.7854    6.3794    1.4459 H         1 <0>         0.0000
     31 H2          1.2289    4.8014    1.6709 H         1 <0>         0.0000
     32 H3         -1.2277   -1.7712   -1.4645 H         1 <0>         0.0000
     33 H4          0.2507   -0.7615   -1.4393 H         1 <0>         0.0000
     34 H5         -0.1059    0.9372    1.0071 H         1 <0>         0.0000
     35 H6         -1.6775    0.3877    1.6648 H         1 <0>         0.0000
     36 H7         -2.5804    0.1571   -0.6447 H         1 <0>         0.0000
     37 H8         -9.9116    7.5376   -1.6782 H         1 <0>         0.0000
     38 H9         -9.2755    6.1039   -2.5285 H         1 <0>         0.0000
     39 H10        -8.2470    7.5289   -2.2957 H         1 <0>         0.0000
     40 H11       -10.5560    6.0688    0.3208 H         1 <0>         0.0000
     41 H12        -9.3418    5.0330    1.0987 H         1 <0>         0.0000
     42 H13        -9.9213    4.6337   -0.5283 H         1 <0>         0.0000
     43 H14        -1.4792    1.4469   -2.4705 H         1 <0>         0.0000
     44 H15        -0.0851    1.7607   -1.4120 H         1 <0>         0.0000
     45 H16        -6.3065    7.9241    1.4183 H         1 <0>         0.0000
@<TRIPOS>BOND
     1    1    3 ar
     2    1    4 ar
     3    1   30 1
     4    2    4 ar
     5    2   19 ar
     6    2   31 1
     7    3    5 1
     8    3    7 ar
     9    4   27 1
    10    5    9 1
    11    5   20 2
    12    6    8 ar
    13    6   14 1
    14    6   21 ar
    15    7   19 ar
    16    7   24 1
    17    8   22 ar
    18    8   25 1
    19    9   22 ar
    20    9   23 ar
    21   10   14 1
    22   10   25 am
    23   10   26 2
    24   11   13 1
    25   11   15 1
    26   11   32 1
    27   11   33 1
    28   12   13 1
    29   12   15 1
    30   12   34 1
    31   12   35 1
    32   13   18 1
    33   13   36 1
    34   14   16 1
    35   14   17 1
    36   15   28 1
    37   15   29 1
    38   16   37 1
    39   16   38 1
    40   16   39 1
    41   17   40 1
    42   17   41 1
    43   17   42 1
    44   18   24 1
    45   18   43 1
    46   18   44 1
    47   20   24 1
    48   21   23 ar
    49   25   45 1
