@<TRIPOS>MOLECULE
*****
   30    31     0     0     0
SMALL
NO_CHARGES

@<TRIPOS>ATOM
      1 C1          2.2532    3.2601    2.7578 C.ar      1 <0>         0.0000
      2 C2          1.8532    2.0332    2.2323 C.ar      1 <0>         0.0000
      3 C3          1.7503    4.4655    2.2627 C.ar      1 <0>         0.0000
      4 C4          0.4033    3.2112    0.6680 C.ar      1 <0>         0.0000
      5 C5          0.9227    2.0209    1.1793 C.ar      1 <0>         0.0000
      6 C6          0.8189    4.4374    1.2132 C.ar      1 <0>         0.0000
      7 C7         -0.5659    0.5257   -0.1337 C.2       1 <0>         0.0000
      8 C8          0.7576   -1.4883   -0.1355 C.3       1 <0>         0.0000
      9 C9          1.2683   -0.4815    0.9201 C.3       1 <0>         0.0000
     10 C10        -0.6644   -0.9936   -0.3460 C.3       1 <0>         0.0000
     11 C11         0.6303    6.8246    1.1485 C.3       1 <0>         0.0000
     12 N1          0.5187    0.7600    0.6342 N.am      1 <0>         0.0000
     13 N2         -1.2894   -1.1480   -1.7105 N.4       1 <0>         0.0000
     14 O1         -1.3840    1.2798   -0.6640 O.2       1 <0>         0.0000
     15 O2          0.2588    5.5361    0.6464 O.3       1 <0>         0.0000
     16 H1          2.9692    3.2791    3.5741 H         1 <0>         0.0000
     17 H2          2.2506    1.1174    2.6539 H         1 <0>         0.0000
     18 H3          2.0830    5.4014    2.6951 H         1 <0>         0.0000
     19 H4         -0.3199    3.2220   -0.1361 H         1 <0>         0.0000
     20 H5          1.3436   -1.3786   -1.0549 H         1 <0>         0.0000
     21 H6          0.8297   -2.5224    0.2046 H         1 <0>         0.0000
     22 H7          1.0634   -0.8277    1.9380 H         1 <0>         0.0000
     23 H8          2.3391   -0.2991    0.8228 H         1 <0>         0.0000
     24 H9         -1.3761   -1.4147    0.3696 H         1 <0>         0.0000
     25 H10         0.0659    7.5439    0.5559 H         1 <0>         0.0000
     26 H11         1.7032    7.0043    1.0176 H         1 <0>         0.0000
     27 H12         0.3595    6.9285    2.2050 H         1 <0>         0.0000
     28 H13        -0.5881   -1.1317   -2.4610 H         1 <0>         0.0000
     29 H14        -1.8862   -0.2943   -1.8204 H         1 <0>         0.0000
     30 H15        -1.8570   -1.9953   -1.8175 H         1 <0>         0.0000
@<TRIPOS>BOND
     1    1    2 ar
     2    1    3 ar
     3    1   16 1
     4    2    5 ar
     5    2   17 1
     6    3    6 ar
     7    3   18 1
     8    4    5 ar
     9    4    6 ar
    10    4   19 1
    11    5   12 1
    12    6   15 1
    13    7   10 1
    14    7   12 am
    15    7   14 2
    16    8    9 1
    17    8   10 1
    18    8   20 1
    19    8   21 1
    20    9   12 1
    21    9   22 1
    22    9   23 1
    23   10   13 1
    24   10   24 1
    25   11   15 1
    26   11   25 1
    27   11   26 1
    28   11   27 1
    29   13   28 1
    30   13   29 1
    31   13   30 1
