@<TRIPOS>MOLECULE
*****
   29    30     0     0     0
SMALL
NO_CHARGES

@<TRIPOS>ATOM
      1 C1          0.5640    4.4478   -0.9940 C.ar      1 <0>         0.0000
      2 C2          0.0356    3.2017   -0.6436 C.ar      1 <0>         0.0000
      3 C3          1.9275    4.7163   -0.9123 C.ar      1 <0>         0.0000
      4 C4          2.2892    2.4500   -0.1144 C.ar      1 <0>         0.0000
      5 C5          0.9052    2.1945   -0.1988 C.ar      1 <0>         0.0000
      6 C6          2.7926    3.7059   -0.4706 C.ar      1 <0>         0.0000
      7 C7         -0.7784    0.3566   -0.1822 C.2       1 <0>         0.0000
      8 C8          0.3137   -1.1314    1.3584 C.3       1 <0>         0.0000
      9 C9          1.2912   -0.0484    0.8810 C.3       1 <0>         0.0000
     10 C10        -0.8052   -1.0934    0.3160 C.3       1 <0>         0.0000
     11 C11         5.0454    3.0427    0.0087 C.3       1 <0>         0.0000
     12 N1          0.4268    0.9201    0.1915 N.am      1 <0>         0.0000
     13 N2         -0.4789   -1.9417   -0.8436 N.3       1 <0>         0.0000
     14 O1         -1.6742    0.8754   -0.8382 O.2       1 <0>         0.0000
     15 O2          4.1226    4.0363   -0.4204 O.3       1 <0>         0.0000
     16 H1         -0.1116    5.2269   -1.3373 H         1 <0>         0.0000
     17 H2         -1.0240    3.0071   -0.7237 H         1 <0>         0.0000
     18 H3          2.3397    5.6836   -1.1822 H         1 <0>         0.0000
     19 H4          2.9627    1.6693    0.2096 H         1 <0>         0.0000
     20 H5          0.7916   -2.1114    1.4321 H         1 <0>         0.0000
     21 H6         -0.0853   -0.8642    2.3419 H         1 <0>         0.0000
     22 H7          1.8150    0.4354    1.7096 H         1 <0>         0.0000
     23 H8          2.0321   -0.4584    0.1849 H         1 <0>         0.0000
     24 H9         -1.7938   -1.2978    0.7491 H         1 <0>         0.0000
     25 H10         6.0294    3.5122   -0.0296 H         1 <0>         0.0000
     26 H11         5.0351    2.1702   -0.6568 H         1 <0>         0.0000
     27 H12         4.8392    2.7199    1.0374 H         1 <0>         0.0000
     28 H13        -1.1326   -1.7333   -1.5982 H         1 <0>         0.0000
     29 H14        -0.6162   -2.9208   -0.5968 H         1 <0>         0.0000
@<TRIPOS>BOND
     1    1    2 ar
     2    1    3 ar
     3    1   16 1
     4    2    5 ar
     5    2   17 1
     6    3    6 ar
     7    3   18 1
     8    4    5 ar
     9    4    6 ar
    10    4   19 1
    11    5   12 1
    12    6   15 1
    13    7   10 1
    14    7   12 am
    15    7   14 2
    16    8    9 1
    17    8   10 1
    18    8   20 1
    19    8   21 1
    20    9   12 1
    21    9   22 1
    22    9   23 1
    23   10   13 1
    24   10   24 1
    25   11   15 1
    26   11   25 1
    27   11   26 1
    28   11   27 1
    29   13   28 1
    30   13   29 1
