@<TRIPOS>MOLECULE
*****
   49    51     0     0     0
SMALL
NO_CHARGES

@<TRIPOS>ATOM
      1 C1         -4.8974   -1.2196   -2.6958 C.ar      1 <0>         0.0000
      2 C2         -4.8731   -0.1923   -1.7426 C.ar      1 <0>         0.0000
      3 C3         -3.3934   -1.4852   -0.3363 C.ar      1 <0>         0.0000
      4 C4         -0.0424   -6.7774   -0.0742 C.ar      1 <0>         0.0000
      5 C5         -0.1080   -7.3956    1.1867 C.ar      1 <0>         0.0000
      6 C6         -4.1705   -2.3843   -2.4593 C.ar      1 <0>         0.0000
      7 C7         -3.4247   -2.5068   -1.2819 C.ar      1 <0>         0.0000
      8 C8         -4.1298   -0.3083   -0.5567 C.ar      1 <0>         0.0000
      9 C9         -1.1204   -6.8912    2.0598 C.ar      1 <0>         0.0000
     10 C10        -1.7673   -5.4022    0.4222 C.ar      1 <0>         0.0000
     11 C11         0.8300   -8.4910    1.5444 C.2       1 <0>         0.0000
     12 C12        -4.0136   -3.6260   -3.3115 C.3       1 <0>         0.0000
     13 C13        -2.7055   -3.8392   -1.2625 C.3       1 <0>         0.0000
     14 C14        -3.4978   -4.6931   -2.3079 C.3       1 <0>         0.0000
     15 C15        -4.1452    0.7962    0.4759 C.3       1 <0>         0.0000
     16 C16        -4.6576   -5.4650   -1.6709 C.3       1 <0>         0.0000
     17 C17        -2.3152   -8.6550    3.3976 C.3       1 <0>         0.0000
     18 C18         2.8975   -9.9123    1.0961 C.3       1 <0>         0.0000
     19 C19        -1.3957   -7.4198    3.4446 C.3       1 <0>         0.0000
     20 C20         1.9632   -8.8234    0.5695 C.3       1 <0>         0.0000
     21 N1         -0.8499   -5.8039   -0.4855 N.ar      1 <0>         0.0000
     22 N2         -1.9267   -5.9042    1.6682 N.ar      1 <0>         0.0000
     23 N3         -2.6080   -4.3952    0.0762 N.pl3     1 <0>         0.0000
     24 O1          0.7230   -9.1319    2.5886 O.2       1 <0>         0.0000
     25 H1         -5.4844   -1.1047   -3.6047 H         1 <0>         0.0000
     26 H2         -5.4453    0.7157   -1.9217 H         1 <0>         0.0000
     27 H3         -2.8005   -1.5939    0.5703 H         1 <0>         0.0000
     28 H4          0.6995   -7.0929   -0.8037 H         1 <0>         0.0000
     29 H5         -4.9432   -3.9297   -3.8045 H         1 <0>         0.0000
     30 H6         -3.2727   -3.4492   -4.1025 H         1 <0>         0.0000
     31 H7         -1.6806   -3.7138   -1.6272 H         1 <0>         0.0000
     32 H8         -2.8202   -5.4027   -2.7902 H         1 <0>         0.0000
     33 H9         -4.9403    0.6339    1.2140 H         1 <0>         0.0000
     34 H10        -3.1983    0.8459    1.0221 H         1 <0>         0.0000
     35 H11        -4.3212    1.7725    0.0147 H         1 <0>         0.0000
     36 H12        -5.3656   -4.7880   -1.1784 H         1 <0>         0.0000
     37 H13        -4.3027   -6.1844   -0.9270 H         1 <0>         0.0000
     38 H14        -5.2074   -6.0214   -2.4369 H         1 <0>         0.0000
     39 H15        -3.2613   -8.4147    2.9014 H         1 <0>         0.0000
     40 H16        -2.5385   -8.9948    4.4140 H         1 <0>         0.0000
     41 H17        -1.8327   -9.4778    2.8649 H         1 <0>         0.0000
     42 H18         3.3667   -9.6072    2.0351 H         1 <0>         0.0000
     43 H19         2.3509  -10.8381    1.2920 H         1 <0>         0.0000
     44 H20         3.6854  -10.1200    0.3651 H         1 <0>         0.0000
     45 H21        -0.4641   -7.6868    3.9440 H         1 <0>         0.0000
     46 H22        -1.8891   -6.6169    3.9992 H         1 <0>         0.0000
     47 H23         1.5205   -9.1357   -0.3852 H         1 <0>         0.0000
     48 H24         2.5255   -7.9071    0.3515 H         1 <0>         0.0000
     49 H25        -3.3551   -4.2150    0.7357 H         1 <0>         0.0000
@<TRIPOS>BOND
     1    1    2 ar
     2    1    6 ar
     3    1   25 1
     4    2    8 ar
     5    2   26 1
     6    3    7 ar
     7    3    8 ar
     8    3   27 1
     9    4    5 ar
    10    4   21 ar
    11    4   28 1
    12    5    9 ar
    13    5   11 1
    14    6    7 ar
    15    6   12 1
    16    7   13 1
    17    8   15 1
    18    9   19 1
    19    9   22 ar
    20   10   21 ar
    21   10   22 ar
    22   10   23 1
    23   11   20 1
    24   11   24 2
    25   12   14 1
    26   12   29 1
    27   12   30 1
    28   13   14 1
    29   13   23 1
    30   13   31 1
    31   14   16 1
    32   14   32 1
    33   15   33 1
    34   15   34 1
    35   15   35 1
    36   16   36 1
    37   16   37 1
    38   16   38 1
    39   17   19 1
    40   17   39 1
    41   17   40 1
    42   17   41 1
    43   18   20 1
    44   18   42 1
    45   18   43 1
    46   18   44 1
    47   19   45 1
    48   19   46 1
    49   20   47 1
    50   20   48 1
    51   23   49 1
