@<TRIPOS>MOLECULE
*****
   41    43     0     0     0
SMALL
NO_CHARGES

@<TRIPOS>ATOM
      1 C1          2.7329   -2.5623   -7.6015 C.ar      1 <0>         0.0000
      2 C2          3.4572    0.9820   -7.4932 C.2       1 <0>         0.0000
      3 C3          3.6029   -3.0791   -6.6458 C.ar      1 <0>         0.0000
      4 C4          2.5144    0.8816   -8.4675 C.2       1 <0>         0.0000
      5 C5          3.6532   -0.3617   -6.9883 C.ar      1 <0>         0.0000
      6 C6          2.7902   -1.1751   -7.7428 C.ar      1 <0>         0.0000
      7 C7          4.4686   -1.0048   -6.0188 C.ar      1 <0>         0.0000
      8 C8          0.9066   -2.9755   -3.9029 C.3       1 <0>         0.0000
      9 C9          0.6147   -2.9755   -2.3962 C.3       1 <0>         0.0000
     10 C10         1.2304   -1.5140   -4.2090 C.3       1 <0>         0.0000
     11 C11         1.7031   -2.0576   -1.8495 C.3       1 <0>         0.0000
     12 C12         6.3836   -1.0425   -4.4965 C.3       1 <0>         0.0000
     13 C13         3.4168    0.7468   -3.9217 C.3       1 <0>         0.0000
     14 C14         4.8346    0.9088   -4.5157 C.3       1 <0>         0.0000
     15 C15         3.2981   -0.5187   -3.0723 C.3       1 <0>         0.0000
     16 N1          4.4168   -2.3365   -5.8624 N.ar      1 <0>         0.0000
     17 N2          5.3352   -0.2924   -5.1915 N.pl3     1 <0>         0.0000
     18 N3          1.8626   -0.9666   -2.9115 N.4       1 <0>         0.0000
     19 O1          2.0872   -0.4204   -8.6348 O.3       1 <0>         0.0000
     20 H1          2.0925   -3.1920   -8.2089 H         1 <0>         0.0000
     21 H2          3.9652    1.8921   -7.2089 H         1 <0>         0.0000
     22 H3          3.6516   -4.1537   -6.4829 H         1 <0>         0.0000
     23 H4          2.0597    1.6052   -9.1294 H         1 <0>         0.0000
     24 H5          1.7704   -3.6060   -4.1318 H         1 <0>         0.0000
     25 H6          0.0661   -3.3247   -4.5051 H         1 <0>         0.0000
     26 H7         -0.3806   -2.5696   -2.1876 H         1 <0>         0.0000
     27 H8          0.6740   -3.9682   -1.9459 H         1 <0>         0.0000
     28 H9          1.9327   -1.3784   -5.0274 H         1 <0>         0.0000
     29 H10         0.3340   -0.9230   -4.4024 H         1 <0>         0.0000
     30 H11         1.4885   -1.5851   -0.8901 H         1 <0>         0.0000
     31 H12         2.6633   -2.5726   -1.7892 H         1 <0>         0.0000
     32 H13         7.1690   -0.3439   -4.1976 H         1 <0>         0.0000
     33 H14         6.8102   -1.7809   -5.1743 H         1 <0>         0.0000
     34 H15         6.0281   -1.5789   -3.6046 H         1 <0>         0.0000
     35 H16         2.6991    0.7125   -4.7455 H         1 <0>         0.0000
     36 H17         3.1760    1.6352   -3.3264 H         1 <0>         0.0000
     37 H18         4.8252    1.7731   -5.1862 H         1 <0>         0.0000
     38 H19         5.5440    1.1498   -3.7210 H         1 <0>         0.0000
     39 H20         3.8097   -1.3649   -3.5315 H         1 <0>         0.0000
     40 H21         3.6994   -0.3702   -2.0664 H         1 <0>         0.0000
     41 H22         1.3171   -0.1542   -2.6152 H         1 <0>         0.0000
@<TRIPOS>BOND
     1    1    3 ar
     2    1    6 ar
     3    1   20 1
     4    2    4 2
     5    2    5 1
     6    2   21 1
     7    3   16 ar
     8    3   22 1
     9    4   19 1
    10    4   23 1
    11    5    6 ar
    12    5    7 ar
    13    6   19 1
    14    7   16 ar
    15    7   17 1
    16    8    9 1
    17    8   10 1
    18    8   24 1
    19    8   25 1
    20    9   11 1
    21    9   26 1
    22    9   27 1
    23   10   18 1
    24   10   28 1
    25   10   29 1
    26   11   18 1
    27   11   30 1
    28   11   31 1
    29   12   17 1
    30   12   32 1
    31   12   33 1
    32   12   34 1
    33   13   14 1
    34   13   15 1
    35   13   35 1
    36   13   36 1
    37   14   17 1
    38   14   37 1
    39   14   38 1
    40   15   18 1
    41   15   39 1
    42   15   40 1
    43   18   41 1
