@<TRIPOS>MOLECULE
*****
   54    57     0     0     0
SMALL
NO_CHARGES

@<TRIPOS>ATOM
      1 C1         -3.0720   -1.1184   -1.1417 C.2       1 <0>         0.0000
      2 C2         -1.9589   -0.2091   -0.9777 C.2       1 <0>         0.0000
      3 C3         -0.9593   -0.7609   -0.2224 C.2       1 <0>         0.0000
      4 C4         -4.3098   -0.8950   -1.8741 C.2       1 <0>         0.0000
      5 C5         -2.8800   -2.3309   -0.5080 C.2       1 <0>         0.0000
      6 C6         -4.9718   -3.2411   -1.2823 C.2       1 <0>         0.0000
      7 C7          1.8469    1.2876   -1.2220 C.2       1 <0>         0.0000
      8 C8         -7.3789   -0.6538   -2.0149 C.3       1 <0>         0.0000
      9 C9         -7.7563   -2.0771   -1.6736 C.3       1 <0>         0.0000
     10 C10         2.5035   -0.1872   -2.9199 C.3       1 <0>         0.0000
     11 C11         1.7747   -0.9839   -1.8180 C.3       1 <0>         0.0000
     12 C12        -6.5171   -1.7985   -2.4871 C.3       1 <0>         0.0000
     13 C13        -6.4725   -2.1625   -3.9560 C.3       1 <0>         0.0000
     14 C14        -1.4977    1.1153   -3.0836 C.3       1 <0>         0.0000
     15 C15        -5.5268   -3.8098    3.2096 C.3       1 <0>         0.0000
     16 C16        -1.8737    1.1655   -1.5922 C.3       1 <0>         0.0000
     17 C17         0.3704   -0.1579    0.1494 C.3       1 <0>         0.0000
     18 C18        -3.5600   -4.6088    0.1990 C.3       1 <0>         0.0000
     19 C19        -3.8383   -4.4465    1.6907 C.3       1 <0>         0.0000
     20 N1         -5.2383   -1.9668   -1.7997 N.am      1 <0>         0.0000
     21 N2         -3.7800   -3.3682   -0.5497 N.am      1 <0>         0.0000
     22 N3          2.7865    1.0765   -2.2338 N.am      1 <0>         0.0000
     23 N4          1.2059    0.0820   -1.0098 N.am      1 <0>         0.0000
     24 O1         -4.5746    0.1183   -2.5150 O.2       1 <0>         0.0000
     25 O2         -5.7236   -4.1909   -1.4452 O.2       1 <0>         0.0000
     26 O3          1.6341    2.3406   -0.6309 O.2       1 <0>         0.0000
     27 O4         -5.1901   -4.0654    1.8547 O.3       1 <0>         0.0000
     28 S1         -1.3394   -2.4047    0.2960 S.3       1 <0>         0.0000
     29 H1         -7.9374   -0.1185   -2.7768 H         1 <0>         0.0000
     30 H2         -6.9894   -0.0256   -1.2215 H         1 <0>         0.0000
     31 H3         -7.6198   -2.4115   -0.6509 H         1 <0>         0.0000
     32 H4         -8.5829   -2.5513   -2.1939 H         1 <0>         0.0000
     33 H5          3.4202   -0.6820   -3.2499 H         1 <0>         0.0000
     34 H6          1.8465   -0.0413   -3.7877 H         1 <0>         0.0000
     35 H7          0.9964   -1.6384   -2.2213 H         1 <0>         0.0000
     36 H8          2.4767   -1.5948   -1.2303 H         1 <0>         0.0000
     37 H9         -5.7482   -1.5339   -4.4831 H         1 <0>         0.0000
     38 H10        -7.4536   -2.0101   -4.4154 H         1 <0>         0.0000
     39 H11        -6.1983   -3.2149   -4.0797 H         1 <0>         0.0000
     40 H12        -0.5341    0.6148   -3.2222 H         1 <0>         0.0000
     41 H13        -1.4165    2.1300   -3.4870 H         1 <0>         0.0000
     42 H14        -2.2598    0.5813   -3.6563 H         1 <0>         0.0000
     43 H15        -6.5788   -3.5179    3.2273 H         1 <0>         0.0000
     44 H16        -4.9179   -2.9937    3.6268 H         1 <0>         0.0000
     45 H17        -5.3913   -4.7061    3.8332 H         1 <0>         0.0000
     46 H18        -2.8419    1.6617   -1.4903 H         1 <0>         0.0000
     47 H19        -1.1327    1.7608   -1.0517 H         1 <0>         0.0000
     48 H20         0.2330    0.8137    0.6321 H         1 <0>         0.0000
     49 H21         0.8921   -0.8055    0.8696 H         1 <0>         0.0000
     50 H22        -2.5277   -4.9418    0.0462 H         1 <0>         0.0000
     51 H23        -4.2339   -5.3525   -0.2237 H         1 <0>         0.0000
     52 H24        -3.1713   -3.6937    2.1375 H         1 <0>         0.0000
     53 H25        -3.6344   -5.4092    2.1882 H         1 <0>         0.0000
     54 H26         3.0158    1.8995   -2.7778 H         1 <0>         0.0000
@<TRIPOS>BOND
     1    1    2 1
     2    1    5 2
     3    1    4 1
     4    2    3 2
     5    2   16 1
     6    3   17 1
     7    3   28 1
     8    4   20 am
     9    4   24 2
    10    5   21 1
    11    5   28 1
    12    6   21 am
    13    6   20 am
    14    6   25 2
    15    7   22 am
    16    7   23 am
    17    7   26 2
    18    8    9 1
    19    8   12 1
    20    8   29 1
    21    8   30 1
    22    9   12 1
    23    9   31 1
    24    9   32 1
    25   10   11 1
    26   10   22 1
    27   10   33 1
    28   10   34 1
    29   11   23 1
    30   11   35 1
    31   11   36 1
    32   12   13 1
    33   12   20 1
    34   13   37 1
    35   13   38 1
    36   13   39 1
    37   14   16 1
    38   14   40 1
    39   14   41 1
    40   14   42 1
    41   15   27 1
    42   15   43 1
    43   15   44 1
    44   15   45 1
    45   16   46 1
    46   16   47 1
    47   17   23 1
    48   17   48 1
    49   17   49 1
    50   18   19 1
    51   18   21 1
    52   18   50 1
    53   18   51 1
    54   19   27 1
    55   19   52 1
    56   19   53 1
    57   22   54 1
