@<TRIPOS>MOLECULE
*****
   52    55     0     0     0
SMALL
NO_CHARGES

@<TRIPOS>ATOM
      1 C1         -2.4006    2.5317   -3.4125 C.1       1 <0>         0.0000
      2 C2          2.3647    1.9875    1.1568 C.ar      1 <0>         0.0000
      3 C3          1.7205    1.4845    0.0010 C.ar      1 <0>         0.0000
      4 C4          2.2951    1.3473    2.3989 C.ar      1 <0>         0.0000
      5 C5          0.9506   -0.3557    1.2877 C.ar      1 <0>         0.0000
      6 C6          0.9935    0.2943    0.0523 C.ar      1 <0>         0.0000
      7 C7          0.3083   -1.5903    1.6040 C.2       1 <0>         0.0000
      8 C8          1.5609    0.1556    2.4545 C.ar      1 <0>         0.0000
      9 C9          0.5152   -1.8061    2.9462 C.2       1 <0>         0.0000
     10 C10        -0.3260   -2.3587    0.4828 C.3       1 <0>         0.0000
     11 C11        -0.4782    0.7300   -1.9711 C.3       1 <0>         0.0000
     12 C12        -1.7912   -1.2081   -2.8633 C.3       1 <0>         0.0000
     13 C13         0.2180   -0.3445   -1.0901 C.3       1 <0>         0.0000
     14 C14        -1.8513    0.2683   -2.4851 C.3       1 <0>         0.0000
     15 C15        -0.8498   -1.3680   -0.5833 C.3       1 <0>         0.0000
     16 C16        -3.2625   -4.4146   -2.4584 C.3       1 <0>         0.0000
     17 C17         0.7197   -4.2412    5.6754 C.3       1 <0>         0.0000
     18 C18        -2.3199    1.0936   -3.6997 C.3       1 <0>         0.0000
     19 C19         0.0473   -2.8935    3.8517 C.3       1 <0>         0.0000
     20 C20        -1.8916   -4.1248   -3.0779 C.3       1 <0>         0.0000
     21 C21        -0.9572   -3.3454   -2.1399 C.3       1 <0>         0.0000
     22 N1         -2.4604    3.6669   -3.1666 N.1       1 <0>         0.0000
     23 N2          1.2421   -0.7291    3.4750 N.pl3     1 <0>         0.0000
     24 N3         -1.5265   -2.0683   -1.7031 N.3       1 <0>         0.0000
     25 O1          1.1150   -3.2616    4.7264 O.3       1 <0>         0.0000
     26 H1          2.9248    2.9157    1.0784 H         1 <0>         0.0000
     27 H2          1.7949    2.0492   -0.9248 H         1 <0>         0.0000
     28 H3          2.7854    1.7699    3.2721 H         1 <0>         0.0000
     29 H4          0.4356   -3.0141    0.0451 H         1 <0>         0.0000
     30 H5         -1.1534   -2.9955    0.8131 H         1 <0>         0.0000
     31 H6         -0.6012    1.6549   -1.4020 H         1 <0>         0.0000
     32 H7          0.1626    0.9742   -2.8271 H         1 <0>         0.0000
     33 H8         -2.7337   -1.5153   -3.3344 H         1 <0>         0.0000
     34 H9         -1.0033   -1.3264   -3.6341 H         1 <0>         0.0000
     35 H10         0.9239   -0.9078   -1.7165 H         1 <0>         0.0000
     36 H11        -2.5991    0.3961   -1.6953 H         1 <0>         0.0000
     37 H12        -1.6191   -0.7789   -0.0680 H         1 <0>         0.0000
     38 H13        -3.1591   -4.9960   -1.5347 H         1 <0>         0.0000
     39 H14        -3.7830   -3.4875   -2.2017 H         1 <0>         0.0000
     40 H15        -3.8935   -4.9871   -3.1467 H         1 <0>         0.0000
     41 H16         1.5889   -4.4506    6.3024 H         1 <0>         0.0000
     42 H17         0.4005   -5.1708    5.1813 H         1 <0>         0.0000
     43 H18        -0.1043   -3.8784    6.3083 H         1 <0>         0.0000
     44 H19        -3.3088    0.7584   -4.0317 H         1 <0>         0.0000
     45 H20        -1.6311    0.9528   -4.5411 H         1 <0>         0.0000
     46 H21        -0.8125   -2.5571    4.4563 H         1 <0>         0.0000
     47 H22        -0.2838   -3.7549    3.2541 H         1 <0>         0.0000
     48 H23        -2.0150   -3.5944   -4.0287 H         1 <0>         0.0000
     49 H24        -1.3885   -5.0675   -3.3261 H         1 <0>         0.0000
     50 H25        -0.7854   -3.9751   -1.2663 H         1 <0>         0.0000
     51 H26         0.0212   -3.2108   -2.6428 H         1 <0>         0.0000
     52 H27         1.6975   -0.7819    4.3763 H         1 <0>         0.0000
@<TRIPOS>BOND
     1    1   18 1
     2    1   22 3
     3    2    3 ar
     4    2    4 ar
     5    2   26 1
     6    3    6 ar
     7    3   27 1
     8    4    8 ar
     9    4   28 1
    10    5    6 ar
    11    5    7 1
    12    5    8 ar
    13    6   13 1
    14    7    9 2
    15    7   10 1
    16    8   23 1
    17    9   19 1
    18    9   23 1
    19   10   15 1
    20   10   29 1
    21   10   30 1
    22   11   13 1
    23   11   14 1
    24   11   31 1
    25   11   32 1
    26   12   14 1
    27   12   24 1
    28   12   33 1
    29   12   34 1
    30   13   15 1
    31   13   35 1
    32   14   18 1
    33   14   36 1
    34   15   24 1
    35   15   37 1
    36   16   20 1
    37   16   38 1
    38   16   39 1
    39   16   40 1
    40   17   25 1
    41   17   41 1
    42   17   42 1
    43   17   43 1
    44   18   44 1
    45   18   45 1
    46   19   25 1
    47   19   46 1
    48   19   47 1
    49   20   21 1
    50   20   48 1
    51   20   49 1
    52   21   24 1
    53   21   50 1
    54   21   51 1
    55   23   52 1
