@<TRIPOS>MOLECULE
*****
   25    25     0     0     0
SMALL
NO_CHARGES

@<TRIPOS>ATOM
      1 C1          6.9610   -2.5210   -0.2990 C.ar      1 <0>         0.0000
      2 C2          6.3350   -2.0540    0.8500 C.ar      1 <0>         0.0000
      3 C3          6.5330   -2.0820   -1.5460 C.ar      1 <0>         0.0000
      4 C4          5.2820   -1.1480    0.7540 C.ar      1 <0>         0.0000
      5 C5          5.4810   -1.1760   -1.6440 C.ar      1 <0>         0.0000
      6 C6          4.8470   -0.6960   -0.4970 C.ar      1 <0>         0.0000
      7 C7          2.3500   -0.4690   -0.7430 C.2       1 <0>         0.0000
      8 C8          3.6220    1.2930    0.5010 C.3       1 <0>         0.0000
      9 C9          1.0170   -2.4290   -0.0560 C.3       1 <0>         0.0000
     10 C10         3.6780    0.2850   -0.6710 C.3       1 <0>         0.0000
     11 N1          2.2370   -1.6290   -0.0860 N.am      1 <0>         0.0000
     12 O1          1.3920   -0.0120   -1.3590 O.2       1 <0>         0.0000
     13 H1          7.7640   -3.2100   -0.2250 H         1 <0>         0.0000
     14 H2          6.6610   -2.3880    1.8020 H         1 <0>         0.0000
     15 H3          7.0090   -2.4380   -2.4250 H         1 <0>         0.0000
     16 H4          4.8200   -0.8100    1.6440 H         1 <0>         0.0000
     17 H5          5.1620   -0.8540   -2.6020 H         1 <0>         0.0000
     18 H6          4.6060    1.7490    0.6160 H         1 <0>         0.0000
     19 H7          3.3140    0.7850    1.4150 H         1 <0>         0.0000
     20 H8          2.8840    2.0550    0.2470 H         1 <0>         0.0000
     21 H9          1.1540   -3.3020    0.5820 H         1 <0>         0.0000
     22 H10         0.7670   -2.7570   -1.0670 H         1 <0>         0.0000
     23 H11         0.1910   -1.8280    0.3300 H         1 <0>         0.0000
     24 H12         3.8040    0.8400   -1.5910 H         1 <0>         0.0000
     25 H13         3.0750   -1.9940    0.3440 H         1 <0>         0.0000
@<TRIPOS>BOND
     1    1    2 ar
     2    1    3 ar
     3    1   13 1
     4    2    4 ar
     5    2   14 1
     6    3    5 ar
     7    3   15 1
     8    4    6 ar
     9    4   16 1
    10    5    6 ar
    11    5   17 1
    12    6   10 1
    13    7   10 1
    14    7   11 am
    15    7   12 2
    16    8   10 1
    17    8   18 1
    18    8   19 1
    19    8   20 1
    20    9   11 1
    21    9   21 1
    22    9   22 1
    23    9   23 1
    24   10   24 1
    25   11   25 1
