@<TRIPOS>MOLECULE
*****
   18    18     0     0     0
SMALL
NO_CHARGES

@<TRIPOS>ATOM
      1 C1          1.3879   -0.0684    1.6522 C.ar      1 <0>         0.0000
      2 C2         -0.6317   -1.3224    1.5803 C.ar      1 <0>         0.0000
      3 C3          1.6520   -0.6227    2.8997 C.ar      1 <0>         0.0000
      4 C4          0.2265   -0.4197    0.9733 C.ar      1 <0>         0.0000
      5 C5          0.7299   -1.5161    3.4206 C.ar      1 <0>         0.0000
      6 C6          0.4098   -3.5062    6.5012 C.3       1 <0>         0.0000
      7 C7         -0.0249   -3.0018    5.1493 C.3       1 <0>         0.0000
      8 N1         -0.4092   -1.8816    2.7908 N.ar      1 <0>         0.0000
      9 O1          0.9450   -2.0887    4.6473 O.3       1 <0>         0.0000
     10 F1          1.5893   -4.1650    6.3855 F         1 <0>         0.0000
     11 F2         -0.4963   -4.4026    6.9628 F         1 <0>         0.0000
     12 F3         -0.1662   -4.0477    4.3006 F         1 <0>         0.0000
     13 F4         -1.2214   -2.3776    5.2715 F         1 <0>         0.0000
     14 Cl1         3.0867   -0.1918    3.7442 Cl        1 <0>         0.0000
     15 Br1        -0.1675    0.3077   -0.7186 Br        1 <0>         0.0000
     16 H1          2.0876    0.6369    1.2096 H         1 <0>         0.0000
     17 H2         -1.5547   -1.6382    1.1032 H         1 <0>         0.0000
     18 H3          0.5239   -2.7037    7.2351 H         1 <0>         0.0000
@<TRIPOS>BOND
     1    1    3 ar
     2    1    4 ar
     3    1   16 1
     4    2    4 ar
     5    2    8 ar
     6    2   17 1
     7    3    5 ar
     8    3   14 1
     9    4   15 1
    10    5    8 ar
    11    5    9 1
    12    6    7 1
    13    6   10 1
    14    6   11 1
    15    6   18 1
    16    7    9 1
    17    7   12 1
    18    7   13 1
