@<TRIPOS>MOLECULE
*****
   53    55     0     0     0
SMALL
NO_CHARGES

@<TRIPOS>ATOM
      1 C1         -2.5568   -0.7302   -1.4263 C.2       1 <0>         0.0000
      2 C2         -1.4134    0.1498   -1.5126 C.2       1 <0>         0.0000
      3 C3         -0.2985   -0.4176   -0.9577 C.2       1 <0>         0.0000
      4 C4         -3.9001   -0.4844   -1.9152 C.2       1 <0>         0.0000
      5 C5         -2.2699   -1.9370   -0.8134 C.2       1 <0>         0.0000
      6 C6         -4.5341   -2.7328   -1.0085 C.2       1 <0>         0.0000
      7 C7          2.4647    1.2252   -2.6680 C.2       1 <0>         0.0000
      8 C8          2.7417   -0.5163   -4.2084 C.3       1 <0>         0.0000
      9 C9          2.1072   -1.0792   -2.9217 C.3       1 <0>         0.0000
     10 C10        -1.4408    1.5100   -2.1536 C.3       1 <0>         0.0000
     11 C11        -7.7075   -1.8501   -4.2152 C.3       1 <0>         0.0000
     12 C12        -5.2781   -1.3488   -4.7317 C.3       1 <0>         0.0000
     13 C13        -1.2833   -5.9481   -2.6380 C.3       1 <0>         0.0000
     14 C14         1.1027    0.1294   -0.9141 C.3       1 <0>         0.0000
     15 C15        -2.9149   -4.1578    0.1306 C.3       1 <0>         0.0000
     16 C16        -6.1410   -1.4406   -2.3115 C.3       1 <0>         0.0000
     17 C17        -2.6727   -5.3076   -0.8351 C.3       1 <0>         0.0000
     18 C18        -6.2605   -1.9734   -3.7491 C.3       1 <0>         0.0000
     19 N1         -4.7940   -1.5719   -1.7435 N.am      1 <0>         0.0000
     20 N2         -3.2193   -2.9024   -0.5680 N.am      1 <0>         0.0000
     21 N3          3.2365    0.7822   -3.7440 N.am      1 <0>         0.0000
     22 N4          1.7271    0.1408   -2.2251 N.am      1 <0>         0.0000
     23 O1         -4.2793    0.5497   -2.4633 O.2       1 <0>         0.0000
     24 O2         -5.3957   -3.5654   -0.7506 O.2       1 <0>         0.0000
     25 O3          2.4463    2.3589   -2.2011 O.2       1 <0>         0.0000
     26 O4         -1.4992   -5.0237   -1.5820 O.3       1 <0>         0.0000
     27 F1         -5.9541   -3.3631   -3.7093 F         1 <0>         0.0000
     28 S1         -0.6043   -2.0434   -0.3443 S.3       1 <0>         0.0000
     29 H1          3.5514   -1.1479   -4.5819 H         1 <0>         0.0000
     30 H2          1.9827   -0.4068   -4.9950 H         1 <0>         0.0000
     31 H3          1.2401   -1.7138   -3.1229 H         1 <0>         0.0000
     32 H4          2.8364   -1.6583   -2.3342 H         1 <0>         0.0000
     33 H5         -2.2108    2.1365   -1.6958 H         1 <0>         0.0000
     34 H6         -0.4737    2.0092   -2.0722 H         1 <0>         0.0000
     35 H7         -1.7020    1.4283   -3.2132 H         1 <0>         0.0000
     36 H8         -8.3813   -2.3609   -3.5211 H         1 <0>         0.0000
     37 H9         -7.8200   -2.3042   -5.2034 H         1 <0>         0.0000
     38 H10        -8.0029   -0.7985   -4.2823 H         1 <0>         0.0000
     39 H11        -4.2484   -1.5547   -4.4302 H         1 <0>         0.0000
     40 H12        -5.4080   -0.2656   -4.7783 H         1 <0>         0.0000
     41 H13        -5.4363   -1.7775   -5.7257 H         1 <0>         0.0000
     42 H14        -0.3695   -5.6400   -3.1509 H         1 <0>         0.0000
     43 H15        -2.1198   -5.9402   -3.3515 H         1 <0>         0.0000
     44 H16        -1.1533   -6.9715   -2.2557 H         1 <0>         0.0000
     45 H17         1.1023    1.1649   -0.5649 H         1 <0>         0.0000
     46 H18         1.7146   -0.4492   -0.2061 H         1 <0>         0.0000
     47 H19        -3.7633   -4.3971    0.7728 H         1 <0>         0.0000
     48 H20        -2.0357   -3.9952    0.7580 H         1 <0>         0.0000
     49 H21        -6.8244   -1.9965   -1.6712 H         1 <0>         0.0000
     50 H22        -6.3997   -0.3816   -2.2999 H         1 <0>         0.0000
     51 H23        -3.5417   -5.4218   -1.4969 H         1 <0>         0.0000
     52 H24        -2.5535   -6.2403   -0.2604 H         1 <0>         0.0000
     53 H25         3.4809    1.4977   -4.4179 H         1 <0>         0.0000
@<TRIPOS>BOND
     1    1    2 1
     2    1    5 2
     3    1    4 1
     4    2    3 2
     5    2   10 1
     6    3   14 1
     7    3   28 1
     8    4   19 am
     9    4   23 2
    10    5   20 1
    11    5   28 1
    12    6   20 am
    13    6   19 am
    14    6   24 2
    15    7   21 am
    16    7   22 am
    17    7   25 2
    18    8    9 1
    19    8   21 1
    20    8   29 1
    21    8   30 1
    22    9   22 1
    23    9   31 1
    24    9   32 1
    25   10   33 1
    26   10   34 1
    27   10   35 1
    28   11   18 1
    29   11   36 1
    30   11   37 1
    31   11   38 1
    32   12   18 1
    33   12   39 1
    34   12   40 1
    35   12   41 1
    36   13   26 1
    37   13   42 1
    38   13   43 1
    39   13   44 1
    40   14   22 1
    41   14   45 1
    42   14   46 1
    43   15   17 1
    44   15   20 1
    45   15   47 1
    46   15   48 1
    47   16   18 1
    48   16   19 1
    49   16   49 1
    50   16   50 1
    51   17   26 1
    52   17   51 1
    53   17   52 1
    54   18   27 1
    55   21   53 1
