@<TRIPOS>MOLECULE
*****
   18    18     0     0     0
SMALL
NO_CHARGES

@<TRIPOS>ATOM
      1 C1          1.8738   -1.0553   -0.1173 C.ar      1 <0>         0.0000
      2 C2          2.9221   -1.6412    0.6017 C.ar      1 <0>         0.0000
      3 C3          0.7969   -0.4656    0.5546 C.ar      1 <0>         0.0000
      4 C4          2.8949   -1.6484    1.9989 C.ar      1 <0>         0.0000
      5 C5          0.7581   -0.4664    1.9516 C.ar      1 <0>         0.0000
      6 C6          1.8062   -1.0670    2.6531 C.ar      1 <0>         0.0000
      7 C7          0.8883   -2.6448    4.8069 C.3       1 <0>         0.0000
      8 O1          3.1290   -1.2332    4.9511 O.2       1 <0>         0.0000
      9 O2          0.8822    0.0056    4.9012 O.2       1 <0>         0.0000
     10 S1          1.7513   -1.0942    4.4530 S.o2      1 <0>         0.0000
     11 H1          1.9009   -1.0499   -1.2038 H         1 <0>         0.0000
     12 H2          3.7637   -2.0837    0.0761 H         1 <0>         0.0000
     13 H3         -0.0068    0.0020   -0.0074 H         1 <0>         0.0000
     14 H4          3.7091   -2.0740    2.5779 H         1 <0>         0.0000
     15 H5         -0.0541    0.0074    2.4946 H         1 <0>         0.0000
     16 H6          0.8223   -2.7145    5.8948 H         1 <0>         0.0000
     17 H7         -0.1074   -2.6049    4.3633 H         1 <0>         0.0000
     18 H8          1.4708   -3.4741    4.4033 H         1 <0>         0.0000
@<TRIPOS>BOND
     1    1    3 ar
     2    1    2 ar
     3    1   11 1
     4    2    4 ar
     5    2   12 1
     6    3    5 ar
     7    3   13 1
     8    4    6 ar
     9    4   14 1
    10    5    6 ar
    11    5   15 1
    12    6   10 1
    13    7   10 1
    14    7   16 1
    15    7   17 1
    16    7   18 1
    17    8   10 2
    18    9   10 2
