@<TRIPOS>MOLECULE
*****
   61    64     0     0     0
SMALL
NO_CHARGES

@<TRIPOS>ATOM
      1 C1          2.5217    4.0251    0.3090 C.ar      1 <0>         0.0000
      2 C2         -2.8865    1.6704    8.7937 C.ar      1 <0>         0.0000
      3 C3          3.5314    4.6809   -0.3909 C.ar      1 <0>         0.0000
      4 C4         -2.1286    1.4983    7.6334 C.ar      1 <0>         0.0000
      5 C5          2.4436    5.8876    1.8536 C.ar      1 <0>         0.0000
      6 C6         -4.1519    1.3369    6.2888 C.ar      1 <0>         0.0000
      7 C7          1.9739    4.6278    1.4512 C.ar      1 <0>         0.0000
      8 C8         -4.2836    1.7002    8.7027 C.ar      1 <0>         0.0000
      9 C9         -4.8986    1.5169    7.4602 C.ar      1 <0>         0.0000
     10 C10         4.0244    5.9327    0.0038 C.ar      1 <0>         0.0000
     11 C11         3.4543    6.5501    1.1435 C.ar      1 <0>         0.0000
     12 C12        -2.7548    1.3411    6.3873 C.ar      1 <0>         0.0000
     13 C13        -0.5611    2.5903    2.9723 C.2       1 <0>         0.0000
     14 C14        -0.5578    3.6845    3.7973 C.2       1 <0>         0.0000
     15 C15         0.9264    3.9430    2.2013 C.2       1 <0>         0.0000
     16 C16        -3.8706    2.6708   11.8764 C.2       1 <0>         0.0000
     17 C17        -6.4056    1.4993    7.6155 C.3       1 <0>         0.0000
     18 C18        -6.6113    2.1491    9.0047 C.3       1 <0>         0.0000
     19 C19        -5.3074    1.8826    9.8097 C.3       1 <0>         0.0000
     20 C20         5.1662    6.5669   -0.7533 C.3       1 <0>         0.0000
     21 C21        -1.2499    4.1312    5.0415 C.3       1 <0>         0.0000
     22 C22         3.7872    8.1393    2.9804 C.3       1 <0>         0.0000
     23 C23         3.5262    8.9396    0.7197 C.3       1 <0>         0.0000
     24 C24        -1.3484    1.3101    2.9866 C.3       1 <0>         0.0000
     25 C25        -4.9985    2.9799   10.8344 C.3       1 <0>         0.0000
     26 C26        -2.4765    1.2270    4.0031 C.3       1 <0>         0.0000
     27 N1          0.3876    2.7786    1.9648 N.2       1 <0>         0.0000
     28 N2          3.9503    7.8221    1.5657 N.pl3     1 <0>         0.0000
     29 O1         -3.3649    1.5096   11.8372 O.co2     1 <0>         0.0000
     30 O2         -3.6015    3.6274   12.6503 O.co2     1 <0>         0.0000
     31 O3          0.4010    4.5579    3.3011 O.3       1 <0>         0.0000
     32 O4         -1.9025    1.2066    5.3009 O.3       1 <0>         0.0000
     33 H1          2.1616    3.0496   -0.0016 H         1 <0>         0.0000
     34 H2         -2.4232    1.7631    9.7721 H         1 <0>         0.0000
     35 H3          3.9738    4.1974   -1.2599 H         1 <0>         0.0000
     36 H4         -1.0419    1.4799    7.6708 H         1 <0>         0.0000
     37 H5          2.0047    6.3464    2.7316 H         1 <0>         0.0000
     38 H6         -4.6552    1.1926    5.3373 H         1 <0>         0.0000
     39 H7         -6.9316    2.0244    6.8083 H         1 <0>         0.0000
     40 H8         -6.7667    0.4603    7.6103 H         1 <0>         0.0000
     41 H9         -6.7291    3.2328    8.8787 H         1 <0>         0.0000
     42 H10        -7.5046    1.7810    9.5209 H         1 <0>         0.0000
     43 H11        -5.3825    0.9352   10.3590 H         1 <0>         0.0000
     44 H12         4.8131    7.2254   -1.5574 H         1 <0>         0.0000
     45 H13         5.7842    7.1717   -0.0838 H         1 <0>         0.0000
     46 H14         5.7925    5.7997   -1.2185 H         1 <0>         0.0000
     47 H15        -0.7734    3.7197    5.9364 H         1 <0>         0.0000
     48 H16        -1.2198    5.2226    5.1040 H         1 <0>         0.0000
     49 H17        -2.2921    3.8140    5.0656 H         1 <0>         0.0000
     50 H18         4.4101    9.0080    3.2188 H         1 <0>         0.0000
     51 H19         4.1234    7.2984    3.5918 H         1 <0>         0.0000
     52 H20         2.7493    8.3856    3.2650 H         1 <0>         0.0000
     53 H21         4.1120    9.8307    0.9712 H         1 <0>         0.0000
     54 H22         2.4562    9.1782    0.8521 H         1 <0>         0.0000
     55 H23         3.6921    8.7102   -0.3335 H         1 <0>         0.0000
     56 H24        -1.7708    1.1603    1.9855 H         1 <0>         0.0000
     57 H25        -0.6578    0.4753    3.1561 H         1 <0>         0.0000
     58 H26        -5.9101    3.1949   11.4093 H         1 <0>         0.0000
     59 H27        -4.7444    3.9141   10.3163 H         1 <0>         0.0000
     60 H28        -3.1591    2.0815    3.8943 H         1 <0>         0.0000
     61 H29        -3.0622    0.3124    3.8312 H         1 <0>         0.0000
@<TRIPOS>BOND
     1    1    3 ar
     2    1    7 ar
     3    1   33 1
     4    2    4 ar
     5    2    8 ar
     6    2   34 1
     7    3   10 ar
     8    3   35 1
     9    4   12 ar
    10    4   36 1
    11    5    7 ar
    12    5   11 ar
    13    5   37 1
    14    6    9 ar
    15    6   12 ar
    16    6   38 1
    17    7   15 1
    18    8    9 ar
    19    8   19 1
    20    9   17 1
    21   10   11 ar
    22   10   20 1
    23   11   28 1
    24   12   32 1
    25   13   14 2
    26   13   24 1
    27   13   27 1
    28   14   21 1
    29   14   31 1
    30   15   27 2
    31   15   31 1
    32   16   25 1
    33   16   29 1
    34   16   30 2
    35   17   18 1
    36   17   39 1
    37   17   40 1
    38   18   19 1
    39   18   41 1
    40   18   42 1
    41   19   25 1
    42   19   43 1
    43   20   44 1
    44   20   45 1
    45   20   46 1
    46   21   47 1
    47   21   48 1
    48   21   49 1
    49   22   28 1
    50   22   50 1
    51   22   51 1
    52   22   52 1
    53   23   28 1
    54   23   53 1
    55   23   54 1
    56   23   55 1
    57   24   26 1
    58   24   56 1
    59   24   57 1
    60   25   58 1
    61   25   59 1
    62   26   32 1
    63   26   60 1
    64   26   61 1
