@<TRIPOS>MOLECULE
*****
   47    51     0     0     0
SMALL
NO_CHARGES

@<TRIPOS>ATOM
      1 C1         -0.7762    4.2059    4.1995 C.ar      1 <0>         0.0000
      2 C2          1.4755   -2.0860    0.1187 C.ar      1 <0>         0.0000
      3 C3         -1.4664    3.4030    3.2881 C.ar      1 <0>         0.0000
      4 C4          0.3710   -1.3913    0.6085 C.ar      1 <0>         0.0000
      5 C5         -0.5868    3.7830    5.5186 C.ar      1 <0>         0.0000
      6 C6          1.8411   -0.2608    2.1609 C.ar      1 <0>         0.0000
      7 C7          5.0164   -1.9307   -0.5264 C.ar      1 <0>         0.0000
      8 C8         -1.7942    1.7319    5.0059 C.ar      1 <0>         0.0000
      9 C9          3.8740   -4.0101   -0.1757 C.ar      1 <0>         0.0000
     10 C10         5.9081   -4.0643   -1.2369 C.ar      1 <0>         0.0000
     11 C11         2.7727   -1.8939    0.6151 C.ar      1 <0>         0.0000
     12 C12         2.9414   -0.9738    1.6738 C.ar      1 <0>         0.0000
     13 C13         3.9023   -2.6144   -0.0218 C.ar      1 <0>         0.0000
     14 C14        -1.9837    2.1599    3.6832 C.ar      1 <0>         0.0000
     15 C15         0.5555   -0.4531    1.6370 C.ar      1 <0>         0.0000
     16 C16         6.0151   -2.6791   -1.1270 C.ar      1 <0>         0.0000
     17 C17        -1.1024    2.5441    5.9055 C.ar      1 <0>         0.0000
     18 C18         4.2372   -0.7658    2.3417 C.2       1 <0>         0.0000
     19 C19        -1.8255    0.3003    1.8904 C.2       1 <0>         0.0000
     20 C20        -4.0733    0.7530    3.0055 C.3       1 <0>         0.0000
     21 C21        -3.8907    1.7964    1.9456 C.3       1 <0>         0.0000
     22 C22        -2.6712    1.2674    2.6929 C.3       1 <0>         0.0000
     23 N1          4.8422   -4.7210   -0.7655 N.ar      1 <0>         0.0000
     24 N2          5.1669   -1.7448    2.5692 N.2       1 <0>         0.0000
     25 N3          4.6203    0.4084    2.8594 N.2       1 <0>         0.0000
     26 N4          6.1499   -1.1882    3.2332 N.2       1 <0>         0.0000
     27 N5          5.7971    0.0858    3.3925 N.pl3     1 <0>         0.0000
     28 N6         -0.4835    0.3177    2.1932 N.am      1 <0>         0.0000
     29 O1         -2.3253   -0.4358    1.0412 O.2       1 <0>         0.0000
     30 F1          7.1105   -2.0551   -1.6285 F         1 <0>         0.0000
     31 Cl1        -0.8745    1.9946    7.5574 Cl        1 <0>         0.0000
     32 H1         -0.3807    5.1683    3.8865 H         1 <0>         0.0000
     33 H2          1.3309   -2.7816   -0.7032 H         1 <0>         0.0000
     34 H3         -1.6081    3.7361    2.2635 H         1 <0>         0.0000
     35 H4         -0.6164   -1.5563    0.2006 H         1 <0>         0.0000
     36 H5         -0.0536    4.4008    6.2340 H         1 <0>         0.0000
     37 H6          1.9940    0.4376    2.9799 H         1 <0>         0.0000
     38 H7          5.1049   -0.8504   -0.4613 H         1 <0>         0.0000
     39 H8         -2.1844    0.7709    5.3274 H         1 <0>         0.0000
     40 H9          3.0322   -4.5777    0.2164 H         1 <0>         0.0000
     41 H10         6.6972   -4.6416   -1.7147 H         1 <0>         0.0000
     42 H11        -4.4974    1.0567    3.9575 H         1 <0>         0.0000
     43 H12        -4.2961   -0.2577    2.6812 H         1 <0>         0.0000
     44 H13        -3.9908    1.4838    0.9119 H         1 <0>         0.0000
     45 H14        -4.1896    2.8151    2.1722 H         1 <0>         0.0000
     46 H15         6.3882    0.7566    3.8718 H         1 <0>         0.0000
     47 H16        -0.1998    0.9688    2.9152 H         1 <0>         0.0000
@<TRIPOS>BOND
     1    1    3 ar
     2    1    5 ar
     3    1   32 1
     4    2    4 ar
     5    2   11 ar
     6    2   33 1
     7    3   14 ar
     8    3   34 1
     9    4   15 ar
    10    4   35 1
    11    5   17 ar
    12    5   36 1
    13    6   12 ar
    14    6   15 ar
    15    6   37 1
    16    7   13 ar
    17    7   16 ar
    18    7   38 1
    19    8   14 ar
    20    8   17 ar
    21    8   39 1
    22    9   13 ar
    23    9   23 ar
    24    9   40 1
    25   10   16 ar
    26   10   23 ar
    27   10   41 1
    28   11   12 ar
    29   11   13 1
    30   12   18 1
    31   14   22 1
    32   15   28 1
    33   16   30 1
    34   17   31 1
    35   18   24 1
    36   18   25 2
    37   19   22 1
    38   19   28 am
    39   19   29 2
    40   20   21 1
    41   20   22 1
    42   20   42 1
    43   20   43 1
    44   21   22 1
    45   21   44 1
    46   21   45 1
    47   24   26 2
    48   25   27 1
    49   26   27 1
    50   27   46 1
    51   28   47 1
