@<TRIPOS>MOLECULE
*****
   17    18     0     0     0
SMALL
NO_CHARGES

@<TRIPOS>ATOM
      1 C1          0.5881    0.8905    1.8661 C.ar      1 <0>         0.0000
      2 C2          0.2261    0.9401    3.1967 C.ar      1 <0>         0.0000
      3 C3         -0.2066    0.1010    1.0601 C.ar      1 <0>         0.0000
      4 C4         -1.5246   -0.4612    2.8247 C.ar      1 <0>         0.0000
      5 C5         -2.7758   -2.7004    3.1395 C.3       1 <0>         0.0000
      6 C6         -2.4971   -2.1625    4.5082 C.3       1 <0>         0.0000
      7 C7         -2.6987   -1.2124    3.3575 C.3       1 <0>         0.0000
      8 N1         -0.8283    0.2746    3.7121 N.ar      1 <0>         0.0000
      9 N2         -1.2746   -0.5912    1.5079 N.ar      1 <0>         0.0000
     10 H1          1.4392    1.4350    1.4798 H         1 <0>         0.0000
     11 H2          0.7911    1.5345    3.9068 H         1 <0>         0.0000
     12 H3         -0.0002    0.0003   -0.0001 H         1 <0>         0.0000
     13 H4         -1.9663   -3.2011    2.6215 H         1 <0>         0.0000
     14 H5         -3.7541   -3.1276    2.9543 H         1 <0>         0.0000
     15 H6         -3.2885   -2.2258    5.2458 H         1 <0>         0.0000
     16 H7         -1.5013   -2.3031    4.9109 H         1 <0>         0.0000
     17 H8         -3.6366   -0.6733    3.3358 H         1 <0>         0.0000
@<TRIPOS>BOND
     1    1    3 ar
     2    1    2 ar
     3    1   10 1
     4    2    8 ar
     5    2   11 1
     6    3    9 ar
     7    3   12 1
     8    4    7 1
     9    4    9 ar
    10    4    8 ar
    11    5    6 1
    12    5    7 1
    13    5   13 1
    14    5   14 1
    15    6    7 1
    16    6   15 1
    17    6   16 1
    18    7   17 1
