@<TRIPOS>MOLECULE
*****
   35    36     0     0     0
SMALL
NO_CHARGES

@<TRIPOS>ATOM
      1 C1         -0.5504    1.9763   -4.4719 C.ar      1 <0>         0.0000
      2 C2          1.9917    2.0700   -5.3261 C.ar      1 <0>         0.0000
      3 C3          0.4223    1.1050   -3.9716 C.ar      1 <0>         0.0000
      4 C4          0.9972    2.9336   -5.8170 C.ar      1 <0>         0.0000
      5 C5          0.0480    0.0857   -2.9249 C.2       1 <0>         0.0000
      6 C6          1.8618   -2.9160   -1.7729 C.3       1 <0>         0.0000
      7 C7          1.1524   -1.1779   -0.1067 C.3       1 <0>         0.0000
      8 C8          1.7459   -3.9608   -0.6617 C.3       1 <0>         0.0000
      9 C9          1.0601   -2.2853    0.9424 C.3       1 <0>         0.0000
     10 C10         0.9142   -1.7437   -1.5130 C.3       1 <0>         0.0000
     11 C11         2.0609   -4.3735    1.7060 C.3       1 <0>         0.0000
     12 C12         3.0067   -3.9840    2.8297 C.3       1 <0>         0.0000
     13 N1          1.6940    1.1585   -4.4039 N.ar      1 <0>         0.0000
     14 N2         -0.2573    2.8956   -5.4026 N.ar      1 <0>         0.0000
     15 N3          2.0174   -3.3653    0.6521 N.3       1 <0>         0.0000
     16 N4          1.0645   -0.7272   -2.5477 N.am      1 <0>         0.0000
     17 O1         -1.1028    0.0245   -2.4838 O.2       1 <0>         0.0000
     18 F1          3.1670   -5.0557    3.6813 F         1 <0>         0.0000
     19 F2          2.5025   -2.9481    3.5879 F         1 <0>         0.0000
     20 Cl1         1.4261    4.1169   -7.0308 Cl        1 <0>         0.0000
     21 H1         -1.5729    1.9230   -4.1114 H         1 <0>         0.0000
     22 H2          3.0161    2.1262   -5.6846 H         1 <0>         0.0000
     23 H3          2.8970   -2.5524   -1.8069 H         1 <0>         0.0000
     24 H4          1.6357   -3.3780   -2.7400 H         1 <0>         0.0000
     25 H5          0.4115   -0.4016    0.1066 H         1 <0>         0.0000
     26 H6          2.1473   -0.7190   -0.0638 H         1 <0>         0.0000
     27 H7          0.7389   -4.4204   -0.6954 H         1 <0>         0.0000
     28 H8          2.4724   -4.7600   -0.8393 H         1 <0>         0.0000
     29 H9          1.2756   -1.8772    1.9305 H         1 <0>         0.0000
     30 H10         0.0265   -2.6821    0.9717 H         1 <0>         0.0000
     31 H11        -0.1213   -2.0937   -1.5736 H         1 <0>         0.0000
     32 H12         2.4587   -5.3053    1.2936 H         1 <0>         0.0000
     33 H13         1.0721   -4.6018    2.1390 H         1 <0>         0.0000
     34 H14         3.9923   -3.6774    2.4697 H         1 <0>         0.0000
     35 H15         1.9771   -0.5383   -2.9491 H         1 <0>         0.0000
@<TRIPOS>BOND
     1    1    3 ar
     2    1   14 ar
     3    1   21 1
     4    2    4 ar
     5    2   13 ar
     6    2   22 1
     7    3    5 1
     8    3   13 ar
     9    4   14 ar
    10    4   20 1
    11    5   16 am
    12    5   17 2
    13    6    8 1
    14    6   10 1
    15    6   23 1
    16    6   24 1
    17    7    9 1
    18    7   10 1
    19    7   25 1
    20    7   26 1
    21    8   15 1
    22    8   27 1
    23    8   28 1
    24    9   15 1
    25    9   29 1
    26    9   30 1
    27   10   16 1
    28   10   31 1
    29   11   12 1
    30   11   15 1
    31   11   32 1
    32   11   33 1
    33   12   18 1
    34   12   19 1
    35   12   34 1
    36   16   35 1
