@<TRIPOS>MOLECULE
*****
   68    70     0     0     0
SMALL
NO_CHARGES

@<TRIPOS>ATOM
      1 C1         -9.8912   -2.0387    8.3363 C.1       1 <0>         0.0000
      2 C2         -7.8460   -3.0680    9.1714 C.ar      1 <0>         0.0000
      3 C3         -6.4633   -3.2354    9.1607 C.ar      1 <0>         0.0000
      4 C4         -6.2829   -1.5740    7.4020 C.ar      1 <0>         0.0000
      5 C5         -8.4607   -2.1638    8.2926 C.ar      1 <0>         0.0000
      6 C6         -7.6631   -1.4119    7.4040 C.ar      1 <0>         0.0000
      7 C7         -5.6858   -2.4926    8.2717 C.ar      1 <0>         0.0000
      8 C8         -3.5018   -2.5506    9.4359 C.2       1 <0>         0.0000
      9 C9         -3.4681   -2.9019    7.1373 C.2       1 <0>         0.0000
     10 C10         3.8280    3.4191    6.2303 C.2       1 <0>         0.0000
     11 C11         1.6487    2.7067    5.3459 C.3       1 <0>         0.0000
     12 C12         2.8529    1.1600    6.8012 C.3       1 <0>         0.0000
     13 C13         1.3768    1.5545    4.3828 C.3       1 <0>         0.0000
     14 C14         2.5545    0.0310    5.8122 C.3       1 <0>         0.0000
     15 C15        -2.0454   -2.7414    9.0127 C.3       1 <0>         0.0000
     16 C16        -1.4822   -3.9950    9.7030 C.3       1 <0>         0.0000
     17 C17        -1.2346   -1.4877    9.3719 C.3       1 <0>         0.0000
     18 C18         7.2639    3.9207    8.0226 C.3       1 <0>         0.0000
     19 C19         5.0477    3.0997    7.0961 C.3       1 <0>         0.0000
     20 C20         6.0493    4.2555    7.1505 C.3       1 <0>         0.0000
     21 C21        -0.6444   -1.8488    5.9246 C.3       1 <0>         0.0000
     22 C22         0.5065   -2.0954    4.9464 C.3       1 <0>         0.0000
     23 C23        -1.0515   -3.1286    6.6610 C.3       1 <0>         0.0000
     24 C24         0.9341   -0.8215    4.2079 C.3       1 <0>         0.0000
     25 C25        -8.3000   -0.4197    6.4560 C.3       1 <0>         0.0000
     26 N1        -11.0516   -1.9719    8.4072 N.1       1 <0>         0.0000
     27 N2         -4.2720   -2.6454    8.2794 N.am      1 <0>         0.0000
     28 N3         -2.1845   -2.9293    7.5620 N.pl3     1 <0>         0.0000
     29 N4          2.8615    2.4467    6.1187 N.am      1 <0>         0.0000
     30 N5          1.3005    0.2795    5.1029 N.3       1 <0>         0.0000
     31 O1         -3.9080   -2.3580   10.5656 O.2       1 <0>         0.0000
     32 O2          3.7211    4.5022    5.6517 O.2       1 <0>         0.0000
     33 F1         -7.3758    0.2099    5.6947 F         1 <0>         0.0000
     34 F2         -9.1704   -1.0233    5.6146 F         1 <0>         0.0000
     35 F3         -8.9858    0.5372    7.1253 F         1 <0>         0.0000
     36 S1         -4.0322   -3.1540    5.5976 S.2       1 <0>         0.0000
     37 H1         -8.4608   -3.6418    9.8568 H         1 <0>         0.0000
     38 H2         -5.9914   -3.9336    9.8425 H         1 <0>         0.0000
     39 H3         -5.6709   -0.9948    6.7238 H         1 <0>         0.0000
     40 H4          1.7856    3.6437    4.8074 H         1 <0>         0.0000
     41 H5          0.7974    2.8161    6.0321 H         1 <0>         0.0000
     42 H6          2.0779    1.1633    7.5821 H         1 <0>         0.0000
     43 H7          3.8126    0.9745    7.2803 H         1 <0>         0.0000
     44 H8          0.4203    1.7286    3.8794 H         1 <0>         0.0000
     45 H9          2.1670    1.5358    3.6084 H         1 <0>         0.0000
     46 H10         3.4041   -0.0677    5.1081 H         1 <0>         0.0000
     47 H11         2.4776   -0.9065    6.3709 H         1 <0>         0.0000
     48 H12        -0.4293   -4.1392    9.4449 H         1 <0>         0.0000
     49 H13        -2.0399   -4.8875    9.4056 H         1 <0>         0.0000
     50 H14        -1.5598   -3.8754   10.7863 H         1 <0>         0.0000
     51 H15        -0.1870   -1.6165    9.0853 H         1 <0>         0.0000
     52 H16        -1.2846   -1.3238   10.4512 H         1 <0>         0.0000
     53 H17        -1.6299   -0.6047    8.8632 H         1 <0>         0.0000
     54 H18         7.8034    3.0457    7.6402 H         1 <0>         0.0000
     55 H19         6.9679    3.7011    9.0556 H         1 <0>         0.0000
     56 H20         7.9696    4.7574    8.0517 H         1 <0>         0.0000
     57 H21         5.5421    2.1994    6.7083 H         1 <0>         0.0000
     58 H22         4.7156    2.8486    8.1120 H         1 <0>         0.0000
     59 H23         5.5447    5.1494    7.5293 H         1 <0>         0.0000
     60 H24         6.3683    4.5016    6.1333 H         1 <0>         0.0000
     61 H25        -1.5140   -1.4681    5.3793 H         1 <0>         0.0000
     62 H26        -0.3555   -1.0763    6.6418 H         1 <0>         0.0000
     63 H27         1.3612   -2.5393    5.4726 H         1 <0>         0.0000
     64 H28         0.2029   -2.8322    4.1925 H         1 <0>         0.0000
     65 H29        -0.2189   -3.5101    7.2591 H         1 <0>         0.0000
     66 H30        -1.3284   -3.9071    5.9446 H         1 <0>         0.0000
     67 H31         1.7557   -1.0612    3.5062 H         1 <0>         0.0000
     68 H32         0.0909   -0.4767    3.5990 H         1 <0>         0.0000
@<TRIPOS>BOND
     1    1    5 1
     2    1   26 3
     3    2    3 ar
     4    2    5 ar
     5    2   37 1
     6    3    7 ar
     7    3   38 1
     8    4    6 ar
     9    4    7 ar
    10    4   39 1
    11    5    6 ar
    12    6   25 1
    13    7   27 1
    14    8   15 1
    15    8   27 am
    16    8   31 2
    17    9   27 1
    18    9   28 1
    19    9   36 2
    20   10   19 1
    21   10   29 am
    22   10   32 2
    23   11   13 1
    24   11   29 1
    25   11   40 1
    26   11   41 1
    27   12   14 1
    28   12   29 1
    29   12   42 1
    30   12   43 1
    31   13   30 1
    32   13   44 1
    33   13   45 1
    34   14   30 1
    35   14   46 1
    36   14   47 1
    37   15   16 1
    38   15   17 1
    39   15   28 1
    40   16   48 1
    41   16   49 1
    42   16   50 1
    43   17   51 1
    44   17   52 1
    45   17   53 1
    46   18   20 1
    47   18   54 1
    48   18   55 1
    49   18   56 1
    50   19   20 1
    51   19   57 1
    52   19   58 1
    53   20   59 1
    54   20   60 1
    55   21   22 1
    56   21   23 1
    57   21   61 1
    58   21   62 1
    59   22   24 1
    60   22   63 1
    61   22   64 1
    62   23   28 1
    63   23   65 1
    64   23   66 1
    65   24   30 1
    66   24   67 1
    67   24   68 1
    68   25   33 1
    69   25   34 1
    70   25   35 1
