@<TRIPOS>MOLECULE
*****
   43    46     0     0     0
SMALL
NO_CHARGES

@<TRIPOS>ATOM
      1 C1          2.9221   -3.0752   -0.7259 C.ar      1 <0>         0.0000
      2 C2          3.7410   -1.9781   -0.9941 C.ar      1 <0>         0.0000
      3 C3          4.2096   -4.3154   -2.3408 C.ar      1 <0>         0.0000
      4 C4          3.1644   -4.2621   -1.4141 C.ar      1 <0>         0.0000
      5 C5          4.7647   -2.1156   -1.9388 C.ar      1 <0>         0.0000
      6 C6          5.4746    1.2133    0.3848 C.2       1 <0>         0.0000
      7 C7          4.5668    1.1527   -1.6747 C.2       1 <0>         0.0000
      8 C8          2.2148    1.7703    0.0100 C.2       1 <0>         0.0000
      9 C9          5.6798    1.7057    1.7795 C.3       1 <0>         0.0000
     10 C10         4.3719    2.3059    2.3282 C.3       1 <0>         0.0000
     11 C11         3.7649    3.3030    1.3286 C.3       1 <0>         0.0000
     12 C12        -0.0958    1.3231   -0.5847 C.3       1 <0>         0.0000
     13 C13        -1.2150    2.1098   -1.2543 C.3       1 <0>         0.0000
     14 C14         1.1185    3.1484   -1.7684 C.3       1 <0>         0.0000
     15 C15         3.4631    2.6763   -0.0480 C.3       1 <0>         0.0000
     16 C16         5.6934   -0.9748   -2.3254 C.3       1 <0>         0.0000
     17 N1          4.9922   -3.2632   -2.5957 N.ar      1 <0>         0.0000
     18 N2          6.0741    0.2203   -0.2064 N.2       1 <0>         0.0000
     19 N3          4.5889    1.8536   -0.4643 N.am      1 <0>         0.0000
     20 N4          5.5465    0.2025   -1.4994 N.am      1 <0>         0.0000
     21 N5          1.1048    2.1703   -0.6634 N.am      1 <0>         0.0000
     22 O1          3.8172    1.3538   -2.6310 O.2       1 <0>         0.0000
     23 O2          2.2380    0.7394    0.6921 O.2       1 <0>         0.0000
     24 S1         -0.4242    2.8708   -2.7202 S.3       1 <0>         0.0000
     25 Cl1         2.1765   -5.6825   -1.1275 Cl        1 <0>         0.0000
     26 H1          2.1183   -3.0048    0.0006 H         1 <0>         0.0000
     27 H2          3.5666   -1.0475   -0.4662 H         1 <0>         0.0000
     28 H3          4.4157   -5.2337   -2.8872 H         1 <0>         0.0000
     29 H4          6.0411    0.8809    2.3978 H         1 <0>         0.0000
     30 H5          6.4639    2.4742    1.7708 H         1 <0>         0.0000
     31 H6          3.6561    1.5058    2.5279 H         1 <0>         0.0000
     32 H7          4.5755    2.8201    3.2727 H         1 <0>         0.0000
     33 H8          2.8401    3.7322    1.7262 H         1 <0>         0.0000
     34 H9          4.4628    4.1341    1.1710 H         1 <0>         0.0000
     35 H10        -0.3110    1.1047    0.4639 H         1 <0>         0.0000
     36 H11         0.0851    0.3749   -1.1024 H         1 <0>         0.0000
     37 H12        -2.0265    1.4607   -1.5884 H         1 <0>         0.0000
     38 H13        -1.6193    2.8797   -0.5909 H         1 <0>         0.0000
     39 H14         1.1418    4.1707   -1.3782 H         1 <0>         0.0000
     40 H15         1.9654    2.9688   -2.4340 H         1 <0>         0.0000
     41 H16         3.3362    3.4695   -0.7846 H         1 <0>         0.0000
     42 H17         6.7296   -1.3144   -2.2703 H         1 <0>         0.0000
     43 H18         5.4875   -0.6805   -3.3578 H         1 <0>         0.0000
@<TRIPOS>BOND
     1    1    2 ar
     2    1    4 ar
     3    1   26 1
     4    2    5 ar
     5    2   27 1
     6    3    4 ar
     7    3   17 ar
     8    3   28 1
     9    4   25 1
    10    5   16 1
    11    5   17 ar
    12    6    9 1
    13    6   18 2
    14    6   19 1
    15    7   19 am
    16    7   20 am
    17    7   22 2
    18    8   15 1
    19    8   21 am
    20    8   23 2
    21    9   10 1
    22    9   29 1
    23    9   30 1
    24   10   11 1
    25   10   31 1
    26   10   32 1
    27   11   15 1
    28   11   33 1
    29   11   34 1
    30   12   13 1
    31   12   21 1
    32   12   35 1
    33   12   36 1
    34   13   24 1
    35   13   37 1
    36   13   38 1
    37   14   21 1
    38   14   24 1
    39   14   39 1
    40   14   40 1
    41   15   19 1
    42   15   41 1
    43   16   20 1
    44   16   42 1
    45   16   43 1
    46   18   20 1
