@<TRIPOS>MOLECULE
*****
   64    68     0     0     0
SMALL
NO_CHARGES

@<TRIPOS>ATOM
      1 C1         -5.2457   -4.7402   11.6335 C.ar      1 <0>         0.0000
      2 C2         -5.7760   -3.9504   10.5821 C.ar      1 <0>         0.0000
      3 C3          6.3233    2.8202   -0.9185 C.ar      1 <0>         0.0000
      4 C4          7.2826    2.0831   -0.1980 C.ar      1 <0>         0.0000
      5 C5         -3.9911   -5.3054   11.5083 C.ar      1 <0>         0.0000
      6 C6         -5.0425   -3.7418    9.4300 C.ar      1 <0>         0.0000
      7 C7          4.9834    2.4205   -0.9272 C.ar      1 <0>         0.0000
      8 C8          1.9982    0.8630   -0.3330 C.ar      1 <0>         0.0000
      9 C9          6.9292    0.9358    0.5198 C.ar      1 <0>         0.0000
     10 C10         0.9890    0.0488    0.1751 C.ar      1 <0>         0.0000
     11 C11        -1.9163   -5.6648   10.1785 C.ar      1 <0>         0.0000
     12 C12        -2.9773   -4.1144    8.0945 C.ar      1 <0>         0.0000
     13 C13         2.6317   -1.3822    1.2940 C.ar      1 <0>         0.0000
     14 C14        -3.2154   -5.1074   10.3354 C.ar      1 <0>         0.0000
     15 C15        -3.7490   -4.3101    9.2738 C.ar      1 <0>         0.0000
     16 C16         4.6011    1.2764   -0.2160 C.ar      1 <0>         0.0000
     17 C17         3.3372    0.6070    0.0104 C.ar      1 <0>         0.0000
     18 C18         5.5891    0.5298    0.5038 C.ar      1 <0>         0.0000
     19 C19         3.6223   -0.5166    0.8294 C.ar      1 <0>         0.0000
     20 C20         1.3071   -1.0479    1.0140 C.ar      1 <0>         0.0000
     21 C21        -1.1781   -5.4658    9.0354 C.ar      1 <0>         0.0000
     22 C22        -1.7237   -4.6816    7.9576 C.ar      1 <0>         0.0000
     23 C23         3.9703   -2.1631    3.9903 C.2       1 <0>         0.0000
     24 C24         1.1867   -5.2221    8.7586 C.3       1 <0>         0.0000
     25 C25         5.1777   -1.2772    3.5287 C.3       1 <0>         0.0000
     26 C26        -0.6334   -2.8346    3.5314 C.3       1 <0>         0.0000
     27 C27        -0.2411   -3.6727    4.7578 C.3       1 <0>         0.0000
     28 C28         5.6060   -1.4891    2.0631 C.3       1 <0>         0.0000
     29 C29         0.6029   -2.5798    2.6867 C.3       1 <0>         0.0000
     30 C30        -1.3638   -3.7326    5.7781 C.3       1 <0>         0.0000
     31 N1          4.9823   -0.5606    1.1123 N.pl3     1 <0>         0.0000
     32 O1          3.1898   -1.6483    4.8354 O.co2     1 <0>         0.0000
     33 O2          3.9014   -3.3136    3.4622 O.co2     1 <0>         0.0000
     34 O3          0.0411   -6.0836    8.9207 O.3       1 <0>         0.0000
     35 O4          0.2550   -1.7321    1.5690 O.3       1 <0>         0.0000
     36 O5         -0.9348   -4.5774    6.8602 O.3       1 <0>         0.0000
     37 H1         -5.8294   -4.8987   12.5371 H         1 <0>         0.0000
     38 H2         -6.7638   -3.5078   10.6859 H         1 <0>         0.0000
     39 H3          6.6285    3.7085   -1.4667 H         1 <0>         0.0000
     40 H4          8.3196    2.4116   -0.1947 H         1 <0>         0.0000
     41 H5         -3.5797   -5.9120   12.3126 H         1 <0>         0.0000
     42 H6         -5.4500   -3.1348    8.6242 H         1 <0>         0.0000
     43 H7          4.2423    2.9961   -1.4782 H         1 <0>         0.0000
     44 H8          1.7410    1.7135   -0.9613 H         1 <0>         0.0000
     45 H9          7.6803    0.3831    1.0767 H         1 <0>         0.0000
     46 H10        -0.0576    0.2577   -0.0282 H         1 <0>         0.0000
     47 H11        -1.4797   -6.2678   10.9706 H         1 <0>         0.0000
     48 H12        -3.4012   -3.5214    7.2917 H         1 <0>         0.0000
     49 H13         2.8975   -2.2393    1.8998 H         1 <0>         0.0000
     50 H14         2.0574   -5.8775    8.8180 H         1 <0>         0.0000
     51 H15         1.2245   -4.4879    9.5728 H         1 <0>         0.0000
     52 H16         1.1733   -4.7115    7.7950 H         1 <0>         0.0000
     53 H17         6.0219   -1.5591    4.1717 H         1 <0>         0.0000
     54 H18         4.9632   -0.2222    3.7218 H         1 <0>         0.0000
     55 H19        -1.4133   -3.3372    2.9443 H         1 <0>         0.0000
     56 H20        -1.0402   -1.8658    3.8488 H         1 <0>         0.0000
     57 H21         0.6542   -3.2433    5.2209 H         1 <0>         0.0000
     58 H22         0.0202   -4.6919    4.4517 H         1 <0>         0.0000
     59 H23         5.3451   -2.5152    1.7842 H         1 <0>         0.0000
     60 H24         6.6860   -1.3760    1.9406 H         1 <0>         0.0000
     61 H25         1.3617   -2.0953    3.3068 H         1 <0>         0.0000
     62 H26         1.0297   -3.5198    2.3165 H         1 <0>         0.0000
     63 H27        -2.2845   -4.1462    5.3426 H         1 <0>         0.0000
     64 H28        -1.5857   -2.7309    6.1688 H         1 <0>         0.0000
@<TRIPOS>BOND
     1    1    2 ar
     2    1    5 ar
     3    1   37 1
     4    2    6 ar
     5    2   38 1
     6    3    4 ar
     7    3    7 ar
     8    3   39 1
     9    4    9 ar
    10    4   40 1
    11    5   14 ar
    12    5   41 1
    13    6   15 ar
    14    6   42 1
    15    7   16 ar
    16    7   43 1
    17    8   10 ar
    18    8   17 ar
    19    8   44 1
    20    9   18 ar
    21    9   45 1
    22   10   20 ar
    23   10   46 1
    24   11   14 ar
    25   11   21 ar
    26   11   47 1
    27   12   15 ar
    28   12   22 ar
    29   12   48 1
    30   13   19 ar
    31   13   20 ar
    32   13   49 1
    33   14   15 ar
    34   16   17 1
    35   16   18 ar
    36   17   19 ar
    37   18   31 1
    38   19   31 1
    39   20   35 1
    40   21   22 ar
    41   21   34 1
    42   22   36 1
    43   23   25 1
    44   23   32 1
    45   23   33 2
    46   24   34 1
    47   24   50 1
    48   24   51 1
    49   24   52 1
    50   25   28 1
    51   25   53 1
    52   25   54 1
    53   26   27 1
    54   26   29 1
    55   26   55 1
    56   26   56 1
    57   27   30 1
    58   27   57 1
    59   27   58 1
    60   28   31 1
    61   28   59 1
    62   28   60 1
    63   29   35 1
    64   29   61 1
    65   29   62 1
    66   30   36 1
    67   30   63 1
    68   30   64 1
