@<TRIPOS>MOLECULE
*****
   28    29     0     0     0
SMALL
NO_CHARGES

@<TRIPOS>ATOM
      1 C1          1.1252    0.6099    0.0479 C.ar      1 <0>         0.0000
      2 C2         -0.0676    1.3414    0.0806 C.ar      1 <0>         0.0000
      3 C3          2.3731    1.2451    0.0516 C.ar      1 <0>         0.0000
      4 C4          1.2554    3.3845    0.1148 C.ar      1 <0>         0.0000
      5 C5          0.0145    2.7319    0.1159 C.ar      1 <0>         0.0000
      6 C6          2.4532    2.6438    0.0876 C.ar      1 <0>         0.0000
      7 C7          1.0697    4.8498    0.1470 C.2       1 <0>         0.0000
      8 C8         -0.8881    6.1008    1.1123 C.2       1 <0>         0.0000
      9 C9         -1.1289    3.7206    0.1871 C.3       1 <0>         0.0000
     10 C10        -0.4700    5.1036    0.0514 C.3       1 <0>         0.0000
     11 C11        -0.7373    9.7369    0.9531 C.3       1 <0>         0.0000
     12 C12        -0.9989    8.4110    1.6425 C.3       1 <0>         0.0000
     13 O1          1.9116    5.7240    0.2197 O.2       1 <0>         0.0000
     14 O2         -1.2511    5.8025    2.2361 O.2       1 <0>         0.0000
     15 O3          3.6382    3.3103    0.0892 O.3       1 <0>         0.0000
     16 O4         -0.7686    7.3626    0.6636 O.3       1 <0>         0.0000
     17 H1          1.0911   -0.4763    0.0199 H         1 <0>         0.0000
     18 H2         -1.0288    0.8347    0.0829 H         1 <0>         0.0000
     19 H3          3.2848    0.6506    0.0244 H         1 <0>         0.0000
     20 H4         -1.8709    3.5366   -0.5957 H         1 <0>         0.0000
     21 H5         -1.6369    3.6400    1.1529 H         1 <0>         0.0000
     22 H6         -0.6395    5.5490   -0.9329 H         1 <0>         0.0000
     23 H7          0.2926    9.7868    0.5885 H         1 <0>         0.0000
     24 H8         -1.4137    9.8781    0.1047 H         1 <0>         0.0000
     25 H9         -0.8955   10.5572    1.6607 H         1 <0>         0.0000
     26 H10        -2.0270    8.3289    2.0070 H         1 <0>         0.0000
     27 H11        -0.3258    8.2466    2.4881 H         1 <0>         0.0000
     28 H12         4.3634    2.6646    0.0660 H         1 <0>         0.0000
@<TRIPOS>BOND
     1    1    2 ar
     2    1    3 ar
     3    1   17 1
     4    2    5 ar
     5    2   18 1
     6    3    6 ar
     7    3   19 1
     8    4    5 ar
     9    4    6 ar
    10    4    7 1
    11    5    9 1
    12    6   15 1
    13    7   10 1
    14    7   13 2
    15    8   10 1
    16    8   14 2
    17    8   16 1
    18    9   10 1
    19    9   20 1
    20    9   21 1
    21   10   22 1
    22   11   12 1
    23   11   23 1
    24   11   24 1
    25   11   25 1
    26   12   16 1
    27   12   26 1
    28   12   27 1
    29   15   28 1
