@<TRIPOS>MOLECULE
*****
   31    32     0     0     0
SMALL
NO_CHARGES

@<TRIPOS>ATOM
      1 C1         -0.2520    1.8768    1.0244 C.ar      1 <0>         0.0000
      2 C2         -4.6100    2.5651    3.0369 C.ar      1 <0>         0.0000
      3 C3         -1.1173    2.6906    1.7587 C.ar      1 <0>         0.0000
      4 C4         -3.3285    3.0402    2.7800 C.ar      1 <0>         0.0000
      5 C5         -0.6774    0.6287    0.5708 C.ar      1 <0>         0.0000
      6 C6         -4.9682    1.3162    2.5572 C.ar      1 <0>         0.0000
      7 C7         -2.4223    2.2616    2.0475 C.ar      1 <0>         0.0000
      8 C8         -2.8420    0.9954    1.5829 C.ar      1 <0>         0.0000
      9 C9         -1.9700    0.1860    0.8482 C.ar      1 <0>         0.0000
     10 C10        -4.9789   -0.6941   -0.0571 C.3       1 <0>         0.0000
     11 C11        -2.0376   -3.4191    0.1863 C.3       1 <0>         0.0000
     12 C12        -4.6188   -0.7169    1.4162 C.3       1 <0>         0.0000
     13 C13        -1.5130   -2.1477    0.8188 C.3       1 <0>         0.0000
     14 N1         -4.0932    0.5811    1.8583 N.ar      1 <0>         0.0000
     15 O1         -2.2967   -1.0458    0.3657 O.3       1 <0>         0.0000
     16 H1          0.7558    2.2178    0.8050 H         1 <0>         0.0000
     17 H2         -5.3167    3.1623    3.6030 H         1 <0>         0.0000
     18 H3         -0.7653    3.6608    2.1022 H         1 <0>         0.0000
     19 H4         -3.0411    4.0194    3.1557 H         1 <0>         0.0000
     20 H5          0.0081    0.0067    0.0004 H         1 <0>         0.0000
     21 H6         -5.9523    0.8943    2.7262 H         1 <0>         0.0000
     22 H7         -5.7313    0.0739   -0.2631 H         1 <0>         0.0000
     23 H8         -5.3807   -1.6629   -0.3687 H         1 <0>         0.0000
     24 H9         -4.0998   -0.4712   -0.6702 H         1 <0>         0.0000
     25 H10        -3.0799   -3.5934    0.4673 H         1 <0>         0.0000
     26 H11        -1.9701   -3.3636   -0.9052 H         1 <0>         0.0000
     27 H12        -1.4387   -4.2810    0.4988 H         1 <0>         0.0000
     28 H13        -3.8657   -1.4886    1.6109 H         1 <0>         0.0000
     29 H14        -5.4995   -0.9657    2.0189 H         1 <0>         0.0000
     30 H15        -0.4701   -1.9793    0.5338 H         1 <0>         0.0000
     31 H16        -1.5819   -2.2045    1.9092 H         1 <0>         0.0000
@<TRIPOS>BOND
     1    1    3 ar
     2    1    5 ar
     3    1   16 1
     4    2    4 ar
     5    2    6 ar
     6    2   17 1
     7    3    7 ar
     8    3   18 1
     9    4    7 ar
    10    4   19 1
    11    5    9 ar
    12    5   20 1
    13    6   14 ar
    14    6   21 1
    15    7    8 ar
    16    8    9 ar
    17    8   14 ar
    18    9   15 1
    19   10   12 1
    20   10   22 1
    21   10   23 1
    22   10   24 1
    23   11   13 1
    24   11   25 1
    25   11   26 1
    26   11   27 1
    27   12   14 1
    28   12   28 1
    29   12   29 1
    30   13   15 1
    31   13   30 1
    32   13   31 1
