@<TRIPOS>MOLECULE
*****
   43    44     0     0     0
SMALL
NO_CHARGES

@<TRIPOS>ATOM
      1 C1          4.6868    1.1899    6.9945 C.ar      1 <0>         0.0000
      2 C2          5.3303    1.6145    5.8271 C.ar      1 <0>         0.0000
      3 C3          2.5844    1.1687    5.7893 C.ar      1 <0>         0.0000
      4 C4          3.3096    0.9583    6.9779 C.ar      1 <0>         0.0000
      5 C5          4.6261    1.8192    4.6433 C.ar      1 <0>         0.0000
      6 C6          3.2229    1.5951    4.6201 C.ar      1 <0>         0.0000
      7 C7         -0.1072    3.7661    2.9350 C.3       1 <0>         0.0000
      8 C8          0.6654    3.3431    1.6719 C.3       1 <0>         0.0000
      9 C9          0.4183    2.8315    4.0586 C.3       1 <0>         0.0000
     10 C10         0.8190    1.8270    1.8588 C.3       1 <0>         0.0000
     11 C11         1.1608    1.6716    3.3431 C.3       1 <0>         0.0000
     12 C12         3.4069   -0.1402    9.2921 C.3       1 <0>         0.0000
     13 C13         5.3326    1.4796    2.3791 C.3       1 <0>         0.0000
     14 C14         1.8734    1.8275    8.7930 C.3       1 <0>         0.0000
     15 C15         2.5447    0.5599    8.2329 C.3       1 <0>         0.0000
     16 N1          0.8158    1.4128    9.8111 N.4       1 <0>         0.0000
     17 O1          1.3950   -0.2669    7.9266 O.3       1 <0>         0.0000
     18 O2          2.5993    1.8314    3.4414 O.3       1 <0>         0.0000
     19 O3          5.3027    2.3034    3.5634 O.3       1 <0>         0.0000
     20 H1          5.2780    1.0408    7.8913 H         1 <0>         0.0000
     21 H2          6.4001    1.7997    5.8166 H         1 <0>         0.0000
     22 H3          1.5141    1.0029    5.7873 H         1 <0>         0.0000
     23 H4          0.0259    4.8231    3.1796 H         1 <0>         0.0000
     24 H5         -1.1791    3.6008    2.7830 H         1 <0>         0.0000
     25 H6          0.1452    3.6084    0.7478 H         1 <0>         0.0000
     26 H7          1.6527    3.8164    1.6486 H         1 <0>         0.0000
     27 H8          1.1162    3.3560    4.7172 H         1 <0>         0.0000
     28 H9         -0.3968    2.4515    4.6840 H         1 <0>         0.0000
     29 H10        -0.1374    1.3262    1.6675 H         1 <0>         0.0000
     30 H11         1.5752    1.3628    1.2209 H         1 <0>         0.0000
     31 H12         0.9003    0.6793    3.7269 H         1 <0>         0.0000
     32 H13         2.7880   -0.5224   10.1115 H         1 <0>         0.0000
     33 H14         4.1663    0.5239    9.7113 H         1 <0>         0.0000
     34 H15         3.9192   -0.9988    8.8513 H         1 <0>         0.0000
     35 H16         5.9956    1.9942    1.6831 H         1 <0>         0.0000
     36 H17         4.3376    1.3767    1.9428 H         1 <0>         0.0000
     37 H18         5.7456    0.4929    2.6176 H         1 <0>         0.0000
     38 H19         2.5813    2.4982    9.2793 H         1 <0>         0.0000
     39 H20         1.3421    2.3545    8.0007 H         1 <0>         0.0000
     40 H21         1.2326    1.0984   10.6938 H         1 <0>         0.0000
     41 H22         0.3109    0.6096    9.3979 H         1 <0>         0.0000
     42 H23         0.1518    2.1657   10.0227 H         1 <0>         0.0000
     43 H24         1.6810   -1.0312    7.3981 H         1 <0>         0.0000
@<TRIPOS>BOND
     1    1    2 ar
     2    1    4 ar
     3    1   20 1
     4    2    5 ar
     5    2   21 1
     6    3    4 ar
     7    3    6 ar
     8    3   22 1
     9    4   15 1
    10    5    6 ar
    11    5   19 1
    12    6   18 1
    13    7    8 1
    14    7    9 1
    15    7   23 1
    16    7   24 1
    17    8   10 1
    18    8   25 1
    19    8   26 1
    20    9   11 1
    21    9   27 1
    22    9   28 1
    23   10   11 1
    24   10   29 1
    25   10   30 1
    26   11   18 1
    27   11   31 1
    28   12   15 1
    29   12   32 1
    30   12   33 1
    31   12   34 1
    32   13   19 1
    33   13   35 1
    34   13   36 1
    35   13   37 1
    36   14   15 1
    37   14   16 1
    38   14   38 1
    39   14   39 1
    40   15   17 1
    41   16   40 1
    42   16   41 1
    43   16   42 1
    44   17   43 1
