@<TRIPOS>MOLECULE
*****
   31    32     0     0     0
SMALL
NO_CHARGES

@<TRIPOS>ATOM
      1 C1         -1.4490    0.3640    1.0280 C.ar      1 <0>         0.0000
      2 C2          5.8920    0.4460    1.5770 C.ar      1 <0>         0.0000
      3 C3         -1.2520   -1.0000    1.1880 C.ar      1 <0>         0.0000
      4 C4          5.7910    0.4300    0.1940 C.ar      1 <0>         0.0000
      5 C5         -0.4910    1.1300    0.3770 C.ar      1 <0>         0.0000
      6 C6          4.9340   -0.2000    2.3480 C.ar      1 <0>         0.0000
      7 C7         -0.0930   -1.5930    0.7010 C.ar      1 <0>         0.0000
      8 C8          4.7300   -0.2290   -0.4150 C.ar      1 <0>         0.0000
      9 C9          0.6740    0.5450   -0.1210 C.ar      1 <0>         0.0000
     10 C10         3.8650   -0.8670    1.7490 C.ar      1 <0>         0.0000
     11 C11         0.8890   -0.8370    0.0470 C.ar      1 <0>         0.0000
     12 C12         3.7490   -0.8800    0.3450 C.ar      1 <0>         0.0000
     13 C13         1.6790    1.4440   -0.8240 C.3       1 <0>         0.0000
     14 C14         2.8540   -1.5520    2.6530 C.3       1 <0>         0.0000
     15 O1          2.3220   -3.0580   -0.1290 O.2       1 <0>         0.0000
     16 O2          2.5300   -1.4590   -1.9350 O.2       1 <0>         0.0000
     17 S1          2.3820   -1.6920   -0.5350 S.o2      1 <0>         0.0000
     18 H1         -2.3310    0.8200    1.4000 H         1 <0>         0.0000
     19 H2          6.7000    0.9480    2.0450 H         1 <0>         0.0000
     20 H3         -1.9840   -1.5880    1.6790 H         1 <0>         0.0000
     21 H4          6.5240    0.9180   -0.3970 H         1 <0>         0.0000
     22 H5         -0.6560    2.1710    0.2600 H         1 <0>         0.0000
     23 H6          5.0250   -0.1810    3.4040 H         1 <0>         0.0000
     24 H7          0.0470   -2.6380    0.8260 H         1 <0>         0.0000
     25 H8          4.6650   -0.2380   -1.4740 H         1 <0>         0.0000
     26 H9          1.2240    2.4170   -1.0100 H         1 <0>         0.0000
     27 H10         1.9560    1.0030   -1.7810 H         1 <0>         0.0000
     28 H11         2.5470    1.5720   -0.1780 H         1 <0>         0.0000
     29 H12         3.2320   -1.5610    3.6760 H         1 <0>         0.0000
     30 H13         2.7130   -2.5830    2.3280 H         1 <0>         0.0000
     31 H14         1.9190   -0.9940    2.6230 H         1 <0>         0.0000
@<TRIPOS>BOND
     1    1    3 ar
     2    1    5 ar
     3    1   18 1
     4    2    4 ar
     5    2    6 ar
     6    2   19 1
     7    3    7 ar
     8    3   20 1
     9    4    8 ar
    10    4   21 1
    11    5    9 ar
    12    5   22 1
    13    6   10 ar
    14    6   23 1
    15    7   11 ar
    16    7   24 1
    17    8   12 ar
    18    8   25 1
    19    9   11 ar
    20    9   13 1
    21   10   12 ar
    22   10   14 1
    23   11   17 1
    24   12   17 1
    25   13   26 1
    26   13   27 1
    27   13   28 1
    28   14   29 1
    29   14   30 1
    30   14   31 1
    31   15   17 2
    32   16   17 2
