@<TRIPOS>MOLECULE
*****
   29    30     0     0     0
SMALL
NO_CHARGES

@<TRIPOS>ATOM
      1 C1         -4.0575   -1.7304    7.8311 C.ar      1 <0>         0.0000
      2 C2         -5.0322   -1.2512    6.9453 C.ar      1 <0>         0.0000
      3 C3         -2.7015   -1.5006    7.5818 C.ar      1 <0>         0.0000
      4 C4         -4.6534   -0.5431    5.8048 C.ar      1 <0>         0.0000
      5 C5         -2.3084   -0.7909    6.4418 C.ar      1 <0>         0.0000
      6 C6         -3.2925   -0.3272    5.5685 C.ar      1 <0>         0.0000
      7 C7         -2.9675   -2.1514    0.2365 C.2       1 <0>         0.0000
      8 C8         -1.7687   -1.1992    0.2555 C.3       1 <0>         0.0000
      9 C9         -3.2691   -2.5796    1.6757 C.3       1 <0>         0.0000
     10 C10        -1.2246   -1.2731    1.6912 C.3       1 <0>         0.0000
     11 C11        -2.4645   -1.6131    2.5582 C.3       1 <0>         0.0000
     12 N1         -3.3159   -0.4523    2.8889 N.pl3     1 <0>         0.0000
     13 O1         -3.5799   -2.5115   -0.7495 O.2       1 <0>         0.0000
     14 O2         -3.6529    1.7802    3.9543 O.2       1 <0>         0.0000
     15 O3         -1.3411    0.7190    4.1489 O.2       1 <0>         0.0000
     16 S1         -2.8044    0.5959    4.1111 S.o2      1 <0>         0.0000
     17 H1         -4.3585   -2.2811    8.7183 H         1 <0>         0.0000
     18 H2         -6.0853   -1.4274    7.1458 H         1 <0>         0.0000
     19 H3         -1.9487   -1.8681    8.2736 H         1 <0>         0.0000
     20 H4         -5.3935   -0.1605    5.1091 H         1 <0>         0.0000
     21 H5         -1.2634   -0.5900    6.2287 H         1 <0>         0.0000
     22 H6         -1.0513   -1.4701   -0.5230 H         1 <0>         0.0000
     23 H7         -2.1342   -0.1947    0.0052 H         1 <0>         0.0000
     24 H8         -4.3408   -2.5936    1.8840 H         1 <0>         0.0000
     25 H9         -2.8916   -3.6027    1.7959 H         1 <0>         0.0000
     26 H10        -0.5061   -2.0963    1.7767 H         1 <0>         0.0000
     27 H11        -0.7296   -0.3645    2.0334 H         1 <0>         0.0000
     28 H12        -2.1817   -2.0702    3.5089 H         1 <0>         0.0000
     29 H13        -3.6236    0.1106    2.0951 H         1 <0>         0.0000
@<TRIPOS>BOND
     1    1    3 ar
     2    1    2 ar
     3    1   17 1
     4    2    4 ar
     5    2   18 1
     6    3    5 ar
     7    3   19 1
     8    4    6 ar
     9    4   20 1
    10    5    6 ar
    11    5   21 1
    12    6   16 1
    13    7    8 1
    14    7    9 1
    15    7   13 2
    16    8   10 1
    17    8   22 1
    18    8   23 1
    19    9   11 1
    20    9   24 1
    21    9   25 1
    22   10   11 1
    23   10   26 1
    24   10   27 1
    25   11   12 1
    26   11   28 1
    27   12   16 1
    28   12   29 1
    29   14   16 2
    30   15   16 2
