@<TRIPOS>MOLECULE
*****
   33    35     0     0     0
SMALL
NO_CHARGES

@<TRIPOS>ATOM
      1 C1         -5.1007   -0.9371   -4.7968 C.ar      1 <0>         0.0000
      2 C2         -7.2071   -2.0789   -5.0257 C.ar      1 <0>         0.0000
      3 C3         -4.6847   -1.9521   -3.9295 C.ar      1 <0>         0.0000
      4 C4         -6.3763   -1.0057   -5.3486 C.ar      1 <0>         0.0000
      5 C5         -5.5910   -2.9974   -3.6459 C.ar      1 <0>         0.0000
      6 C6         -0.9627    0.2967   -2.5456 C.3       1 <0>         0.0000
      7 C7         -0.2675    0.2819   -3.8932 C.3       1 <0>         0.0000
      8 C8         -4.9067   -3.8525   -1.2876 C.3       1 <0>         0.0000
      9 C9         -6.2070   -4.5300   -1.6687 C.3       1 <0>         0.0000
     10 C10        -1.0975   -0.9004   -3.4585 C.3       1 <0>         0.0000
     11 C11        -5.2214   -4.1450   -2.7431 C.3       1 <0>         0.0000
     12 C12        -4.4738   -5.2688   -3.4482 C.3       1 <0>         0.0000
     13 C13        -3.3049   -1.8859   -3.3015 C.3       1 <0>         0.0000
     14 N1         -6.8175   -3.0470   -4.1922 N.ar      1 <0>         0.0000
     15 N2         -2.3723   -1.0924   -4.1066 N.3       1 <0>         0.0000
     16 Cl1        -6.9431    0.2440   -6.4432 Cl        1 <0>         0.0000
     17 H1         -4.4293   -0.1163   -5.0250 H         1 <0>         0.0000
     18 H2         -8.2066   -2.1554   -5.4495 H         1 <0>         0.0000
     19 H3         -0.3584    0.1960   -1.6489 H         1 <0>         0.0000
     20 H4         -1.8376    0.9322   -2.4478 H         1 <0>         0.0000
     21 H5         -0.6854    0.9102   -4.6735 H         1 <0>         0.0000
     22 H6          0.8123    0.1685   -3.9179 H         1 <0>         0.0000
     23 H7         -4.9612   -2.8221   -0.9472 H         1 <0>         0.0000
     24 H8         -4.1306   -4.4431   -0.8072 H         1 <0>         0.0000
     25 H9         -6.3205   -5.5876   -1.4472 H         1 <0>         0.0000
     26 H10        -7.1238   -3.9537   -1.6011 H         1 <0>         0.0000
     27 H11        -0.5487   -1.7985   -3.1573 H         1 <0>         0.0000
     28 H12        -4.2250   -6.0714   -2.7459 H         1 <0>         0.0000
     29 H13        -3.5392   -4.9168   -3.8999 H         1 <0>         0.0000
     30 H14        -5.0942   -5.6924   -4.2450 H         1 <0>         0.0000
     31 H15        -3.3808   -1.3994   -2.3212 H         1 <0>         0.0000
     32 H16        -2.9356   -2.9013   -3.1030 H         1 <0>         0.0000
     33 H17        -2.2319   -1.5456   -5.0089 H         1 <0>         0.0000
@<TRIPOS>BOND
     1    1    3 ar
     2    1    4 ar
     3    1   17 1
     4    2    4 ar
     5    2   14 ar
     6    2   18 1
     7    3    5 ar
     8    3   13 1
     9    4   16 1
    10    5   11 1
    11    5   14 ar
    12    6    7 1
    13    6   10 1
    14    6   19 1
    15    6   20 1
    16    7   10 1
    17    7   21 1
    18    7   22 1
    19    8    9 1
    20    8   11 1
    21    8   23 1
    22    8   24 1
    23    9   11 1
    24    9   25 1
    25    9   26 1
    26   10   15 1
    27   10   27 1
    28   11   12 1
    29   12   28 1
    30   12   29 1
    31   12   30 1
    32   13   15 1
    33   13   31 1
    34   13   32 1
    35   15   33 1
