@<TRIPOS>MOLECULE
*****
   40    43     0     0     0
SMALL
NO_CHARGES

@<TRIPOS>ATOM
      1 C1         -1.3639    1.4407   -0.8446 C.ar      1 <0>         0.0000
      2 C2         -1.2570    0.2673   -0.1122 C.ar      1 <0>         0.0000
      3 C3         -8.1644   -2.7399    0.0852 C.ar      1 <0>         0.0000
      4 C4         -2.2801    1.5142   -1.8869 C.ar      1 <0>         0.0000
      5 C5         -7.1759   -3.2636   -0.7479 C.ar      1 <0>         0.0000
      6 C6         -2.0595   -0.8353   -0.4246 C.ar      1 <0>         0.0000
      7 C7         -7.8780   -2.4710    1.4237 C.ar      1 <0>         0.0000
      8 C8         -5.6146   -3.2497    1.0958 C.ar      1 <0>         0.0000
      9 C9         -5.9010   -3.5185   -0.2427 C.ar      1 <0>         0.0000
     10 C10        -3.0852    0.4088   -2.2189 C.ar      1 <0>         0.0000
     11 C11        -2.9798   -0.7975   -1.4876 C.ar      1 <0>         0.0000
     12 C12        -6.6031   -2.7260    1.9289 C.ar      1 <0>         0.0000
     13 C13        -3.6205   -3.2111   -1.2797 C.2       1 <0>         0.0000
     14 C14        -4.0760    0.5844   -3.3400 C.3       1 <0>         0.0000
     15 C15        -4.5230   -0.7543   -3.8924 C.3       1 <0>         0.0000
     16 C16        -4.6369   -5.5676   -1.1642 C.3       1 <0>         0.0000
     17 C17        -5.2629   -4.8813   -2.3347 C.3       1 <0>         0.0000
     18 C18        -4.9395   -1.6600   -2.7472 C.3       1 <0>         0.0000
     19 C19        -4.8539   -4.0734   -1.1260 C.3       1 <0>         0.0000
     20 N1         -3.8288   -1.9258   -1.8140 N.am      1 <0>         0.0000
     21 O1         -2.5338   -3.6905   -0.9493 O.2       1 <0>         0.0000
     22 Cl1        -6.2504   -2.3940    3.5804 Cl        1 <0>         0.0000
     23 H1         -0.7461    2.2986   -0.5980 H         1 <0>         0.0000
     24 H2         -0.5562    0.2079    0.7160 H         1 <0>         0.0000
     25 H3         -9.1571   -2.5414   -0.3082 H         1 <0>         0.0000
     26 H4         -2.3692    2.4427   -2.4464 H         1 <0>         0.0000
     27 H5         -7.4091   -3.4696   -1.7893 H         1 <0>         0.0000
     28 H6         -1.9535   -1.6987    0.2224 H         1 <0>         0.0000
     29 H7         -8.6582   -2.0630    2.0611 H         1 <0>         0.0000
     30 H8         -4.6190   -3.4500    1.4855 H         1 <0>         0.0000
     31 H9         -4.9404    1.1398   -2.9556 H         1 <0>         0.0000
     32 H10        -3.6335    1.1735   -4.1519 H         1 <0>         0.0000
     33 H11        -5.3601   -0.6094   -4.5844 H         1 <0>         0.0000
     34 H12        -3.7124   -1.2257   -4.4628 H         1 <0>         0.0000
     35 H13        -5.2740   -6.1922   -0.5479 H         1 <0>         0.0000
     36 H14        -3.6319   -5.9550   -1.2868 H         1 <0>         0.0000
     37 H15        -4.6792   -4.8064   -3.2451 H         1 <0>         0.0000
     38 H16        -6.3208   -5.0437   -2.5062 H         1 <0>         0.0000
     39 H17        -5.7610   -1.2217   -2.1674 H         1 <0>         0.0000
     40 H18        -5.3045   -2.5950   -3.1814 H         1 <0>         0.0000
@<TRIPOS>BOND
     1    1    2 ar
     2    1    4 ar
     3    1   23 1
     4    2    6 ar
     5    2   24 1
     6    3    5 ar
     7    3    7 ar
     8    3   25 1
     9    4   10 ar
    10    4   26 1
    11    5    9 ar
    12    5   27 1
    13    6   11 ar
    14    6   28 1
    15    7   12 ar
    16    7   29 1
    17    8    9 ar
    18    8   12 ar
    19    8   30 1
    20    9   19 1
    21   10   11 ar
    22   10   14 1
    23   11   20 1
    24   12   22 1
    25   13   19 1
    26   13   20 am
    27   13   21 2
    28   14   15 1
    29   14   31 1
    30   14   32 1
    31   15   18 1
    32   15   33 1
    33   15   34 1
    34   16   17 1
    35   16   19 1
    36   16   35 1
    37   16   36 1
    38   17   19 1
    39   17   37 1
    40   17   38 1
    41   18   20 1
    42   18   39 1
    43   18   40 1
