@<TRIPOS>MOLECULE
*****
   26    26     0     0     0
SMALL
NO_CHARGES

@<TRIPOS>ATOM
      1 C1          1.7392   -2.2842    1.1403 C.2       1 <0>         0.0000
      2 C2          0.4613   -0.6315    2.6223 C.3       1 <0>         0.0000
      3 C3          1.0537   -0.0630    0.2980 C.3       1 <0>         0.0000
      4 C4          0.9559    0.7388    3.0794 C.3       1 <0>         0.0000
      5 C5          1.5599    1.3001    0.7537 C.3       1 <0>         0.0000
      6 C6          2.7464    3.3895    2.6760 C.3       1 <0>         0.0000
      7 N1          1.1316   -1.0467    1.3814 N.am      1 <0>         0.0000
      8 N2          0.8030    1.7241    1.9685 N.pl3     1 <0>         0.0000
      9 N3          1.7789   -3.1684    2.1967 N.am      1 <0>         0.0000
     10 O1          2.2236   -2.6059    0.0505 O.2       1 <0>         0.0000
     11 O2          0.3461    3.5794    3.6906 O.2       1 <0>         0.0000
     12 O3          0.7000    4.1965    1.2659 O.2       1 <0>         0.0000
     13 S1          0.9920    3.3676    2.4143 S.o2      1 <0>         0.0000
     14 H1          0.6092   -1.3429    3.4345 H         1 <0>         0.0000
     15 H2         -0.6131   -0.5971    2.4049 H         1 <0>         0.0000
     16 H3         -0.0001    0.0002    0.0005 H         1 <0>         0.0000
     17 H4          1.6211   -0.3950   -0.5769 H         1 <0>         0.0000
     18 H5          0.3571    1.0645    3.9369 H         1 <0>         0.0000
     19 H6          2.0062    0.6879    3.3889 H         1 <0>         0.0000
     20 H7          2.6326    1.2639    0.9755 H         1 <0>         0.0000
     21 H8          1.3948    2.0277   -0.0483 H         1 <0>         0.0000
     22 H9          3.0374    4.3977    2.9751 H         1 <0>         0.0000
     23 H10         2.9861    2.6730    3.4631 H         1 <0>         0.0000
     24 H11         3.2373    3.1108    1.7424 H         1 <0>         0.0000
     25 H12         2.2163   -4.0707    2.0387 H         1 <0>         0.0000
     26 H13         1.4042   -2.9840    3.1176 H         1 <0>         0.0000
@<TRIPOS>BOND
     1    1    7 am
     2    1    9 am
     3    1   10 2
     4    2    4 1
     5    2    7 1
     6    2   14 1
     7    2   15 1
     8    3    5 1
     9    3    7 1
    10    3   16 1
    11    3   17 1
    12    4    8 1
    13    4   18 1
    14    4   19 1
    15    5    8 1
    16    5   20 1
    17    5   21 1
    18    6   13 1
    19    6   22 1
    20    6   23 1
    21    6   24 1
    22    8   13 1
    23    9   25 1
    24    9   26 1
    25   11   13 2
    26   12   13 2
