@<TRIPOS>MOLECULE
*****
   41    42     0     0     0
SMALL
NO_CHARGES

@<TRIPOS>ATOM
      1 C1         -2.9747   -0.9563   -1.2663 C.2       1 <0>         0.0000
      2 C2         -1.9552    0.0143   -1.0325 C.2       1 <0>         0.0000
      3 C3         -0.9006   -0.5079   -0.3150 C.2       1 <0>         0.0000
      4 C4         -4.2205   -0.7876   -1.9742 C.2       1 <0>         0.0000
      5 C5         -2.6523   -2.1699   -0.7178 C.2       1 <0>         0.0000
      6 C6         -4.6781   -3.2366   -1.4491 C.2       1 <0>         0.0000
      7 C7         -2.0047    1.4235   -1.4976 C.3       1 <0>         0.0000
      8 C8         -4.7814   -4.1318    3.0457 C.3       1 <0>         0.0000
      9 C9          0.3438    0.1580    0.1309 C.3       1 <0>         0.0000
     10 C10        -7.2953   -1.1142   -1.8729 C.3       1 <0>         0.0000
     11 C11        -6.2706   -1.8476   -2.7366 C.3       1 <0>         0.0000
     12 C12        -2.9944   -4.5651   -0.1463 C.3       1 <0>         0.0000
     13 C13        -3.1840   -4.4776    1.3570 C.3       1 <0>         0.0000
     14 C14        -8.6341   -0.9940   -2.5816 C.3       1 <0>         0.0000
     15 N1         -5.0011   -1.9672   -2.0254 N.am      1 <0>         0.0000
     16 N2         -3.4360   -3.3180   -0.7700 N.am      1 <0>         0.0000
     17 O1         -4.5488    0.2861   -2.4728 O.2       1 <0>         0.0000
     18 O2         -5.4396   -4.2070   -1.5375 O.2       1 <0>         0.0000
     19 O3          1.2272    0.3238   -0.9763 O.3       1 <0>         0.0000
     20 O4         -4.5537   -4.2286    1.6465 O.3       1 <0>         0.0000
     21 F1         -9.1059   -2.2378   -2.8608 F         1 <0>         0.0000
     22 S1         -1.1477   -2.1575    0.0701 S.3       1 <0>         0.0000
     23 H1         -2.4791    2.0656   -0.7420 H         1 <0>         0.0000
     24 H2         -0.9982    1.8189   -1.7000 H         1 <0>         0.0000
     25 H3         -2.5725    1.5208   -2.4351 H         1 <0>         0.0000
     26 H4         -5.8412   -3.9407    3.2309 H         1 <0>         0.0000
     27 H5         -4.1763   -3.3209    3.4590 H         1 <0>         0.0000
     28 H6         -4.4955   -5.0745    3.5184 H         1 <0>         0.0000
     29 H7          0.1465    1.1528    0.5641 H         1 <0>         0.0000
     30 H8          0.8663   -0.4292    0.9043 H         1 <0>         0.0000
     31 H9         -6.9297   -0.1116   -1.6218 H         1 <0>         0.0000
     32 H10        -7.4383   -1.6622   -0.9336 H         1 <0>         0.0000
     33 H11        -6.1108   -1.3071   -3.6761 H         1 <0>         0.0000
     34 H12        -6.6343   -2.8500   -2.9865 H         1 <0>         0.0000
     35 H13        -1.9428   -4.7243   -0.4050 H         1 <0>         0.0000
     36 H14        -3.5926   -5.3832   -0.5587 H         1 <0>         0.0000
     37 H15        -2.5969   -3.6470    1.7610 H         1 <0>         0.0000
     38 H16        -2.8816   -5.4043    1.8555 H         1 <0>         0.0000
     39 H17        -8.5482   -0.4418   -3.5220 H         1 <0>         0.0000
     40 H18        -9.3680   -0.4934   -1.9436 H         1 <0>         0.0000
     41 H19         2.0209    0.7614   -0.6321 H         1 <0>         0.0000
@<TRIPOS>BOND
     1    1    2 1
     2    1    5 2
     3    1    4 1
     4    2    3 2
     5    2    7 1
     6    3    9 1
     7    3   22 1
     8    4   15 am
     9    4   17 2
    10    5   16 1
    11    5   22 1
    12    6   16 am
    13    6   15 am
    14    6   18 2
    15    7   23 1
    16    7   24 1
    17    7   25 1
    18    8   20 1
    19    8   26 1
    20    8   27 1
    21    8   28 1
    22    9   19 1
    23    9   29 1
    24    9   30 1
    25   10   11 1
    26   10   14 1
    27   10   31 1
    28   10   32 1
    29   11   15 1
    30   11   33 1
    31   11   34 1
    32   12   13 1
    33   12   16 1
    34   12   35 1
    35   12   36 1
    36   13   20 1
    37   13   37 1
    38   13   38 1
    39   14   21 1
    40   14   39 1
    41   14   40 1
    42   19   41 1
