@<TRIPOS>MOLECULE
*****
   34    34     0     0     0
SMALL
NO_CHARGES

@<TRIPOS>ATOM
      1 C1          9.4698   -2.1043   -0.8035 C.2       1 <0>         0.0000
      2 C2          7.8119   -0.7990    0.2204 C.2       1 <0>         0.0000
      3 C3         10.5381   -3.0841   -1.1891 C.2       1 <0>         0.0000
      4 C4          0.0482   -0.8495    0.5824 C.3       1 <0>         0.0000
      5 C5         11.3799   -5.0197   -3.7072 C.3       1 <0>         0.0000
      6 C6          1.3170   -0.2878    1.2331 C.3       1 <0>         0.0000
      7 C7          2.5984   -0.7276    0.5146 C.3       1 <0>         0.0000
      8 C8          3.8687   -0.1714    1.1722 C.3       1 <0>         0.0000
      9 C9         12.0143   -3.8033   -3.0257 C.3       1 <0>         0.0000
     10 C10         5.1282   -0.6241    0.4387 C.3       1 <0>         0.0000
     11 N1          8.9891   -1.1895   -1.6093 N.2       1 <0>         0.0000
     12 N2          8.0266   -0.4215   -1.0104 N.2       1 <0>         0.0000
     13 N3         11.0242   -2.9023   -2.4404 N.am      1 <0>         0.0000
     14 O1         10.9091   -3.9503   -0.3954 O.2       1 <0>         0.0000
     15 O2          6.7147   -0.7503    2.6374 O.2       1 <0>         0.0000
     16 S1          8.7782   -2.1269    0.7919 S.3       1 <0>         0.0000
     17 S2          6.6202    0.0114    1.3300 S.o       1 <0>         0.0000
     18 H1         -0.0413   -0.5208   -0.4594 H         1 <0>         0.0000
     19 H2          0.0547   -1.9455    0.5850 H         1 <0>         0.0000
     20 H3         -0.8506   -0.5204    1.1143 H         1 <0>         0.0000
     21 H4         10.8047   -5.6035   -2.9834 H         1 <0>         0.0000
     22 H5         10.7111   -4.7145   -4.5188 H         1 <0>         0.0000
     23 H6         12.1580   -5.6648   -4.1292 H         1 <0>         0.0000
     24 H7          1.3646   -0.6063    2.2822 H         1 <0>         0.0000
     25 H8          1.2682    0.8087    1.2473 H         1 <0>         0.0000
     26 H9          2.5560   -0.4071   -0.5351 H         1 <0>         0.0000
     27 H10         2.6483   -1.8245    0.5006 H         1 <0>         0.0000
     28 H11         3.9207   -0.5057    2.2142 H         1 <0>         0.0000
     29 H12         3.8243    0.9250    1.1881 H         1 <0>         0.0000
     30 H13        12.6101   -3.2241   -3.7376 H         1 <0>         0.0000
     31 H14        12.6763   -4.1256   -2.2191 H         1 <0>         0.0000
     32 H15         5.1899   -0.2339   -0.5820 H         1 <0>         0.0000
     33 H16         5.2215   -1.7144    0.4223 H         1 <0>         0.0000
     34 H17        10.5836   -2.1855   -3.0069 H         1 <0>         0.0000
@<TRIPOS>BOND
     1    1    3 1
     2    1   11 2
     3    1   16 1
     4    2   12 2
     5    2   16 1
     6    2   17 1
     7    3   13 am
     8    3   14 2
     9    4    6 1
    10    4   18 1
    11    4   19 1
    12    4   20 1
    13    5    9 1
    14    5   21 1
    15    5   22 1
    16    5   23 1
    17    6    7 1
    18    6   24 1
    19    6   25 1
    20    7    8 1
    21    7   26 1
    22    7   27 1
    23    8   10 1
    24    8   28 1
    25    8   29 1
    26    9   13 1
    27    9   30 1
    28    9   31 1
    29   10   17 1
    30   10   32 1
    31   10   33 1
    32   11   12 1
    33   13   34 1
    34   15   17 2
