@<TRIPOS>MOLECULE
*****
   34    34     0     0     0
SMALL
NO_CHARGES

@<TRIPOS>ATOM
      1 C1          9.3821   -1.8757   -0.9585 C.2       1 <0>         0.0000
      2 C2          7.7100   -1.1678    0.5260 C.2       1 <0>         0.0000
      3 C3         10.3905   -2.6063   -1.7945 C.2       1 <0>         0.0000
      4 C4          0.0434    0.0444    0.1334 C.3       1 <0>         0.0000
      5 C5         11.5033   -2.6667   -4.8918 C.3       1 <0>         0.0000
      6 C6          1.2206   -0.1551    1.0941 C.3       1 <0>         0.0000
      7 C7          2.5640   -0.2938    0.3677 C.3       1 <0>         0.0000
      8 C8          3.7403   -0.5053    1.3306 C.3       1 <0>         0.0000
      9 C9         12.1173   -2.3278   -3.5300 C.3       1 <0>         0.0000
     10 C10         5.0637   -0.6444    0.5830 C.3       1 <0>         0.0000
     11 N1          9.1719   -0.5839   -1.0258 N.2       1 <0>         0.0000
     12 N2          8.2013   -0.1679   -0.1540 N.2       1 <0>         0.0000
     13 N3         11.1381   -1.7980   -2.5840 N.am      1 <0>         0.0000
     14 O1         10.4935   -3.8318   -1.7217 O.2       1 <0>         0.0000
     15 O2          6.1916   -2.3862    2.3304 O.2       1 <0>         0.0000
     16 S1          8.3941   -2.7306    0.1890 S.3       1 <0>         0.0000
     17 S2          6.4198   -0.9864    1.7949 S.o       1 <0>         0.0000
     18 H1          0.1745    0.9492   -0.4711 H         1 <0>         0.0000
     19 H2         -0.0531   -0.8032   -0.5548 H         1 <0>         0.0000
     20 H3         -0.9020    0.1411    0.6776 H         1 <0>         0.0000
     21 H4         10.7245   -3.4259   -4.7792 H         1 <0>         0.0000
     22 H5         11.0604   -1.7802   -5.3579 H         1 <0>         0.0000
     23 H6         12.2721   -3.0594   -5.5657 H         1 <0>         0.0000
     24 H7          1.0483   -1.0492    1.7067 H         1 <0>         0.0000
     25 H8          1.2724    0.6901    1.7926 H         1 <0>         0.0000
     26 H9          2.7429    0.6018   -0.2423 H         1 <0>         0.0000
     27 H10         2.5125   -1.1386   -0.3320 H         1 <0>         0.0000
     28 H11         3.5696   -1.4079    1.9275 H         1 <0>         0.0000
     29 H12         3.7982    0.3374    2.0311 H         1 <0>         0.0000
     30 H13        12.9134   -1.5846   -3.6353 H         1 <0>         0.0000
     31 H14        12.5518   -3.2224   -3.0788 H         1 <0>         0.0000
     32 H15         5.3494    0.2673    0.0491 H         1 <0>         0.0000
     33 H16         5.0525   -1.4899   -0.1118 H         1 <0>         0.0000
     34 H17        10.9018   -0.8115   -2.5886 H         1 <0>         0.0000
@<TRIPOS>BOND
     1    1    3 1
     2    1   11 2
     3    1   16 1
     4    2   12 2
     5    2   16 1
     6    2   17 1
     7    3   13 am
     8    3   14 2
     9    4    6 1
    10    4   18 1
    11    4   19 1
    12    4   20 1
    13    5    9 1
    14    5   21 1
    15    5   22 1
    16    5   23 1
    17    6    7 1
    18    6   24 1
    19    6   25 1
    20    7    8 1
    21    7   26 1
    22    7   27 1
    23    8   10 1
    24    8   28 1
    25    8   29 1
    26    9   13 1
    27    9   30 1
    28    9   31 1
    29   10   17 1
    30   10   32 1
    31   10   33 1
    32   11   12 1
    33   13   34 1
    34   15   17 2
