@<TRIPOS>MOLECULE
*****
   20    22     0     0     0
SMALL
NO_CHARGES

@<TRIPOS>ATOM
      1 C1          2.2735   -0.9581    1.2643 C.2       1 <0>         0.0000
      2 C2         -1.5010    2.0442   -1.1189 C.2       1 <0>         0.0000
      3 C3          2.4447   -0.8777   -0.8885 C.2       1 <0>         0.0000
      4 C4         -1.7521    1.8519    1.0186 C.2       1 <0>         0.0000
      5 C5          0.9925   -0.8171    0.7817 C.2       1 <0>         0.0000
      6 C6         -0.9990    0.8078   -0.7826 C.2       1 <0>         0.0000
      7 N1          3.1590   -1.0078    0.2129 N.2       1 <0>         0.0000
      8 N2         -1.9762    2.6712    0.0093 N.2       1 <0>         0.0000
      9 N3          1.1018   -0.7717   -0.6104 N.pl3     1 <0>         0.0000
     10 N4         -1.1668    0.6801    0.5985 N.pl3     1 <0>         0.0000
     11 O1         -0.3533   -0.0876    2.9224 O.2       1 <0>         0.0000
     12 O2         -1.4134   -1.7897    1.3541 O.2       1 <0>         0.0000
     13 O3         -1.0268   -1.6421   -1.8120 O.2       1 <0>         0.0000
     14 O4          0.4012    0.1548   -2.9130 O.2       1 <0>         0.0000
     15 S1         -0.5517   -0.6521    1.5993 S.o2      1 <0>         0.0000
     16 S2         -0.2240   -0.4388   -1.7446 S.o2      1 <0>         0.0000
     17 H1          2.5910   -1.0188    2.2969 H         1 <0>         0.0000
     18 H2         -1.5356    2.5026   -2.0985 H         1 <0>         0.0000
     19 H3          2.8199   -0.8394   -1.9027 H         1 <0>         0.0000
     20 H4         -1.9691    2.0363    2.0624 H         1 <0>         0.0000
@<TRIPOS>BOND
     1    1    5 2
     2    1    7 1
     3    1   17 1
     4    2    6 2
     5    2    8 1
     6    2   18 1
     7    3    7 2
     8    3    9 1
     9    3   19 1
    10    4    8 2
    11    4   10 1
    12    4   20 1
    13    5    9 1
    14    5   15 1
    15    6   10 1
    16    6   16 1
    17    9   16 1
    18   10   15 1
    19   11   15 2
    20   12   15 2
    21   13   16 2
    22   14   16 2
