@<TRIPOS>MOLECULE
*****
   15    15     0     0     0
SMALL
NO_CHARGES

@<TRIPOS>ATOM
      1 C1          4.6300    1.3300    0.7730 C.2       1 <0>         0.0000
      2 C2          5.4340    0.6120   -0.0290 C.2       1 <0>         0.0000
      3 C3          3.4620   -0.2040   -0.0700 C.2       1 <0>         0.0000
      4 C4          2.3860   -1.1280   -0.4680 C.2       1 <0>         0.0000
      5 C5         -0.0530   -1.7060   -0.3150 C.3       1 <0>         0.0000
      6 N1          3.3780    0.8170    0.7500 N.2       1 <0>         0.0000
      7 N2          1.1360   -0.9400    0.0800 N.am      1 <0>         0.0000
      8 O1          2.5180   -2.0590   -1.2630 O.2       1 <0>         0.0000
      9 O2          4.7200   -0.3540   -0.5660 O.3       1 <0>         0.0000
     10 H1          4.9180    2.1760    1.3450 H         1 <0>         0.0000
     11 H2          6.4640    0.7240   -0.2530 H         1 <0>         0.0000
     12 H3         -0.7820   -1.6580    0.4950 H         1 <0>         0.0000
     13 H4          0.2330   -2.7440   -0.4980 H         1 <0>         0.0000
     14 H5         -0.4630   -1.2640   -1.2250 H         1 <0>         0.0000
     15 H6          1.0330   -0.1140    0.6900 H         1 <0>         0.0000
@<TRIPOS>BOND
     1    1    2 2
     2    1    6 1
     3    1   10 1
     4    2    9 1
     5    2   11 1
     6    3    4 1
     7    3    6 2
     8    3    9 1
     9    4    7 am
    10    4    8 2
    11    5    7 1
    12    5   12 1
    13    5   13 1
    14    5   14 1
    15    7   15 1
