@<TRIPOS>MOLECULE
*****
   32    34     0     0     0
SMALL
NO_CHARGES

@<TRIPOS>ATOM
      1 C1          6.3080   -9.5069   -2.1362 C.1       1 <0>         0.0000
      2 C2         -0.1678   -2.0277   -1.1676 C.ar      1 <0>         0.0000
      3 C3         -0.1407   -1.2060   -0.0330 C.ar      1 <0>         0.0000
      4 C4          4.0608   -8.9672   -1.2852 C.ar      1 <0>         0.0000
      5 C5          5.5212   -7.1767   -2.0583 C.ar      1 <0>         0.0000
      6 C6          3.0765   -8.0288   -0.9885 C.ar      1 <0>         0.0000
      7 C7          4.5376   -6.2446   -1.7360 C.ar      1 <0>         0.0000
      8 C8          0.6826   -3.1264   -1.2552 C.ar      1 <0>         0.0000
      9 C9          0.7371   -1.4932    1.0082 C.ar      1 <0>         0.0000
     10 C10         5.2899   -8.5429   -1.8217 C.ar      1 <0>         0.0000
     11 C11         3.3142   -6.6623   -1.1914 C.ar      1 <0>         0.0000
     12 C12         1.5688   -3.4330   -0.2094 C.ar      1 <0>         0.0000
     13 C13         1.5865   -2.6021    0.9285 C.ar      1 <0>         0.0000
     14 C14         2.1865   -5.6985   -0.9358 C.2       1 <0>         0.0000
     15 C15         3.6479   -4.3846    0.6107 C.3       1 <0>         0.0000
     16 C16         3.1240   -4.0462    2.0002 C.3       1 <0>         0.0000
     17 N1          7.1361  -10.2872   -2.3882 N.1       1 <0>         0.0000
     18 N2          2.5088   -4.5057   -0.3060 N.am      1 <0>         0.0000
     19 O1          1.0567   -5.9744   -1.3302 O.2       1 <0>         0.0000
     20 O2          2.4362   -2.7967    1.9932 O.3       1 <0>         0.0000
     21 H1         -0.8495   -1.8132   -1.9854 H         1 <0>         0.0000
     22 H2         -0.8013   -0.3467    0.0403 H         1 <0>         0.0000
     23 H3          3.8852  -10.0249   -1.1155 H         1 <0>         0.0000
     24 H4          6.4638   -6.8575   -2.4919 H         1 <0>         0.0000
     25 H5          2.1108   -8.3447   -0.6062 H         1 <0>         0.0000
     26 H6          4.7142   -5.1897   -1.9257 H         1 <0>         0.0000
     27 H7          0.6578   -3.7633   -2.1299 H         1 <0>         0.0000
     28 H8          0.7840   -0.8772    1.9014 H         1 <0>         0.0000
     29 H9          4.3258   -3.5950    0.2667 H         1 <0>         0.0000
     30 H10         4.1977   -5.3227    0.6513 H         1 <0>         0.0000
     31 H11         2.4492   -4.8390    2.3487 H         1 <0>         0.0000
     32 H12         3.9456   -3.9361    2.7117 H         1 <0>         0.0000
@<TRIPOS>BOND
     1    1   10 1
     2    1   17 3
     3    2    3 ar
     4    2    8 ar
     5    2   21 1
     6    3    9 ar
     7    3   22 1
     8    4    6 ar
     9    4   10 ar
    10    4   23 1
    11    5    7 ar
    12    5   10 ar
    13    5   24 1
    14    6   11 ar
    15    6   25 1
    16    7   11 ar
    17    7   26 1
    18    8   12 ar
    19    8   27 1
    20    9   13 ar
    21    9   28 1
    22   11   14 1
    23   12   13 ar
    24   12   18 1
    25   13   20 1
    26   14   18 am
    27   14   19 2
    28   15   16 1
    29   15   18 1
    30   15   29 1
    31   15   30 1
    32   16   20 1
    33   16   31 1
    34   16   32 1
