@<TRIPOS>MOLECULE
*****
   41    43     0     0     0
SMALL
NO_CHARGES

@<TRIPOS>ATOM
      1 C1         -5.7285    8.4631   -6.6078 C.ar      1 <0>         0.0000
      2 C2         -4.6792    7.6129   -6.2532 C.ar      1 <0>         0.0000
      3 C3         -2.3508    0.6105   -1.4517 C.ar      1 <0>         0.0000
      4 C4         -2.6010    0.9011   -0.1129 C.ar      1 <0>         0.0000
      5 C5         -2.2703    4.0123   -2.9810 C.2       1 <0>         0.0000
      6 C6         -2.6467    3.2800   -0.6136 C.ar      1 <0>         0.0000
      7 C7         -6.2017    6.4479   -4.7776 C.ar      1 <0>         0.0000
      8 C8         -2.3947    2.9959   -1.9709 C.ar      1 <0>         0.0000
      9 C9         -2.0323    3.7002   -4.2849 C.2       1 <0>         0.0000
     10 C10        -7.0148    8.3344   -6.0699 C.ar      1 <0>         0.0000
     11 C11        -7.2486    7.3012   -5.1361 C.ar      1 <0>         0.0000
     12 C12        -4.9174    6.5922   -5.3261 C.ar      1 <0>         0.0000
     13 C13        -2.2493    1.6560   -2.3722 C.ar      1 <0>         0.0000
     14 C14        -2.7475    2.2368    0.2949 C.ar      1 <0>         0.0000
     15 C15        -1.9061    2.2869   -4.6881 C.2       1 <0>         0.0000
     16 C16        -1.8611    4.7509   -5.3300 C.2       1 <0>         0.0000
     17 C17        -8.1222    9.2761   -6.4820 C.3       1 <0>         0.0000
     18 C18        -8.6180    7.1115   -4.5264 C.3       1 <0>         0.0000
     19 C19        -0.5805    4.7634   -6.1234 C.3       1 <0>         0.0000
     20 N1         -2.7274    5.6796   -5.5676 N.2       1 <0>         0.0000
     21 N2         -3.9009    5.7243   -4.8876 N.pl3     1 <0>         0.0000
     22 O1         -1.7313    1.8843   -5.8169 O.2       1 <0>         0.0000
     23 O2         -2.0049    1.3324   -3.6759 O.3       1 <0>         0.0000
     24 Br1        -3.0925    2.6202    2.1387 Br        1 <0>         0.0000
     25 H1         -5.5364    9.2529   -7.3310 H         1 <0>         0.0000
     26 H2         -3.6919    7.7269   -6.6850 H         1 <0>         0.0000
     27 H3         -2.2338   -0.4131   -1.7932 H         1 <0>         0.0000
     28 H4         -2.6828    0.0984    0.6124 H         1 <0>         0.0000
     29 H5         -2.3633    5.0558   -2.6877 H         1 <0>         0.0000
     30 H6         -2.7599    4.3107   -0.2917 H         1 <0>         0.0000
     31 H7         -6.3879    5.6526   -4.0566 H         1 <0>         0.0000
     32 H8         -8.9628    8.7404   -6.9398 H         1 <0>         0.0000
     33 H9         -8.5275    9.8280   -5.6251 H         1 <0>         0.0000
     34 H10        -7.7623   10.0098   -7.2083 H         1 <0>         0.0000
     35 H11        -8.9400    8.0057   -3.9798 H         1 <0>         0.0000
     36 H12        -9.3757    6.9209   -5.2954 H         1 <0>         0.0000
     37 H13        -8.6309    6.2701   -3.8284 H         1 <0>         0.0000
     38 H14        -0.4843    3.8519   -6.7198 H         1 <0>         0.0000
     39 H15        -0.5752    5.6312   -6.7858 H         1 <0>         0.0000
     40 H16         0.2904    4.8166   -5.4583 H         1 <0>         0.0000
     41 H17        -4.2110    4.8827   -4.4045 H         1 <0>         0.0000
@<TRIPOS>BOND
     1    1    2 ar
     2    1   10 ar
     3    1   25 1
     4    2   12 ar
     5    2   26 1
     6    3    4 ar
     7    3   13 ar
     8    3   27 1
     9    4   14 ar
    10    4   28 1
    11    5    8 1
    12    5    9 2
    13    5   29 1
    14    6    8 ar
    15    6   14 ar
    16    6   30 1
    17    7   11 ar
    18    7   12 ar
    19    7   31 1
    20    8   13 ar
    21    9   15 1
    22    9   16 1
    23   10   11 ar
    24   10   17 1
    25   11   18 1
    26   12   21 1
    27   13   23 1
    28   14   24 1
    29   15   22 2
    30   15   23 1
    31   16   19 1
    32   16   20 2
    33   17   32 1
    34   17   33 1
    35   17   34 1
    36   18   35 1
    37   18   36 1
    38   18   37 1
    39   19   38 1
    40   19   39 1
    41   19   40 1
    42   20   21 1
    43   21   41 1
