@<TRIPOS>MOLECULE
*****
   36    38     0     0     0
SMALL
NO_CHARGES

@<TRIPOS>ATOM
      1 C1         -4.3710    7.4042   -6.1025 C.1       1 <0>         0.0000
      2 C2         -0.1897    2.2332    0.0025 C.ar      1 <0>         0.0000
      3 C3         -0.9656    1.1083    0.3764 C.ar      1 <0>         0.0000
      4 C4         -0.7702    3.2863   -0.6765 C.ar      1 <0>         0.0000
      5 C5         -2.3100    1.0568    0.0693 C.ar      1 <0>         0.0000
      6 C6         -4.1673    4.1758   -1.9581 C.ar      1 <0>         0.0000
      7 C7         -3.8387    7.2416   -4.8016 C.2       1 <0>         0.0000
      8 C8         -2.1517    3.2599   -1.0098 C.ar      1 <0>         0.0000
      9 C9         -2.8212    4.3102   -1.7120 C.ar      1 <0>         0.0000
     10 C10        -2.9355    2.1261   -0.6247 C.ar      1 <0>         0.0000
     11 C11        -4.8687    3.0084   -1.5283 C.ar      1 <0>         0.0000
     12 C12        -3.9788    8.0881   -3.6534 C.2       1 <0>         0.0000
     13 C13        -3.0702    6.1553   -4.3624 C.2       1 <0>         0.0000
     14 C14        -6.3474    2.8904   -1.8014 C.3       1 <0>         0.0000
     15 C15        -4.7105    9.3896   -3.5701 C.3       1 <0>         0.0000
     16 C16        -2.0467    5.5348   -2.1652 C.3       1 <0>         0.0000
     17 N1         -4.8048    7.5116   -7.1824 N.1       1 <0>         0.0000
     18 N2         -4.2738    2.0178   -0.8918 N.ar      1 <0>         0.0000
     19 N3         -3.3588    7.5654   -2.6044 N.2       1 <0>         0.0000
     20 N4         -2.7890    6.3952   -3.0600 N.pl3     1 <0>         0.0000
     21 N5         -2.5783    5.0524   -5.0411 N.pl3     1 <0>         0.0000
     22 H1          0.8671    2.2663    0.2535 H         1 <0>         0.0000
     23 H2         -0.4968    0.2854    0.9095 H         1 <0>         0.0000
     24 H3         -0.1602    4.1427   -0.9479 H         1 <0>         0.0000
     25 H4         -2.9276    0.2082    0.3478 H         1 <0>         0.0000
     26 H5         -4.7159    4.9599   -2.4716 H         1 <0>         0.0000
     27 H6         -6.5599    2.9925   -2.8716 H         1 <0>         0.0000
     28 H7         -6.7145    1.9232   -1.4552 H         1 <0>         0.0000
     29 H8         -6.9002    3.6845   -1.2863 H         1 <0>         0.0000
     30 H9         -5.7580    9.2697   -3.8652 H         1 <0>         0.0000
     31 H10        -4.6715    9.7720   -2.5483 H         1 <0>         0.0000
     32 H11        -4.2654   10.1307   -4.2423 H         1 <0>         0.0000
     33 H12        -1.7638    6.1484   -1.3063 H         1 <0>         0.0000
     34 H13        -1.1258    5.2304   -2.6738 H         1 <0>         0.0000
     35 H14        -2.6993    4.1715   -4.5477 H         1 <0>         0.0000
     36 H15        -2.9345    4.9898   -5.9900 H         1 <0>         0.0000
@<TRIPOS>BOND
     1    1    7 1
     2    1   17 3
     3    2    3 ar
     4    2    4 ar
     5    2   22 1
     6    3    5 ar
     7    3   23 1
     8    4    8 ar
     9    4   24 1
    10    5   10 ar
    11    5   25 1
    12    6    9 ar
    13    6   11 ar
    14    6   26 1
    15    7   12 1
    16    7   13 2
    17    8    9 ar
    18    8   10 ar
    19    9   16 1
    20   10   18 ar
    21   11   14 1
    22   11   18 ar
    23   12   15 1
    24   12   19 2
    25   13   20 1
    26   13   21 1
    27   14   27 1
    28   14   28 1
    29   14   29 1
    30   15   30 1
    31   15   31 1
    32   15   32 1
    33   16   20 1
    34   16   33 1
    35   16   34 1
    36   19   20 1
    37   21   35 1
    38   21   36 1
