@<TRIPOS>MOLECULE
*****
   36    38     0     0     0
SMALL
NO_CHARGES

@<TRIPOS>ATOM
      1 C1         -1.0748    5.8990   -6.4732 C.1       1 <0>         0.0000
      2 C2          0.0859    2.5699    0.0830 C.ar      1 <0>         0.0000
      3 C3         -0.6001    1.3404    0.2456 C.ar      1 <0>         0.0000
      4 C4         -0.5711    3.6777   -0.4137 C.ar      1 <0>         0.0000
      5 C5         -1.9338    1.2426   -0.0901 C.ar      1 <0>         0.0000
      6 C6         -4.0244    4.4858   -1.6319 C.ar      1 <0>         0.0000
      7 C7         -1.6515    6.2301   -5.2243 C.2       1 <0>         0.0000
      8 C8         -1.9469    3.6090   -0.7783 C.ar      1 <0>         0.0000
      9 C9         -2.6998    4.6968   -1.3205 C.ar      1 <0>         0.0000
     10 C10        -2.6383    2.3631   -0.6074 C.ar      1 <0>         0.0000
     11 C11        -4.6277    3.2141   -1.4179 C.ar      1 <0>         0.0000
     12 C12        -2.7698    7.0785   -4.9420 C.2       1 <0>         0.0000
     13 C13        -1.2349    5.7446   -3.9767 C.2       1 <0>         0.0000
     14 C14        -6.0811    3.0080   -1.7629 C.3       1 <0>         0.0000
     15 C15        -3.5916    7.8524   -5.9227 C.3       1 <0>         0.0000
     16 C16        -2.0880    6.0532   -1.6295 C.3       1 <0>         0.0000
     17 N1         -0.5833    5.6062   -7.4924 N.1       1 <0>         0.0000
     18 N2         -3.9555    2.1889   -0.9243 N.ar      1 <0>         0.0000
     19 N3         -3.0198    7.1093   -3.6399 N.2       1 <0>         0.0000
     20 N4         -2.0538    6.3129   -3.0605 N.pl3     1 <0>         0.0000
     21 N5         -0.1676    4.9291   -3.6379 N.pl3     1 <0>         0.0000
     22 H1          1.1354    2.6419    0.3553 H         1 <0>         0.0000
     23 H2         -0.0708    0.4764    0.6384 H         1 <0>         0.0000
     24 H3         -0.0224    4.6087   -0.5129 H         1 <0>         0.0000
     25 H4         -2.4860    0.3148    0.0260 H         1 <0>         0.0000
     26 H5         -4.6124    5.2918   -2.0644 H         1 <0>         0.0000
     27 H6         -6.2660    3.2297   -2.8200 H         1 <0>         0.0000
     28 H7         -6.3700    1.9758   -1.5597 H         1 <0>         0.0000
     29 H8         -6.7194    3.6782   -1.1759 H         1 <0>         0.0000
     30 H9         -4.0249    7.1898   -6.6790 H         1 <0>         0.0000
     31 H10        -4.3985    8.3726   -5.4025 H         1 <0>         0.0000
     32 H11        -2.9778    8.5906   -6.4495 H         1 <0>         0.0000
     33 H12        -2.6934    6.8514   -1.1978 H         1 <0>         0.0000
     34 H13        -1.0749    6.1529   -1.2382 H         1 <0>         0.0000
     35 H14        -0.3833    4.1956   -2.9674 H         1 <0>         0.0000
     36 H15         0.2984    4.5466   -4.4552 H         1 <0>         0.0000
@<TRIPOS>BOND
     1    1    7 1
     2    1   17 3
     3    2    3 ar
     4    2    4 ar
     5    2   22 1
     6    3    5 ar
     7    3   23 1
     8    4    8 ar
     9    4   24 1
    10    5   10 ar
    11    5   25 1
    12    6    9 ar
    13    6   11 ar
    14    6   26 1
    15    7   12 1
    16    7   13 2
    17    8    9 ar
    18    8   10 ar
    19    9   16 1
    20   10   18 ar
    21   11   14 1
    22   11   18 ar
    23   12   15 1
    24   12   19 2
    25   13   20 1
    26   13   21 1
    27   14   27 1
    28   14   28 1
    29   14   29 1
    30   15   30 1
    31   15   31 1
    32   15   32 1
    33   16   20 1
    34   16   33 1
    35   16   34 1
    36   19   20 1
    37   21   35 1
    38   21   36 1
