@<TRIPOS>MOLECULE
*****
   27    29     0     0     0
SMALL
NO_CHARGES

@<TRIPOS>ATOM
      1 C1          0.3790    1.1900    2.0767 C.ar      1 <0>         0.0000
      2 C2          0.1998    1.5334    3.4304 C.ar      1 <0>         0.0000
      3 C3          1.9287   -2.2915    0.4171 C.2       1 <0>         0.0000
      4 C4          2.5800   -2.8679    1.5456 C.2       1 <0>         0.0000
      5 C5         -1.9892    0.6003    1.8364 C.ar      1 <0>         0.0000
      6 C6         -0.6922    0.7414    1.2963 C.ar      1 <0>         0.0000
      7 C7         -1.0685    1.3697    3.9539 C.ar      1 <0>         0.0000
      8 C8         -2.1322    0.9094    3.1740 C.ar      1 <0>         0.0000
      9 C9          0.5962   -2.0504    0.6491 C.2       1 <0>         0.0000
     10 C10         1.7139   -3.0396    2.5990 C.2       1 <0>         0.0000
     11 C11        -2.8576    1.1375    5.2802 C.3       1 <0>         0.0000
     12 N1         -0.4854    0.3930   -0.0764 N.pl3     1 <0>         0.0000
     13 O1         -1.8625   -1.7465   -0.1640 O.2       1 <0>         0.0000
     14 O2          0.0656   -1.3356   -1.8165 O.2       1 <0>         0.0000
     15 O3         -1.5132    1.6464    5.2277 O.3       1 <0>         0.0000
     16 O4         -3.2814    0.8823    3.9305 O.3       1 <0>         0.0000
     17 S1          0.0939   -2.5189    2.2471 S.3       1 <0>         0.0000
     18 S2         -0.5225   -1.2642   -0.4809 S.o2      1 <0>         0.0000
     19 Cl1         2.0978   -3.7089    4.1455 Cl        1 <0>         0.0000
     20 H1          1.3698    1.2616    1.6360 H         1 <0>         0.0000
     21 H2          1.0223    1.8948    4.0388 H         1 <0>         0.0000
     22 H3          2.4056   -2.0779   -0.5335 H         1 <0>         0.0000
     23 H4          3.6255   -3.1523    1.5798 H         1 <0>         0.0000
     24 H5         -2.8135    0.2527    1.2251 H         1 <0>         0.0000
     25 H6         -2.8677    0.1975    5.8477 H         1 <0>         0.0000
     26 H7         -3.5113    1.8882    5.7286 H         1 <0>         0.0000
     27 H8          0.3560    0.8010   -0.4809 H         1 <0>         0.0000
@<TRIPOS>BOND
     1    1    2 ar
     2    1    6 ar
     3    1   20 1
     4    2    7 ar
     5    2   21 1
     6    3    4 1
     7    3    9 2
     8    3   22 1
     9    4   10 2
    10    4   23 1
    11    5    6 ar
    12    5    8 ar
    13    5   24 1
    14    6   12 1
    15    7    8 ar
    16    7   15 1
    17    8   16 1
    18    9   17 1
    19    9   18 1
    20   10   17 1
    21   10   19 1
    22   11   15 1
    23   11   16 1
    24   11   25 1
    25   11   26 1
    26   12   18 1
    27   12   27 1
    28   13   18 2
    29   14   18 2
