@<TRIPOS>MOLECULE
*****
   25    26     0     0     0
SMALL
NO_CHARGES

@<TRIPOS>ATOM
      1 C1          1.8342   -1.3698   -0.0799 C.ar      1 <0>         0.0000
      2 C2          0.7598   -0.7460    0.5608 C.ar      1 <0>         0.0000
      3 C3          5.5471   -4.2419    3.2703 C.ar      1 <0>         0.0000
      4 C4          2.8636   -1.9312    0.6767 C.ar      1 <0>         0.0000
      5 C5          0.7180   -0.6892    1.9560 C.ar      1 <0>         0.0000
      6 C6          4.4844   -3.7272    2.5233 C.ar      1 <0>         0.0000
      7 C7          6.0629   -3.4977    4.3291 C.ar      1 <0>         0.0000
      8 C8          2.8552   -1.8705    2.0801 C.ar      1 <0>         0.0000
      9 C9          1.7646   -1.2368    2.6948 C.ar      1 <0>         0.0000
     10 C10         3.9682   -2.4691    2.8618 C.ar      1 <0>         0.0000
     11 C11         5.4647   -2.2560    4.5791 C.ar      1 <0>         0.0000
     12 C12         1.7549   -0.0945    4.7723 C.3       1 <0>         0.0000
     13 N1          4.4646   -1.7491    3.8872 N.ar      1 <0>         0.0000
     14 O1          1.6906   -1.2697    4.0952 O.3       1 <0>         0.0000
     15 F1          2.6592    0.7636    4.2731 F         1 <0>         0.0000
     16 F2          2.0583   -0.3675    6.0453 F         1 <0>         0.0000
     17 F3          0.5556    0.5565    4.7678 F         1 <0>         0.0000
     18 Cl1         6.0788   -1.2809    5.9094 Cl        1 <0>         0.0000
     19 H1          1.8727   -1.4158   -1.1645 H         1 <0>         0.0000
     20 H2         -0.0494   -0.3117   -0.0194 H         1 <0>         0.0000
     21 H3          5.9636   -5.2179    3.0362 H         1 <0>         0.0000
     22 H4          3.7075   -2.3978    0.1764 H         1 <0>         0.0000
     23 H5         -0.1195   -0.2329    2.4728 H         1 <0>         0.0000
     24 H6          4.0464   -4.2984    1.7114 H         1 <0>         0.0000
     25 H7          6.8841   -3.8544    4.9406 H         1 <0>         0.0000
@<TRIPOS>BOND
     1    1    2 ar
     2    1    4 ar
     3    1   19 1
     4    2    5 ar
     5    2   20 1
     6    3    6 ar
     7    3    7 ar
     8    3   21 1
     9    4    8 ar
    10    4   22 1
    11    5    9 ar
    12    5   23 1
    13    6   10 ar
    14    6   24 1
    15    7   11 ar
    16    7   25 1
    17    8    9 ar
    18    8   10 1
    19    9   14 1
    20   10   13 ar
    21   11   13 ar
    22   11   18 1
    23   12   14 1
    24   12   15 1
    25   12   16 1
    26   12   17 1
