@<TRIPOS>MOLECULE
*****
   20    21     0     0     0
SMALL
NO_CHARGES

@<TRIPOS>ATOM
      1 C1          2.1841   -0.8954   -0.1193 C.ar      1 <0>         0.0000
      2 C2          1.2672   -0.0283    0.4762 C.ar      1 <0>         0.0000
      3 C3          2.7748   -1.9174    0.6302 C.ar      1 <0>         0.0000
      4 C4         -3.2907    1.9766    1.5206 C.2       1 <0>         0.0000
      5 C5         -3.4364    0.8808    0.6994 C.2       1 <0>         0.0000
      6 C6          0.9391   -0.1525    1.8362 C.ar      1 <0>         0.0000
      7 C7          2.4434   -2.0475    1.9738 C.ar      1 <0>         0.0000
      8 C8          1.5439   -1.1701    2.5795 C.ar      1 <0>         0.0000
      9 C9         -1.3133    1.0600    1.8836 C.2       1 <0>         0.0000
     10 C10         0.0248    0.8354    2.5104 C.2       1 <0>         0.0000
     11 N1         -2.1005    2.0634    2.1843 N.2       1 <0>         0.0000
     12 O1          0.3551    1.4237    3.5247 O.2       1 <0>         0.0000
     13 F1          2.9904   -3.0327    2.7138 F         1 <0>         0.0000
     14 F2          1.2451   -1.3471    3.8758 F         1 <0>         0.0000
     15 S1         -2.0140   -0.0858    0.7420 S.3       1 <0>         0.0000
     16 H1          2.4407   -0.7790   -1.1677 H         1 <0>         0.0000
     17 H2          0.8187    0.7697   -0.1072 H         1 <0>         0.0000
     18 H3          3.4836   -2.6141    0.1931 H         1 <0>         0.0000
     19 H4         -4.0420    2.7455    1.6659 H         1 <0>         0.0000
     20 H5         -4.2897    0.6063    0.0923 H         1 <0>         0.0000
@<TRIPOS>BOND
     1    1    2 ar
     2    1    3 ar
     3    1   16 1
     4    2    6 ar
     5    2   17 1
     6    3    7 ar
     7    3   18 1
     8    4    5 2
     9    4   11 1
    10    4   19 1
    11    5   15 1
    12    5   20 1
    13    6    8 ar
    14    6   10 1
    15    7    8 ar
    16    7   13 1
    17    8   14 1
    18    9   10 1
    19    9   11 2
    20    9   15 1
    21   10   12 2
