@<TRIPOS>MOLECULE
*****
   37    39     0     0     0
SMALL
NO_CHARGES

@<TRIPOS>ATOM
      1 C1         -3.8304    5.7255    3.2836 C.1       1 <0>         0.0000
      2 C2          1.8291    6.3378    2.2087 C.ar      1 <0>         0.0000
      3 C3          0.6343    5.2264    4.0082 C.ar      1 <0>         0.0000
      4 C4          3.0209    5.7226    2.5943 C.ar      1 <0>         0.0000
      5 C5          1.8232    4.5835    4.3777 C.ar      1 <0>         0.0000
      6 C6          0.6288    6.0847    2.8989 C.ar      1 <0>         0.0000
      7 C7          3.0077    4.8490    3.6867 C.ar      1 <0>         0.0000
      8 C8         -1.9203    4.2052    2.9012 C.2       1 <0>         0.0000
      9 C9         -0.9941    2.3683    2.1914 C.2       1 <0>         0.0000
     10 C10        -2.4281    5.5879    2.9750 C.2       1 <0>         0.0000
     11 C11        -0.3228    1.3575    1.3222 C.3       1 <0>         0.0000
     12 C12        -1.0804    1.0494    0.0169 C.3       1 <0>         0.0000
     13 C13        -1.0318    2.1685   -1.0333 C.3       1 <0>         0.0000
     14 C14        -1.7249    3.4841   -0.6474 C.3       1 <0>         0.0000
     15 C15        -1.0636    4.2631    0.4946 C.3       1 <0>         0.0000
     16 N1         -4.9688    5.8002    3.5204 N.1       1 <0>         0.0000
     17 N2         -2.0144    3.3146    3.8709 N.2       1 <0>         0.0000
     18 N3         -1.4230    2.1556    3.4244 N.2       1 <0>         0.0000
     19 N4         -1.8119    6.7167    2.7606 N.2       1 <0>         0.0000
     20 N5         -1.2838    3.6563    1.8096 N.pl3     1 <0>         0.0000
     21 N6         -0.5062    6.8310    2.4651 N.pl3     1 <0>         0.0000
     22 I1          4.6951    3.3899    3.9020 I         1 <0>         0.0000
     23 H1          1.8299    7.0218    1.3627 H         1 <0>         0.0000
     24 H2         -0.2571    5.0435    4.5935 H         1 <0>         0.0000
     25 H3          3.9393    5.9359    2.0565 H         1 <0>         0.0000
     26 H4          1.8091    3.8948    5.2162 H         1 <0>         0.0000
     27 H5          0.6978    1.6897    1.0877 H         1 <0>         0.0000
     28 H6         -0.2320    0.4525    1.9275 H         1 <0>         0.0000
     29 H7         -0.6404    0.1470   -0.4218 H         1 <0>         0.0000
     30 H8         -2.1224    0.8048    0.2558 H         1 <0>         0.0000
     31 H9          0.0172    2.3800   -1.2839 H         1 <0>         0.0000
     32 H10        -1.4960    1.7981   -1.9545 H         1 <0>         0.0000
     33 H11        -1.7266    4.1447   -1.5222 H         1 <0>         0.0000
     34 H12        -2.7750    3.3026   -0.3891 H         1 <0>         0.0000
     35 H13         0.0160    4.3546    0.3292 H         1 <0>         0.0000
     36 H14        -1.4712    5.2733    0.5391 H         1 <0>         0.0000
     37 H15        -0.2921    7.8030    2.2752 H         1 <0>         0.0000
@<TRIPOS>BOND
     1    1   10 1
     2    1   16 3
     3    2    4 ar
     4    2    6 ar
     5    2   23 1
     6    3    5 ar
     7    3    6 ar
     8    3   24 1
     9    4    7 ar
    10    4   25 1
    11    5    7 ar
    12    5   26 1
    13    6   21 1
    14    7   22 1
    15    8   10 1
    16    8   17 2
    17    8   20 1
    18    9   11 1
    19    9   18 2
    20    9   20 1
    21   10   19 2
    22   11   12 1
    23   11   27 1
    24   11   28 1
    25   12   13 1
    26   12   29 1
    27   12   30 1
    28   13   14 1
    29   13   31 1
    30   13   32 1
    31   14   15 1
    32   14   33 1
    33   14   34 1
    34   15   20 1
    35   15   35 1
    36   15   36 1
    37   17   18 1
    38   19   21 1
    39   21   37 1
