@<TRIPOS>MOLECULE
*****
   40    44     0     0     0
SMALL
NO_CHARGES

@<TRIPOS>ATOM
      1 C1          2.1955   -0.8063    0.0445 C.ar      1 <0>         0.0000
      2 C2          0.7903   -0.7369   -0.0750 C.ar      1 <0>         0.0000
      3 C3          2.8177   -1.9364    0.5707 C.ar      1 <0>         0.0000
      4 C4         -0.0224   -1.7958    0.3309 C.ar      1 <0>         0.0000
      5 C5          4.5937   -7.8920    5.8593 C.2       1 <0>         0.0000
      6 C6          2.0239   -3.0211    0.9858 C.ar      1 <0>         0.0000
      7 C7          2.3039   -4.3107    1.5623 C.2       1 <0>         0.0000
      8 C8          0.6055   -2.9284    0.8588 C.ar      1 <0>         0.0000
      9 C9          3.6889   -7.3555    4.8996 C.2       1 <0>         0.0000
     10 C10         1.1006   -4.9450    1.7582 C.2       1 <0>         0.0000
     11 C11         3.8267   -8.7507    6.5978 C.2       1 <0>         0.0000
     12 C12         4.0649   -6.2705    3.9275 C.2       1 <0>         0.0000
     13 C13         3.6197   -4.9276    1.9462 C.3       1 <0>         0.0000
     14 C14         0.9426   -6.3207    2.3232 C.3       1 <0>         0.0000
     15 C15         5.4771  -10.1937    7.9693 C.3       1 <0>         0.0000
     16 C16         4.9635   -9.1226    8.8908 C.3       1 <0>         0.0000
     17 C17         2.3172   -7.0069    2.2518 C.3       1 <0>         0.0000
     18 C18         4.0833   -9.6251    7.7509 C.3       1 <0>         0.0000
     19 N1          2.4692   -7.8412    5.0468 N.2       1 <0>         0.0000
     20 N2          0.0693   -4.1150    1.3396 N.pl3     1 <0>         0.0000
     21 N3          3.3699   -6.1249    2.7638 N.am      1 <0>         0.0000
     22 O1          5.0068   -5.5364    4.2460 O.2       1 <0>         0.0000
     23 O2          2.5524   -8.7300    6.1251 O.3       1 <0>         0.0000
     24 H1          2.7979    0.0384   -0.2790 H         1 <0>         0.0000
     25 H2          0.3329    0.1578   -0.4888 H         1 <0>         0.0000
     26 H3          3.9007   -1.9771    0.6600 H         1 <0>         0.0000
     27 H4         -1.1045   -1.7372    0.2396 H         1 <0>         0.0000
     28 H5          5.6378   -7.6395    5.9681 H         1 <0>         0.0000
     29 H6          4.2087   -5.2069    1.0598 H         1 <0>         0.0000
     30 H7          4.2315   -4.2451    2.5373 H         1 <0>         0.0000
     31 H8          0.6016   -6.2961    3.3652 H         1 <0>         0.0000
     32 H9          0.2137   -6.9093    1.7516 H         1 <0>         0.0000
     33 H10         6.2378   -9.9254    7.2427 H         1 <0>         0.0000
     34 H11         5.5424  -11.2118    8.3408 H         1 <0>         0.0000
     35 H12         4.6715   -9.3994    9.8992 H         1 <0>         0.0000
     36 H13         5.3677   -8.1203    8.7897 H         1 <0>         0.0000
     37 H14         2.3097   -7.9416    2.8039 H         1 <0>         0.0000
     38 H15         2.5578   -7.2244    1.2037 H         1 <0>         0.0000
     39 H16         3.2414  -10.2543    8.0211 H         1 <0>         0.0000
     40 H17        -0.9136   -4.3449    1.3711 H         1 <0>         0.0000
@<TRIPOS>BOND
     1    1    2 ar
     2    1    3 ar
     3    1   24 1
     4    2    4 ar
     5    2   25 1
     6    3    6 ar
     7    3   26 1
     8    4    8 ar
     9    4   27 1
    10    5    9 1
    11    5   11 2
    12    5   28 1
    13    6    7 1
    14    6    8 ar
    15    7   10 2
    16    7   13 1
    17    8   20 1
    18    9   12 1
    19    9   19 2
    20   10   14 1
    21   10   20 1
    22   11   18 1
    23   11   23 1
    24   12   21 am
    25   12   22 2
    26   13   21 1
    27   13   29 1
    28   13   30 1
    29   14   17 1
    30   14   31 1
    31   14   32 1
    32   15   16 1
    33   15   18 1
    34   15   33 1
    35   15   34 1
    36   16   18 1
    37   16   35 1
    38   16   36 1
    39   17   21 1
    40   17   37 1
    41   17   38 1
    42   18   39 1
    43   19   23 1
    44   20   40 1
