@<TRIPOS>MOLECULE
*****
   15    15     0     0     0
SMALL
NO_CHARGES

@<TRIPOS>ATOM
      1 C1         -0.1810    0.7314   -2.0818 C.2       1 <0>         0.0000
      2 C2         -0.6802    0.2873   -3.2737 C.2       1 <0>         0.0000
      3 C3         -0.6754   -0.0395   -0.9859 C.2       1 <0>         0.0000
      4 C4         -1.5504   -1.0636   -1.3568 C.2       1 <0>         0.0000
      5 C5         -2.3823   -2.1580   -0.7287 C.2       1 <0>         0.0000
      6 N1         -2.3564   -2.3236    0.6109 N.am      1 <0>         0.0000
      7 N2         -0.2264    0.3181    0.3528 N.pl3     1 <0>         0.0000
      8 O1          0.5005    1.3087    0.4546 O.3       1 <0>         0.0000
      9 O2         -3.0623   -2.8591   -1.4833 O.2       1 <0>         0.0000
     10 O3         -0.5736   -0.3695    1.3289 O.2       1 <0>         0.0000
     11 S1         -1.7485   -1.0523   -3.0797 S.3       1 <0>         0.0000
     12 H1          0.5050    1.5590   -1.9596 H         1 <0>         0.0000
     13 H2         -0.4733    0.6818   -4.2607 H         1 <0>         0.0000
     14 H3         -2.9205   -3.0735    0.9898 H         1 <0>         0.0000
     15 H4         -1.7661   -1.7504    1.2034 H         1 <0>         0.0000
@<TRIPOS>BOND
     1    1    2 2
     2    1    3 1
     3    1   12 1
     4    2   11 1
     5    2   13 1
     6    3    4 2
     7    3    7 1
     8    4    5 1
     9    4   11 1
    10    5    6 am
    11    5    9 2
    12    6   14 1
    13    6   15 1
    14    7    8 1
    15    7   10 2
