@<TRIPOS>MOLECULE
*****
   23    23     0     0     0
SMALL
NO_CHARGES

@<TRIPOS>ATOM
      1 C1          2.5959   -3.3330   -1.7671 C.1       1 <0>         0.0000
      2 C2          2.1214   -0.6132   -0.1368 C.ar      1 <0>         0.0000
      3 C3          1.0674   -0.0145    0.5502 C.ar      1 <0>         0.0000
      4 C4          1.9001   -0.9560    2.6256 C.ar      1 <0>         0.0000
      5 C5          3.0770   -1.4138    0.5100 C.ar      1 <0>         0.0000
      6 C6          2.9245   -1.5715    1.8995 C.ar      1 <0>         0.0000
      7 C7          0.9773   -0.1945    1.9274 C.ar      1 <0>         0.0000
      8 C8          3.7734   -3.4068   -0.8935 C.3       1 <0>         0.0000
      9 C9          4.1967   -2.0291   -0.3240 C.3       1 <0>         0.0000
     10 N1          1.6528   -3.2740   -2.4443 N.1       1 <0>         0.0000
     11 N2          4.5268   -1.1325   -1.4402 N.3       1 <0>         0.0000
     12 N3          3.8453   -2.4031    2.6948 N.pl3     1 <0>         0.0000
     13 O1          4.3556   -3.3911    2.1476 O.3       1 <0>         0.0000
     14 O2          4.0441   -2.0788    3.8680 O.2       1 <0>         0.0000
     15 F1         -0.0343    0.3895    2.6071 F         1 <0>         0.0000
     16 H1          2.2227   -0.4698   -1.2061 H         1 <0>         0.0000
     17 H2          0.3238    0.5843    0.0333 H         1 <0>         0.0000
     18 H3          1.8287   -1.0803    3.6995 H         1 <0>         0.0000
     19 H4          3.5636   -4.0877   -0.0664 H         1 <0>         0.0000
     20 H5          4.6044   -3.8338   -1.4665 H         1 <0>         0.0000
     21 H6          5.0550   -2.2351    0.3233 H         1 <0>         0.0000
     22 H7          5.2384   -1.5630   -2.0286 H         1 <0>         0.0000
     23 H8          4.9247   -0.2663   -1.0808 H         1 <0>         0.0000
@<TRIPOS>BOND
     1    1    8 1
     2    1   10 3
     3    2    3 ar
     4    2    5 ar
     5    2   16 1
     6    3    7 ar
     7    3   17 1
     8    4    6 ar
     9    4    7 ar
    10    4   18 1
    11    5    6 ar
    12    5    9 1
    13    6   12 1
    14    7   15 1
    15    8    9 1
    16    8   19 1
    17    8   20 1
    18    9   11 1
    19    9   21 1
    20   11   22 1
    21   11   23 1
    22   12   13 1
    23   12   14 2
