@<TRIPOS>MOLECULE
*****
   20    21     0     0     0
SMALL
NO_CHARGES

@<TRIPOS>ATOM
      1 C1          2.5224    0.1663   -0.1866 C.ar      1 <0>         0.0000
      2 C2          1.3447    0.3454    0.5363 C.ar      1 <0>         0.0000
      3 C3          3.5952   -0.5365    0.3752 C.ar      1 <0>         0.0000
      4 C4         -2.1744   -2.2618    4.4607 C.2       1 <0>         0.0000
      5 C5         -1.6441   -3.3278    3.7692 C.2       1 <0>         0.0000
      6 C6          1.2030   -0.1955    1.8248 C.ar      1 <0>         0.0000
      7 C7          3.4675   -1.0486    1.6597 C.ar      1 <0>         0.0000
      8 C8          2.2840   -0.8833    2.3800 C.ar      1 <0>         0.0000
      9 C9         -0.7607   -1.1320    3.1958 C.2       1 <0>         0.0000
     10 C10        -0.0853    0.0395    2.5672 C.2       1 <0>         0.0000
     11 N1         -1.6796   -1.0339    4.1245 N.2       1 <0>         0.0000
     12 O1         -0.5931    1.1490    2.5900 O.2       1 <0>         0.0000
     13 F1          4.4940   -1.7067    2.2358 F         1 <0>         0.0000
     14 F2          2.2242   -1.3663    3.6374 F         1 <0>         0.0000
     15 S1         -0.4549   -2.7783    2.6548 S.3       1 <0>         0.0000
     16 H1          2.6148    0.5763   -1.1876 H         1 <0>         0.0000
     17 H2          0.5132    0.9038    0.1181 H         1 <0>         0.0000
     18 H3          4.5286   -0.6840   -0.1596 H         1 <0>         0.0000
     19 H4         -2.9368   -2.3398    5.2286 H         1 <0>         0.0000
     20 H5         -1.8942   -4.3773    3.8577 H         1 <0>         0.0000
@<TRIPOS>BOND
     1    1    2 ar
     2    1    3 ar
     3    1   16 1
     4    2    6 ar
     5    2   17 1
     6    3    7 ar
     7    3   18 1
     8    4    5 2
     9    4   11 1
    10    4   19 1
    11    5   15 1
    12    5   20 1
    13    6    8 ar
    14    6   10 1
    15    7    8 ar
    16    7   13 1
    17    8   14 1
    18    9   10 1
    19    9   11 2
    20    9   15 1
    21   10   12 2
