@<TRIPOS>MOLECULE
*****
   31    33     0     0     0
SMALL
NO_CHARGES

@<TRIPOS>ATOM
      1 C1         -2.7642    3.3682    1.5615 C.1       1 <0>         0.0000
      2 C2         -1.0868   -1.9182    2.4989 C.ar      1 <0>         0.0000
      3 C3         -0.1218   -1.7052    3.4797 C.ar      1 <0>         0.0000
      4 C4         -1.3572    0.2192    4.3762 C.ar      1 <0>         0.0000
      5 C5         -4.1111    0.0183    1.9674 C.2       1 <0>         0.0000
      6 C6         -3.9670    3.2491    0.8173 C.2       1 <0>         0.0000
      7 C7         -2.3448    0.0055    3.4001 C.ar      1 <0>         0.0000
      8 C8         -3.5841    0.6847    3.0692 C.2       1 <0>         0.0000
      9 C9         -2.1876   -1.0572    2.4746 C.ar      1 <0>         0.0000
     10 C10        -0.2711   -0.6457    4.3974 C.ar      1 <0>         0.0000
     11 C11        -5.2271    2.8809    1.2412 C.2       1 <0>         0.0000
     12 C12        -5.2607    3.3686   -0.8980 C.2       1 <0>         0.0000
     13 C13        -4.1213    1.7906    3.8331 C.2       1 <0>         0.0000
     14 C14        -5.9231    3.5581   -2.2149 C.3       1 <0>         0.0000
     15 N1         -1.7728    3.4651    2.1686 N.1       1 <0>         0.0000
     16 N2         -4.0310    3.5491   -0.5576 N.2       1 <0>         0.0000
     17 N3         -5.1154    2.5937    3.6328 N.2       1 <0>         0.0000
     18 N4         -3.2856   -1.0207    1.6233 N.pl3     1 <0>         0.0000
     19 N5         -5.8083    2.4124    2.3993 N.pl3     1 <0>         0.0000
     20 O1         -6.0628    2.9461    0.1611 O.3       1 <0>         0.0000
     21 Br1         1.0944   -0.3928    5.7232 Br        1 <0>         0.0000
     22 H1         -0.9755   -2.7270    1.7816 H         1 <0>         0.0000
     23 H2          0.7494   -2.3487    3.5371 H         1 <0>         0.0000
     24 H3         -1.4240    1.0392    5.0830 H         1 <0>         0.0000
     25 H4         -5.0262    0.1981    1.4250 H         1 <0>         0.0000
     26 H5         -3.6086    2.0033    4.7704 H         1 <0>         0.0000
     27 H6         -6.3995    2.6325   -2.5540 H         1 <0>         0.0000
     28 H7         -6.6963    4.3312   -2.1556 H         1 <0>         0.0000
     29 H8         -5.1706    3.8623   -2.9430 H         1 <0>         0.0000
     30 H9         -3.4420   -1.6464    0.8451 H         1 <0>         0.0000
     31 H10        -6.7553    2.7685    2.5039 H         1 <0>         0.0000
@<TRIPOS>BOND
     1    1    6 1
     2    1   15 3
     3    2    3 ar
     4    2    9 ar
     5    2   22 1
     6    3   10 ar
     7    3   23 1
     8    4    7 ar
     9    4   10 ar
    10    4   24 1
    11    5    8 2
    12    5   18 1
    13    5   25 1
    14    6   11 2
    15    6   16 1
    16    7    8 1
    17    7    9 ar
    18    8   13 1
    19    9   18 1
    20   10   21 1
    21   11   19 1
    22   11   20 1
    23   12   14 1
    24   12   16 2
    25   12   20 1
    26   13   17 2
    27   13   26 1
    28   14   27 1
    29   14   28 1
    30   14   29 1
    31   17   19 1
    32   18   30 1
    33   19   31 1
