@<TRIPOS>MOLECULE
*****
   40    44     0     0     0
SMALL
NO_CHARGES

@<TRIPOS>ATOM
      1 C1          2.3353   -1.0001   -0.1080 C.ar      1 <0>         0.0000
      2 C2          1.1314   -0.5326    0.4628 C.ar      1 <0>         0.0000
      3 C3          2.8185   -2.2757    0.1760 C.ar      1 <0>         0.0000
      4 C4          0.3860   -1.3304    1.3315 C.ar      1 <0>         0.0000
      5 C5          6.5351   -6.1714    4.2547 C.2       1 <0>         0.0000
      6 C6          2.0870   -3.1031    1.0475 C.ar      1 <0>         0.0000
      7 C7          2.2720   -4.4355    1.5619 C.2       1 <0>         0.0000
      8 C8          0.8744   -2.6096    1.6156 C.ar      1 <0>         0.0000
      9 C9          5.6346   -6.2861    3.1557 C.2       1 <0>         0.0000
     10 C10         1.2103   -4.7094    2.3898 C.2       1 <0>         0.0000
     11 C11         7.7162   -5.7939    3.6808 C.2       1 <0>         0.0000
     12 C12         4.2188   -6.7701    3.2936 C.2       1 <0>         0.0000
     13 C13         3.3927   -5.4113    1.3273 C.3       1 <0>         0.0000
     14 C14         1.0124   -5.9962    3.1261 C.3       1 <0>         0.0000
     15 C15        10.2966   -5.8860    3.4383 C.3       1 <0>         0.0000
     16 C16         9.9250   -4.4361    3.5841 C.3       1 <0>         0.0000
     17 C17         1.9516   -7.0407    2.4950 C.3       1 <0>         0.0000
     18 C18         9.0482   -5.5050    4.2251 C.3       1 <0>         0.0000
     19 N1          6.2223   -6.0109    2.0059 N.2       1 <0>         0.0000
     20 N2          0.3631   -3.6101    2.4308 N.pl3     1 <0>         0.0000
     21 N3          3.3036   -6.4986    2.3163 N.am      1 <0>         0.0000
     22 O1          3.9486   -7.4482    4.2917 O.2       1 <0>         0.0000
     23 O2          7.5468   -5.6949    2.3349 O.3       1 <0>         0.0000
     24 H1          2.8911   -0.3512   -0.7796 H         1 <0>         0.0000
     25 H2          0.7791    0.4669    0.2224 H         1 <0>         0.0000
     26 H3          3.7468   -2.6248   -0.2697 H         1 <0>         0.0000
     27 H4         -0.5397   -0.9654    1.7704 H         1 <0>         0.0000
     28 H5          6.3156   -6.3637    5.2941 H         1 <0>         0.0000
     29 H6          3.3419   -5.8452    0.3192 H         1 <0>         0.0000
     30 H7          4.3623   -4.9253    1.4056 H         1 <0>         0.0000
     31 H8          1.2465   -5.8865    4.1924 H         1 <0>         0.0000
     32 H9         -0.0246   -6.3478    3.0531 H         1 <0>         0.0000
     33 H10        10.1409   -6.3535    2.4716 H         1 <0>         0.0000
     34 H11        11.1379   -6.2688    4.0078 H         1 <0>         0.0000
     35 H12        10.5088   -3.8127    4.2543 H         1 <0>         0.0000
     36 H13         9.5199   -3.9281    2.7151 H         1 <0>         0.0000
     37 H14         2.0177   -7.9327    3.1152 H         1 <0>         0.0000
     38 H15         1.5766   -7.3187    1.5038 H         1 <0>         0.0000
     39 H16         9.0998   -5.6011    5.3046 H         1 <0>         0.0000
     40 H17        -0.4926   -3.5527    2.9641 H         1 <0>         0.0000
@<TRIPOS>BOND
     1    1    2 ar
     2    1    3 ar
     3    1   24 1
     4    2    4 ar
     5    2   25 1
     6    3    6 ar
     7    3   26 1
     8    4    8 ar
     9    4   27 1
    10    5    9 1
    11    5   11 2
    12    5   28 1
    13    6    7 1
    14    6    8 ar
    15    7   10 2
    16    7   13 1
    17    8   20 1
    18    9   12 1
    19    9   19 2
    20   10   14 1
    21   10   20 1
    22   11   18 1
    23   11   23 1
    24   12   21 am
    25   12   22 2
    26   13   21 1
    27   13   29 1
    28   13   30 1
    29   14   17 1
    30   14   31 1
    31   14   32 1
    32   15   16 1
    33   15   18 1
    34   15   33 1
    35   15   34 1
    36   16   18 1
    37   16   35 1
    38   16   36 1
    39   17   21 1
    40   17   37 1
    41   17   38 1
    42   18   39 1
    43   19   23 1
    44   20   40 1
