@<TRIPOS>MOLECULE
*****
   25    26     0     0     0
SMALL
NO_CHARGES

@<TRIPOS>ATOM
      1 C1          1.8611   -0.9218   -0.1633 C.ar      1 <0>         0.0000
      2 C2          0.7023   -0.4595    0.4667 C.ar      1 <0>         0.0000
      3 C3          6.2526   -2.4522    3.2505 C.ar      1 <0>         0.0000
      4 C4          2.8924   -1.4776    0.5952 C.ar      1 <0>         0.0000
      5 C5          0.5860   -0.5513    1.8557 C.ar      1 <0>         0.0000
      6 C6          5.2376   -1.8427    2.5094 C.ar      1 <0>         0.0000
      7 C7          5.9186   -3.3935    4.2221 C.ar      1 <0>         0.0000
      8 C8          2.7967   -1.5882    1.9923 C.ar      1 <0>         0.0000
      9 C9          1.6261   -1.1046    2.5971 C.ar      1 <0>         0.0000
     10 C10         3.9078   -2.2001    2.7668 C.ar      1 <0>         0.0000
     11 C11         4.5563   -3.6701    4.3922 C.ar      1 <0>         0.0000
     12 C12         1.8626   -0.1540    4.7388 C.3       1 <0>         0.0000
     13 N1          3.5814   -3.1105    3.7043 N.ar      1 <0>         0.0000
     14 O1          1.4579   -1.2049    3.9903 O.3       1 <0>         0.0000
     15 F1          3.1698    0.1539    4.5549 F         1 <0>         0.0000
     16 F2          1.6787   -0.4683    6.0248 F         1 <0>         0.0000
     17 F3          1.1617    0.9789    4.4753 F         1 <0>         0.0000
     18 Cl1         4.0871   -4.8534    5.6089 Cl        1 <0>         0.0000
     19 H1          1.9577   -0.8609   -1.2437 H         1 <0>         0.0000
     20 H2         -0.1084   -0.0314   -0.1160 H         1 <0>         0.0000
     21 H3          7.2933   -2.1893    3.0814 H         1 <0>         0.0000
     22 H4          3.7792   -1.8621    0.0992 H         1 <0>         0.0000
     23 H5         -0.2986   -0.1954    2.3739 H         1 <0>         0.0000
     24 H6          5.4665   -1.0840    1.7683 H         1 <0>         0.0000
     25 H7          6.6685   -3.8907    4.8271 H         1 <0>         0.0000
@<TRIPOS>BOND
     1    1    2 ar
     2    1    4 ar
     3    1   19 1
     4    2    5 ar
     5    2   20 1
     6    3    6 ar
     7    3    7 ar
     8    3   21 1
     9    4    8 ar
    10    4   22 1
    11    5    9 ar
    12    5   23 1
    13    6   10 ar
    14    6   24 1
    15    7   11 ar
    16    7   25 1
    17    8    9 ar
    18    8   10 1
    19    9   14 1
    20   10   13 ar
    21   11   13 ar
    22   11   18 1
    23   12   14 1
    24   12   15 1
    25   12   16 1
    26   12   17 1
