@<TRIPOS>MOLECULE
*****
   31    34     0     0     0
SMALL
NO_CHARGES

@<TRIPOS>ATOM
      1 C1        -10.8470   -2.0023   -1.6817 C.ar      1 <0>         0.0000
      2 C2        -10.6454   -2.9282   -2.6992 C.ar      1 <0>         0.0000
      3 C3         -9.9401   -1.9018   -0.6226 C.ar      1 <0>         0.0000
      4 C4         -9.5354   -3.7767   -2.6866 C.ar      1 <0>         0.0000
      5 C5         -1.7997   -1.3367   -0.6276 C.ar      1 <0>         0.0000
      6 C6         -2.8868    0.0758    1.5929 C.ar      1 <0>         0.0000
      7 C7         -2.9083   -1.7925    0.0557 C.ar      1 <0>         0.0000
      8 C8         -3.4380   -1.1042    1.1374 C.ar      1 <0>         0.0000
      9 C9         -8.8102   -2.7473   -0.5855 C.ar      1 <0>         0.0000
     10 C10        -8.6286   -3.6705   -1.6197 C.ar      1 <0>         0.0000
     11 C11        -1.2242   -0.1428   -0.1836 C.ar      1 <0>         0.0000
     12 C12        -1.7623    0.5565    0.9160 C.ar      1 <0>         0.0000
     13 C13        -6.9322   -3.6739    0.1087 C.2       1 <0>         0.0000
     14 C14        -3.7219   -2.9881   -0.1637 C.2       1 <0>         0.0000
     15 C15        -4.5976   -1.8497    1.6250 C.2       1 <0>         0.0000
     16 C16        -5.7252   -3.9702    0.9509 C.3       1 <0>         0.0000
     17 N1         -7.8307   -2.7615    0.3968 N.2       1 <0>         0.0000
     18 N2         -4.7007   -2.9552    0.8066 N.am      1 <0>         0.0000
     19 O1         -3.5137   -3.8005   -1.0457 O.2       1 <0>         0.0000
     20 O2         -5.2857   -1.5045    2.5676 O.2       1 <0>         0.0000
     21 S1         -7.1848   -4.5667   -1.3284 S.3       1 <0>         0.0000
     22 Cl1         0.1672    0.4345   -1.0366 Cl        1 <0>         0.0000
     23 Cl2        -1.0656    2.0366    1.4824 Cl        1 <0>         0.0000
     24 H1        -11.7162   -1.3509   -1.7084 H         1 <0>         0.0000
     25 H2        -11.3595   -2.9943   -3.5158 H         1 <0>         0.0000
     26 H3        -10.1071   -1.1741    0.1665 H         1 <0>         0.0000
     27 H4         -9.3840   -4.4963   -3.4853 H         1 <0>         0.0000
     28 H5         -1.3985   -1.8869   -1.4719 H         1 <0>         0.0000
     29 H6         -3.3137    0.6015    2.4402 H         1 <0>         0.0000
     30 H7         -5.9979   -4.0260    2.0104 H         1 <0>         0.0000
     31 H8         -5.2824   -4.9338    0.6778 H         1 <0>         0.0000
@<TRIPOS>BOND
     1    1    2 ar
     2    1    3 ar
     3    1   24 1
     4    2    4 ar
     5    2   25 1
     6    3    9 ar
     7    3   26 1
     8    4   10 ar
     9    4   27 1
    10    5    7 ar
    11    5   11 ar
    12    5   28 1
    13    6    8 ar
    14    6   12 ar
    15    6   29 1
    16    7    8 ar
    17    7   14 1
    18    8   15 1
    19    9   10 ar
    20    9   17 1
    21   10   21 1
    22   11   12 ar
    23   11   22 1
    24   12   23 1
    25   13   16 1
    26   13   17 2
    27   13   21 1
    28   14   18 am
    29   14   19 2
    30   15   18 am
    31   15   20 2
    32   16   18 1
    33   16   30 1
    34   16   31 1
