@<TRIPOS>MOLECULE
*****
   22    22     0     0     0
SMALL
NO_CHARGES

@<TRIPOS>ATOM
      1 C1          1.8851   -1.0363   -0.1124 C.ar      1 <0>         0.0000
      2 C2          0.8066   -0.4630    0.5610 C.ar      1 <0>         0.0000
      3 C3          2.9210   -1.6309    0.6081 C.ar      1 <0>         0.0000
      4 C4          1.7997   -1.0786    2.6757 C.ar      1 <0>         0.0000
      5 C5          0.7638   -0.4841    1.9551 C.ar      1 <0>         0.0000
      6 C6          2.8783   -1.6520    2.0022 C.ar      1 <0>         0.0000
      7 C7          6.4921   -3.6475    2.0753 C.3       1 <0>         0.0000
      8 C8          5.2521   -2.9468    1.5533 C.3       1 <0>         0.0000
      9 C9         -0.3897    0.1292    2.6744 C.3       1 <0>         0.0000
     10 F1         -1.3270    0.6730    1.8427 F         1 <0>         0.0000
     11 F2         -1.0778   -0.7536    3.4573 F         1 <0>         0.0000
     12 F3         -0.0105    1.1403    3.5091 F         1 <0>         0.0000
     13 S1          4.2023   -2.4117    2.9222 S.3       1 <0>         0.0000
     14 H1          1.9184   -1.0197   -1.1979 H         1 <0>         0.0000
     15 H2          0.0041   -0.0020   -0.0088 H         1 <0>         0.0000
     16 H3          3.7533   -2.0724    0.0655 H         1 <0>         0.0000
     17 H4          1.7572   -1.0900    3.7628 H         1 <0>         0.0000
     18 H5          7.0834   -2.9899    2.7216 H         1 <0>         0.0000
     19 H6          6.2367   -4.5515    2.6383 H         1 <0>         0.0000
     20 H7          7.1303   -3.9485    1.2378 H         1 <0>         0.0000
     21 H8          4.6775   -3.6212    0.9111 H         1 <0>         0.0000
     22 H9          5.5328   -2.0706    0.9613 H         1 <0>         0.0000
@<TRIPOS>BOND
     1    1    2 ar
     2    1    3 ar
     3    1   14 1
     4    2    5 ar
     5    2   15 1
     6    3    6 ar
     7    3   16 1
     8    4    5 ar
     9    4    6 ar
    10    4   17 1
    11    5    9 1
    12    6   13 1
    13    7    8 1
    14    7   18 1
    15    7   19 1
    16    7   20 1
    17    8   13 1
    18    8   21 1
    19    8   22 1
    20    9   10 1
    21    9   11 1
    22    9   12 1
