@<TRIPOS>MOLECULE
*****
   19    19     0     0     0
SMALL
NO_CHARGES

@<TRIPOS>ATOM
      1 C1          1.3879   -0.0684    1.6522 C.ar      1 <0>         0.0000
      2 C2          0.2265   -0.4197    0.9733 C.ar      1 <0>         0.0000
      3 C3          1.6520   -0.6227    2.8997 C.ar      1 <0>         0.0000
      4 C4         -0.6317   -1.3224    1.5803 C.ar      1 <0>         0.0000
      5 C5          0.7299   -1.5161    3.4206 C.ar      1 <0>         0.0000
      6 C6          0.9541   -2.1254    4.7203 C.2       1 <0>         0.0000
      7 C7          0.2689   -3.6903    6.6205 C.3       1 <0>         0.0000
      8 C8         -0.0926   -3.1107    5.2619 C.3       1 <0>         0.0000
      9 N1         -0.4092   -1.8816    2.7908 N.ar      1 <0>         0.0000
     10 O1          1.9558   -1.8855    5.4171 O.2       1 <0>         0.0000
     11 H1          2.0861    0.6359    1.2098 H         1 <0>         0.0000
     12 H2         -0.0003   -0.0002    0.0000 H         1 <0>         0.0000
     13 H3          2.5556   -0.3573    3.4384 H         1 <0>         0.0000
     14 H4         -1.5501   -1.6302    1.0915 H         1 <0>         0.0000
     15 H5          1.2230   -4.2262    6.5784 H         1 <0>         0.0000
     16 H6          0.3585   -2.8915    7.3632 H         1 <0>         0.0000
     17 H7         -0.4968   -4.3931    6.9651 H         1 <0>         0.0000
     18 H8         -1.0498   -2.5853    5.3487 H         1 <0>         0.0000
     19 H9         -0.1958   -3.9334    4.5462 H         1 <0>         0.0000
@<TRIPOS>BOND
     1    1    2 ar
     2    1    3 ar
     3    1   11 1
     4    2    4 ar
     5    2   12 1
     6    3    5 ar
     7    3   13 1
     8    4    9 ar
     9    4   14 1
    10    5    6 1
    11    5    9 ar
    12    6    8 1
    13    6   10 2
    14    7    8 1
    15    7   15 1
    16    7   16 1
    17    7   17 1
    18    8   18 1
    19    8   19 1
