@<TRIPOS>MOLECULE
*****
   56    58     0     0     0
SMALL
NO_CHARGES

@<TRIPOS>ATOM
      1 C1          3.0182   -2.6734   -0.4223 C.ar      1 <0>         0.0000
      2 C2          2.2326   -2.1451    0.6023 C.ar      1 <0>         0.0000
      3 C3         -2.8196   -0.3257   -0.0944 C.ar      1 <0>         0.0000
      4 C4         -3.2098   -0.8490    2.2048 C.ar      1 <0>         0.0000
      5 C5          2.0868   -0.0525   -0.6317 C.ar      1 <0>         0.0000
      6 C6         -1.4515   -0.1513    0.1372 C.ar      1 <0>         0.0000
      7 C7          3.3509   -1.9275   -1.5565 C.ar      1 <0>         0.0000
      8 C8         -3.7143   -0.6979    0.9154 C.ar      1 <0>         0.0000
      9 C9         -1.8511   -0.6688    2.4862 C.ar      1 <0>         0.0000
     10 C10         2.8928   -0.5952   -1.6464 C.ar      1 <0>         0.0000
     11 C11         1.7537   -0.8453    0.4745 C.ar      1 <0>         0.0000
     12 C12        -0.9475   -0.3576    1.4429 C.ar      1 <0>         0.0000
     13 C13         1.5209    1.3325   -0.8109 C.2       1 <0>         0.0000
     14 C14        -0.6287    0.2159   -1.0814 C.3       1 <0>         0.0000
     15 C15        -5.1760   -0.9219    0.6146 C.3       1 <0>         0.0000
     16 C16         1.3042   -3.0331   -5.3706 C.3       1 <0>         0.0000
     17 C17         1.8784   -4.6215   -3.4910 C.3       1 <0>         0.0000
     18 C18        -1.2123    0.3610    4.5345 C.3       1 <0>         0.0000
     19 C19         4.2849    0.9993   -2.7570 C.3       1 <0>         0.0000
     20 C20         3.3850   -2.6212   -4.0191 C.3       1 <0>         0.0000
     21 C21         4.1270   -2.6033   -2.6714 C.3       1 <0>         0.0000
     22 C22         1.9475   -3.1685   -3.9834 C.3       1 <0>         0.0000
     23 O1          2.1869    2.3351   -0.8854 O.2       1 <0>         0.0000
     24 O2          1.1128    1.2606    1.9659 O.2       1 <0>         0.0000
     25 O3          1.1170   -1.0654    2.9967 O.2       1 <0>         0.0000
     26 O4          0.1645    1.4047   -0.9081 O.3       1 <0>         0.0000
     27 O5          5.4012   -1.9470   -2.7901 O.3       1 <0>         0.0000
     28 O6         -1.4728   -0.8423    3.7874 O.3       1 <0>         0.0000
     29 O7          3.1127    0.1428   -2.7796 O.3       1 <0>         0.0000
     30 S1          0.8168   -0.1751    1.8707 S.o2      1 <0>         0.0000
     31 H1          3.3853   -3.6926   -0.3354 H         1 <0>         0.0000
     32 H2          2.0023   -2.7167    1.4945 H         1 <0>         0.0000
     33 H3         -3.2011   -0.1575   -1.0989 H         1 <0>         0.0000
     34 H4         -3.8592   -1.1015    3.0389 H         1 <0>         0.0000
     35 H5         -0.0076   -0.6215   -1.4051 H         1 <0>         0.0000
     36 H6         -1.3114    0.4513   -1.8990 H         1 <0>         0.0000
     37 H7         -5.3505   -1.9607    0.3098 H         1 <0>         0.0000
     38 H8         -5.7988   -0.7274    1.4919 H         1 <0>         0.0000
     39 H9         -5.5195   -0.2777   -0.1998 H         1 <0>         0.0000
     40 H10         1.8397   -3.6389   -6.1119 H         1 <0>         0.0000
     41 H11         0.2622   -3.3713   -5.3567 H         1 <0>         0.0000
     42 H12         1.3178   -1.9932   -5.7144 H         1 <0>         0.0000
     43 H13         2.4962   -5.2762   -4.1184 H         1 <0>         0.0000
     44 H14         2.2219   -4.7250   -2.4573 H         1 <0>         0.0000
     45 H15         0.8503   -4.9973   -3.5316 H         1 <0>         0.0000
     46 H16        -0.8279    0.0329    5.5004 H         1 <0>         0.0000
     47 H17        -2.1436    0.9249    4.6708 H         1 <0>         0.0000
     48 H18        -0.4674    0.9934    4.0450 H         1 <0>         0.0000
     49 H19         4.3001    1.4908   -3.7312 H         1 <0>         0.0000
     50 H20         5.1807    0.3892   -2.6256 H         1 <0>         0.0000
     51 H21         4.1838    1.7450   -1.9664 H         1 <0>         0.0000
     52 H22         3.9774   -3.2351   -4.7152 H         1 <0>         0.0000
     53 H23         3.3742   -1.6010   -4.4088 H         1 <0>         0.0000
     54 H24         4.3008   -3.6391   -2.3522 H         1 <0>         0.0000
     55 H25         1.3704   -2.5462   -3.2865 H         1 <0>         0.0000
     56 H26         5.8352   -2.2914   -3.5876 H         1 <0>         0.0000
@<TRIPOS>BOND
     1    1    2 ar
     2    1    7 ar
     3    1   31 1
     4    2   11 ar
     5    2   32 1
     6    3    6 ar
     7    3    8 ar
     8    3   33 1
     9    4    8 ar
    10    4    9 ar
    11    4   34 1
    12    5   10 ar
    13    5   11 ar
    14    5   13 1
    15    6   12 ar
    16    6   14 1
    17    7   10 ar
    18    7   21 1
    19    8   15 1
    20    9   12 ar
    21    9   28 1
    22   10   29 1
    23   11   30 1
    24   12   30 1
    25   13   23 2
    26   13   26 1
    27   14   26 1
    28   14   35 1
    29   14   36 1
    30   15   37 1
    31   15   38 1
    32   15   39 1
    33   16   22 1
    34   16   40 1
    35   16   41 1
    36   16   42 1
    37   17   22 1
    38   17   43 1
    39   17   44 1
    40   17   45 1
    41   18   28 1
    42   18   46 1
    43   18   47 1
    44   18   48 1
    45   19   29 1
    46   19   49 1
    47   19   50 1
    48   19   51 1
    49   20   21 1
    50   20   22 1
    51   20   52 1
    52   20   53 1
    53   21   27 1
    54   21   54 1
    55   22   55 1
    56   24   30 2
    57   25   30 2
    58   27   56 1
