@<TRIPOS>MOLECULE
*****
   28    30     0     0     0
SMALL
NO_CHARGES

@<TRIPOS>ATOM
      1 C1          0.3849    0.2442    2.4307 C.ar      1 <0>         0.0000
      2 C2          0.0815   -0.2128    1.1376 C.ar      1 <0>         0.0000
      3 C3          0.1237   -0.5611    3.5447 C.ar      1 <0>         0.0000
      4 C4         -0.4918   -1.4708    0.9149 C.ar      1 <0>         0.0000
      5 C5         -0.4490   -1.8154    3.3296 C.ar      1 <0>         0.0000
      6 C6         -0.7497   -2.2532    2.0363 C.ar      1 <0>         0.0000
      7 C7          0.6018   -4.4661    5.6950 C.cat     1 <0>         0.0000
      8 C8          0.1329   -5.9760    7.3837 C.3       1 <0>         0.0000
      9 C9          1.6524   -5.8226    7.1822 C.3       1 <0>         0.0000
     10 C10        -1.6472   -3.8412    3.3661 C.3       1 <0>         0.0000
     11 C11        -0.7761   -2.9397    4.2774 C.3       1 <0>         0.0000
     12 N1         -0.3622   -4.8867    6.5206 N.pl3     1 <0>         0.0000
     13 N2          0.4904   -3.5962    4.7125 N.pl3     1 <0>         0.0000
     14 O1         -1.2967   -3.5141    2.0088 O.3       1 <0>         0.0000
     15 O2          1.7770   -5.0124    5.9567 O.3       1 <0>         0.0000
     16 H1          0.8189    1.2298    2.5653 H         1 <0>         0.0000
     17 H2          0.2890    0.4282    0.2856 H         1 <0>         0.0000
     18 H3          0.3562   -0.2116    4.5476 H         1 <0>         0.0000
     19 H4         -0.7347   -1.8226   -0.0824 H         1 <0>         0.0000
     20 H5         -0.2451   -6.9413    7.0366 H         1 <0>         0.0000
     21 H6         -0.1657   -5.8161    8.4205 H         1 <0>         0.0000
     22 H7          2.1365   -5.2610    7.9820 H         1 <0>         0.0000
     23 H8          2.1763   -6.7585    6.9997 H         1 <0>         0.0000
     24 H9         -1.4837   -4.9114    3.5100 H         1 <0>         0.0000
     25 H10        -2.7051   -3.6021    3.5223 H         1 <0>         0.0000
     26 H11        -1.3080   -2.6172    5.1773 H         1 <0>         0.0000
     27 H12        -1.3441   -4.6789    6.3889 H         1 <0>         0.0000
     28 H13         1.3395   -3.3746    4.1978 H         1 <0>         0.0000
@<TRIPOS>BOND
     1    1    2 ar
     2    1    3 ar
     3    1   16 1
     4    2    4 ar
     5    2   17 1
     6    3    5 ar
     7    3   18 1
     8    4    6 ar
     9    4   19 1
    10    5    6 ar
    11    5   11 1
    12    6   14 1
    13    7   12 2
    14    7   13 1
    15    7   15 1
    16    8    9 1
    17    8   12 1
    18    8   20 1
    19    8   21 1
    20    9   15 1
    21    9   22 1
    22    9   23 1
    23   10   11 1
    24   10   14 1
    25   10   24 1
    26   10   25 1
    27   11   13 1
    28   11   26 1
    29   12   27 1
    30   13   28 1
