@<TRIPOS>MOLECULE
*****
   67    70     0     0     0
SMALL
NO_CHARGES

@<TRIPOS>ATOM
      1 C1          7.6271   -5.1171   -2.0695 C.ar      1 <0>         0.0000
      2 C2          6.3761   -4.5034   -2.0007 C.ar      1 <0>         0.0000
      3 C3          4.3897   -2.1993    0.1497 C.ar      1 <0>         0.0000
      4 C4          4.0161   -2.6165   -2.1952 C.ar      1 <0>         0.0000
      5 C5          3.1491   -1.5794    0.2395 C.ar      1 <0>         0.0000
      6 C6          2.7771   -1.9829   -2.1095 C.ar      1 <0>         0.0000
      7 C7          8.6870   -4.6588   -1.2834 C.ar      1 <0>         0.0000
      8 C8          7.2472   -2.9164   -0.3957 C.ar      1 <0>         0.0000
      9 C9          1.1836    0.6914   -2.7988 C.ar      1 <0>         0.0000
     10 C10        -1.4915    0.2691   -3.4353 C.ar      1 <0>         0.0000
     11 C11         4.8482   -2.7334   -1.0705 C.ar      1 <0>         0.0000
     12 C12         6.1707   -3.3965   -1.1573 C.ar      1 <0>         0.0000
     13 C13         2.3220   -1.4525   -0.8909 C.ar      1 <0>         0.0000
     14 C14         0.4062   -0.1649   -2.0068 C.ar      1 <0>         0.0000
     15 C15        -0.9424   -0.3904   -2.3341 C.ar      1 <0>         0.0000
     16 C16         8.4925   -3.5526   -0.4444 C.ar      1 <0>         0.0000
     17 C17         0.6300    1.3498   -3.8949 C.ar      1 <0>         0.0000
     18 C18        -0.7290    1.1484   -4.2085 C.ar      1 <0>         0.0000
     19 C19         0.9952   -0.7935   -0.7969 C.2       1 <0>         0.0000
     20 C20        -1.0112    0.6194    1.6407 C.2       1 <0>         0.0000
     21 C21        -1.7427   -1.3418   -1.4857 C.3       1 <0>         0.0000
     22 C22        -2.0189   -0.7971   -0.0766 C.3       1 <0>         0.0000
     23 C23        -2.5227   -1.9069    0.8539 C.3       1 <0>         0.0000
     24 C24         0.0280    1.5189    3.6609 C.3       1 <0>         0.0000
     25 C25         1.7352    1.7463   -5.9501 C.3       1 <0>         0.0000
     26 C26        -1.4530    3.1912   -5.1706 C.3       1 <0>         0.0000
     27 C27         8.9516   -4.6139    2.5629 C.3       1 <0>         0.0000
     28 N1          0.4327   -0.7809    0.3721 N.2       1 <0>         0.0000
     29 N2         -0.8136   -0.1185    0.4609 N.am      1 <0>         0.0000
     30 N3          9.5745   -3.0547    0.3401 N.pl3     1 <0>         0.0000
     31 N4          0.1279    0.8918    2.3517 N.am      1 <0>         0.0000
     32 O1         -2.1278    1.0412    1.9537 O.2       1 <0>         0.0000
     33 O2         10.7953   -2.6890    2.4990 O.2       1 <0>         0.0000
     34 O3          8.3188   -2.0615    2.3370 O.2       1 <0>         0.0000
     35 O4          1.4205    2.2123   -4.6272 O.3       1 <0>         0.0000
     36 O5         -1.3198    1.7621   -5.2902 O.3       1 <0>         0.0000
     37 S1          9.4350   -2.9544    2.0321 S.o2      1 <0>         0.0000
     38 H1          7.7737   -5.9753   -2.7198 H         1 <0>         0.0000
     39 H2          5.5501   -4.9005   -2.5830 H         1 <0>         0.0000
     40 H3          5.0054   -2.2885    1.0403 H         1 <0>         0.0000
     41 H4          4.3512   -2.9979   -3.1557 H         1 <0>         0.0000
     42 H5          2.8043   -1.1900    1.1912 H         1 <0>         0.0000
     43 H6          2.1572   -1.9011   -2.9967 H         1 <0>         0.0000
     44 H7          9.6548   -5.1545   -1.3198 H         1 <0>         0.0000
     45 H8          7.1347   -2.0366    0.2263 H         1 <0>         0.0000
     46 H9          2.2299    0.8693   -2.5687 H         1 <0>         0.0000
     47 H10        -2.5327    0.1208   -3.7096 H         1 <0>         0.0000
     48 H11        -2.7033   -1.5676   -1.9572 H         1 <0>         0.0000
     49 H12        -1.2036   -2.2930   -1.3994 H         1 <0>         0.0000
     50 H13        -2.7706   -0.0085   -0.1392 H         1 <0>         0.0000
     51 H14        -1.7492   -2.6690    0.9966 H         1 <0>         0.0000
     52 H15        -3.4064   -2.3910    0.4229 H         1 <0>         0.0000
     53 H16        -2.8001   -1.4933    1.8256 H         1 <0>         0.0000
     54 H17         1.0180    1.8737    3.9587 H         1 <0>         0.0000
     55 H18        -0.3538    0.8326    4.4284 H         1 <0>         0.0000
     56 H19        -0.6512    2.3706    3.6000 H         1 <0>         0.0000
     57 H20         2.3621    2.5170   -6.4026 H         1 <0>         0.0000
     58 H21         0.8285    1.6047   -6.5465 H         1 <0>         0.0000
     59 H22         2.2942    0.8038   -5.8983 H         1 <0>         0.0000
     60 H23        -1.9472    3.5245   -6.0850 H         1 <0>         0.0000
     61 H24        -0.4761    3.6734   -5.0743 H         1 <0>         0.0000
     62 H25        -2.0760    3.4406   -4.3038 H         1 <0>         0.0000
     63 H26         8.7904   -4.5629    3.6411 H         1 <0>         0.0000
     64 H27         8.0287   -4.8895    2.0512 H         1 <0>         0.0000
     65 H28         9.7610   -5.3060    2.3274 H         1 <0>         0.0000
     66 H29        10.4908   -3.4249    0.0966 H         1 <0>         0.0000
     67 H30         0.9240    0.3011    2.1460 H         1 <0>         0.0000
@<TRIPOS>BOND
     1    1    2 ar
     2    1    7 ar
     3    1   38 1
     4    2   12 ar
     5    2   39 1
     6    3    5 ar
     7    3   11 ar
     8    3   40 1
     9    4    6 ar
    10    4   11 ar
    11    4   41 1
    12    5   13 ar
    13    5   42 1
    14    6   13 ar
    15    6   43 1
    16    7   16 ar
    17    7   44 1
    18    8   12 ar
    19    8   16 ar
    20    8   45 1
    21    9   14 ar
    22    9   17 ar
    23    9   46 1
    24   10   15 ar
    25   10   18 ar
    26   10   47 1
    27   11   12 1
    28   13   19 1
    29   14   15 ar
    30   14   19 1
    31   15   21 1
    32   16   30 1
    33   17   18 ar
    34   17   35 1
    35   18   36 1
    36   19   28 2
    37   20   29 am
    38   20   31 am
    39   20   32 2
    40   21   22 1
    41   21   48 1
    42   21   49 1
    43   22   23 1
    44   22   29 1
    45   22   50 1
    46   23   51 1
    47   23   52 1
    48   23   53 1
    49   24   31 1
    50   24   54 1
    51   24   55 1
    52   24   56 1
    53   25   35 1
    54   25   57 1
    55   25   58 1
    56   25   59 1
    57   26   36 1
    58   26   60 1
    59   26   61 1
    60   26   62 1
    61   27   37 1
    62   27   63 1
    63   27   64 1
    64   27   65 1
    65   28   29 1
    66   30   37 1
    67   30   66 1
    68   31   67 1
    69   33   37 2
    70   34   37 2
