@<TRIPOS>MOLECULE
*****
   49    52     0     0     0
SMALL
NO_CHARGES

@<TRIPOS>ATOM
      1 C1          4.0844   -5.9050    3.2783 C.ar      1 <0>         0.0000
      2 C2          2.6890   -5.9060    3.3343 C.ar      1 <0>         0.0000
      3 C3          4.7519   -5.2237    2.2583 C.ar      1 <0>         0.0000
      4 C4          6.7051   -0.4172    2.2319 C.ar      1 <0>         0.0000
      5 C5          2.6269   -4.5543    1.3373 C.ar      1 <0>         0.0000
      6 C6          5.0338    1.6756    3.1083 C.ar      1 <0>         0.0000
      7 C7         -0.4061   -6.1047    3.0900 C.2       1 <0>         0.0000
      8 C8         -0.3928   -4.2829    1.8295 C.2       1 <0>         0.0000
      9 C9          5.3229   -0.4435    1.9143 C.ar      1 <0>         0.0000
     10 C10         1.9371   -5.2263    2.3613 C.ar      1 <0>         0.0000
     11 C11         0.4697   -5.2028    2.4197 C.2       1 <0>         0.0000
     12 C12         4.0207   -4.5405    1.2753 C.ar      1 <0>         0.0000
     13 C13         4.4794    0.6126    2.3468 C.ar      1 <0>         0.0000
     14 C14         7.2279    0.6195    2.9713 C.ar      1 <0>         0.0000
     15 C15         6.3772    1.6769    3.4166 C.ar      1 <0>         0.0000
     16 C16         4.6710   -1.4853    1.1635 C.ar      1 <0>         0.0000
     17 C17         2.6698   -0.3573    1.3434 C.ar      1 <0>         0.0000
     18 C18         1.1973   -0.3700    1.0237 C.3       1 <0>         0.0000
     19 C19         5.7405   -4.5894   -0.6085 C.3       1 <0>         0.0000
     20 C20         6.2780    3.7421    4.6293 C.3       1 <0>         0.0000
     21 C21         4.7179   -3.7577    0.1694 C.3       1 <0>         0.0000
     22 N1         -1.6898   -5.7784    2.9304 N.2       1 <0>         0.0000
     23 N2          3.1403    0.6491    2.0559 N.ar      1 <0>         0.0000
     24 N3          3.3740   -1.4260    0.8824 N.ar      1 <0>         0.0000
     25 N4         -1.6554   -4.6652    2.1616 N.pl3     1 <0>         0.0000
     26 N5          5.3858   -2.5558    0.6914 N.pl3     1 <0>         0.0000
     27 O1          8.5599    0.6493    3.2805 O.3       1 <0>         0.0000
     28 O2          7.0389    2.6353    4.1409 O.3       1 <0>         0.0000
     29 H1          4.6534   -6.4316    4.0405 H         1 <0>         0.0000
     30 H2          2.1840   -6.4172    4.1494 H         1 <0>         0.0000
     31 H3          5.8394   -5.2284    2.2342 H         1 <0>         0.0000
     32 H4          7.3934   -1.1878    1.8978 H         1 <0>         0.0000
     33 H5          2.0693   -4.0173    0.5757 H         1 <0>         0.0000
     34 H6          4.3622    2.4647    3.4257 H         1 <0>         0.0000
     35 H7         -0.1514   -6.9866    3.6646 H         1 <0>         0.0000
     36 H8         -0.2009   -3.4011    1.2337 H         1 <0>         0.0000
     37 H9          1.0372   -0.5945   -0.0353 H         1 <0>         0.0000
     38 H10         0.7033   -1.1567    1.6066 H         1 <0>         0.0000
     39 H11         0.7430    0.5894    1.2750 H         1 <0>         0.0000
     40 H12         6.5669   -4.9195    0.0314 H         1 <0>         0.0000
     41 H13         5.2643   -5.4846   -1.0172 H         1 <0>         0.0000
     42 H14         6.1597   -4.0028   -1.4315 H         1 <0>         0.0000
     43 H15         6.9822    4.3757    5.1691 H         1 <0>         0.0000
     44 H16         5.4896    3.4016    5.3094 H         1 <0>         0.0000
     45 H17         5.8342    4.3045    3.8004 H         1 <0>         0.0000
     46 H18         3.9532   -3.4015   -0.5224 H         1 <0>         0.0000
     47 H19        -2.5252   -4.2158    1.9099 H         1 <0>         0.0000
     48 H20         6.2791   -2.7213    1.1358 H         1 <0>         0.0000
     49 H21         8.7207    1.4587    3.7975 H         1 <0>         0.0000
@<TRIPOS>BOND
     1    1    2 ar
     2    1    3 ar
     3    1   29 1
     4    2   10 ar
     5    2   30 1
     6    3   12 ar
     7    3   31 1
     8    4    9 ar
     9    4   14 ar
    10    4   32 1
    11    5   10 ar
    12    5   12 ar
    13    5   33 1
    14    6   13 ar
    15    6   15 ar
    16    6   34 1
    17    7   11 1
    18    7   22 2
    19    7   35 1
    20    8   11 2
    21    8   25 1
    22    8   36 1
    23    9   13 ar
    24    9   16 ar
    25   10   11 1
    26   12   21 1
    27   13   23 ar
    28   14   15 ar
    29   14   27 1
    30   15   28 1
    31   16   24 ar
    32   16   26 1
    33   17   18 1
    34   17   23 ar
    35   17   24 ar
    36   18   37 1
    37   18   38 1
    38   18   39 1
    39   19   21 1
    40   19   40 1
    41   19   41 1
    42   19   42 1
    43   20   28 1
    44   20   43 1
    45   20   44 1
    46   20   45 1
    47   21   26 1
    48   21   46 1
    49   22   25 1
    50   25   47 1
    51   26   48 1
    52   27   49 1
