@<TRIPOS>MOLECULE
*****
   50    51     0     0     0
SMALL
NO_CHARGES

@<TRIPOS>ATOM
      1 C1          1.0942   -1.2057    1.2679 C.2       1 <0>         0.0000
      2 C2          0.5223   -0.6901   -1.6941 C.2       1 <0>         0.0000
      3 C3         -1.4926   -1.1563    0.8522 C.3       1 <0>         0.0000
      4 C4         -2.1340   -1.1077    2.2395 C.3       1 <0>         0.0000
      5 C5         -0.9668    0.8303    2.8710 C.3       1 <0>         0.0000
      6 C6         -0.1718    0.9156    1.5762 C.3       1 <0>         0.0000
      7 C7         -0.1364   -0.4182    0.7660 C.3       1 <0>         0.0000
      8 C8          2.6732   -1.8332    3.7389 C.3       1 <0>         0.0000
      9 C9          0.8875   -3.5905    4.0126 C.3       1 <0>         0.0000
     10 C10         2.5142   -3.7710    2.0974 C.3       1 <0>         0.0000
     11 C11         2.4911   -2.7415   -2.5761 C.3       1 <0>         0.0000
     12 C12         0.7941   -4.3141   -1.5757 C.3       1 <0>         0.0000
     13 C13         0.1825   -2.9909   -3.6290 C.3       1 <0>         0.0000
     14 C14         1.7510   -2.8173    3.0165 C.3       1 <0>         0.0000
     15 C15         1.0037   -3.0069   -2.3388 C.3       1 <0>         0.0000
     16 N1          0.1139    0.0608   -0.5944 N.am      1 <0>         0.0000
     17 O1          2.2214   -0.9909    0.8778 O.2       1 <0>         0.0000
     18 O2          0.8411   -0.1813   -2.7487 O.2       1 <0>         0.0000
     19 O3         -1.1486    2.0390   -1.7659 O.2       1 <0>         0.0000
     20 O4          1.1577    2.4452   -0.8041 O.2       1 <0>         0.0000
     21 O5         -2.2376    0.2355    2.7159 O.3       1 <0>         0.0000
     22 O6         -0.8005    1.8734    0.6963 O.3       1 <0>         0.0000
     23 O7          0.7356   -2.0648    2.2310 O.3       1 <0>         0.0000
     24 O8          0.4690   -1.9979   -1.3876 O.3       1 <0>         0.0000
     25 S1         -0.1166    1.7544   -0.7944 S.o2      1 <0>         0.0000
     26 H1         -1.3674   -2.1900    0.5238 H         1 <0>         0.0000
     27 H2         -2.1653   -0.6604    0.1477 H         1 <0>         0.0000
     28 H3         -3.1579   -1.4844    2.1853 H         1 <0>         0.0000
     29 H4         -1.5739   -1.7165    2.9587 H         1 <0>         0.0000
     30 H5         -0.3573    0.2720    3.5994 H         1 <0>         0.0000
     31 H6         -1.1283    1.8399    3.2554 H         1 <0>         0.0000
     32 H7          0.8492    1.2544    1.7851 H         1 <0>         0.0000
     33 H8          3.3079   -1.2872    3.0408 H         1 <0>         0.0000
     34 H9          2.0858   -1.1180    4.3239 H         1 <0>         0.0000
     35 H10         3.3141   -2.3869    4.4321 H         1 <0>         0.0000
     36 H11         0.1806   -4.2400    3.4883 H         1 <0>         0.0000
     37 H12         0.3222   -2.9055    4.6514 H         1 <0>         0.0000
     38 H13         1.5218   -4.2125    4.6505 H         1 <0>         0.0000
     39 H14         1.8190   -4.4406    1.5832 H         1 <0>         0.0000
     40 H15         3.1035   -3.2279    1.3582 H         1 <0>         0.0000
     41 H16         3.1907   -4.3848    2.7005 H         1 <0>         0.0000
     42 H17         2.6475   -1.8209   -3.1392 H         1 <0>         0.0000
     43 H18         3.0196   -2.6648   -1.6214 H         1 <0>         0.0000
     44 H19         2.9182   -3.5745   -3.1436 H         1 <0>         0.0000
     45 H20        -0.2650   -4.4609   -1.3431 H         1 <0>         0.0000
     46 H21         1.3609   -4.3090   -0.6417 H         1 <0>         0.0000
     47 H22         1.1347   -5.1572   -2.1833 H         1 <0>         0.0000
     48 H23        -0.8819   -3.1146   -3.4055 H         1 <0>         0.0000
     49 H24         0.3224   -2.0611   -4.1799 H         1 <0>         0.0000
     50 H25         0.4965   -3.8265   -4.2630 H         1 <0>         0.0000
@<TRIPOS>BOND
     1    1    7 1
     2    1   17 2
     3    1   23 1
     4    2   16 am
     5    2   18 2
     6    2   24 1
     7    3    4 1
     8    3    7 1
     9    3   26 1
    10    3   27 1
    11    4   21 1
    12    4   28 1
    13    4   29 1
    14    5    6 1
    15    5   21 1
    16    5   30 1
    17    5   31 1
    18    6    7 1
    19    6   22 1
    20    6   32 1
    21    7   16 1
    22    8   14 1
    23    8   33 1
    24    8   34 1
    25    8   35 1
    26    9   14 1
    27    9   36 1
    28    9   37 1
    29    9   38 1
    30   10   14 1
    31   10   39 1
    32   10   40 1
    33   10   41 1
    34   11   15 1
    35   11   42 1
    36   11   43 1
    37   11   44 1
    38   12   15 1
    39   12   45 1
    40   12   46 1
    41   12   47 1
    42   13   15 1
    43   13   48 1
    44   13   49 1
    45   13   50 1
    46   14   23 1
    47   15   24 1
    48   16   25 1
    49   19   25 2
    50   20   25 2
    51   22   25 1
