@<TRIPOS>MOLECULE
*****
   65    69     0     0     0
SMALL
NO_CHARGES

@<TRIPOS>ATOM
      1 C1         -1.9662   -2.8247   -4.0342 C.ar      1 <0>         0.0000
      2 C2          0.4834   -3.0711   -3.9762 C.ar      1 <0>         0.0000
      3 C3         -0.8764   -4.1302   -5.6968 C.ar      1 <0>         0.0000
      4 C4         -0.7036   -2.5477   -3.4462 C.ar      1 <0>         0.0000
      5 C5         -2.0661   -3.6181   -5.1688 C.ar      1 <0>         0.0000
      6 C6         -0.7105   -4.9826   -6.8285 C.2       1 <0>         0.0000
      7 C7          0.3824   -3.8788   -5.1169 C.ar      1 <0>         0.0000
      8 C8          0.6392   -5.2473   -6.9296 C.2       1 <0>         0.0000
      9 C9         -6.6235   -2.0546   -9.1193 C.2       1 <0>         0.0000
     10 C10        -1.9279   -5.3867   -7.6104 C.3       1 <0>         0.0000
     11 C11        -3.7491   -2.8299   -6.8674 C.3       1 <0>         0.0000
     12 C12        -4.8658   -4.5585   -8.3248 C.3       1 <0>         0.0000
     13 C13        -2.4979   -0.7833   -0.3684 C.3       1 <0>         0.0000
     14 C14        -1.6890    0.4076   -0.8755 C.3       1 <0>         0.0000
     15 C15        -3.3339   -3.9682   -5.9167 C.3       1 <0>         0.0000
     16 C16        -0.6142   -1.6655   -2.2267 C.3       1 <0>         0.0000
     17 C17        -3.1902   -5.3114   -6.6900 C.3       1 <0>         0.0000
     18 C18        -5.0210   -3.1986   -7.6303 C.3       1 <0>         0.0000
     19 C19         1.4011   -6.0793   -7.9099 C.3       1 <0>         0.0000
     20 C20        -8.4097   -1.8615  -11.9181 C.3       1 <0>         0.0000
     21 C21        -5.4855    0.9581   -9.8153 C.3       1 <0>         0.0000
     22 C22        -4.5559   -6.9286   -7.9297 C.3       1 <0>         0.0000
     23 C23        -8.1473   -0.9829  -10.6915 C.3       1 <0>         0.0000
     24 C24        -5.7416   -0.2882  -10.6732 C.3       1 <0>         0.0000
     25 N1          1.3023   -4.5683   -5.8941 N.pl3     1 <0>         0.0000
     26 N2         -4.4595   -5.5872   -7.3727 N.3       1 <0>         0.0000
     27 N3         -5.3510   -2.1357   -8.5767 N.am      1 <0>         0.0000
     28 N4         -6.7957   -1.1529  -10.1528 N.am      1 <0>         0.0000
     29 O1         -7.5580   -2.7351   -8.6793 O.2       1 <0>         0.0000
     30 S1         -1.5796   -2.3228   -0.7638 S.3       1 <0>         0.0000
     31 S2         -1.2069    0.0422   -2.5971 S.3       1 <0>         0.0000
     32 H1         -2.8564   -2.4080   -3.5705 H         1 <0>         0.0000
     33 H2          1.4391   -2.8507   -3.5059 H         1 <0>         0.0000
     34 H3         -2.0605   -4.7297   -8.4786 H         1 <0>         0.0000
     35 H4         -1.8345   -6.4039   -8.0047 H         1 <0>         0.0000
     36 H5         -3.9055   -1.9077   -6.2986 H         1 <0>         0.0000
     37 H6         -2.9295   -2.6308   -7.5725 H         1 <0>         0.0000
     38 H7         -5.8329   -4.8410   -8.7494 H         1 <0>         0.0000
     39 H8         -4.1582   -4.4520   -9.1716 H         1 <0>         0.0000
     40 H9         -2.6232   -0.7428    0.7182 H         1 <0>         0.0000
     41 H10        -3.4826   -0.8075   -0.8414 H         1 <0>         0.0000
     42 H11        -2.2881    1.3237   -0.8861 H         1 <0>         0.0000
     43 H12        -0.8021    0.5715   -0.2566 H         1 <0>         0.0000
     44 H13        -4.1511   -4.1150   -5.2011 H         1 <0>         0.0000
     45 H14         0.4252   -1.6007   -1.9008 H         1 <0>         0.0000
     46 H15        -3.0678   -6.0946   -5.9318 H         1 <0>         0.0000
     47 H16        -5.8556   -3.2755   -6.9303 H         1 <0>         0.0000
     48 H17         2.0971   -5.4752   -8.5057 H         1 <0>         0.0000
     49 H18         1.9854   -6.8637   -7.4126 H         1 <0>         0.0000
     50 H19         0.7098   -6.5666   -8.6014 H         1 <0>         0.0000
     51 H20        -7.6975   -1.6474  -12.7233 H         1 <0>         0.0000
     52 H21        -8.3181   -2.9170  -11.6473 H         1 <0>         0.0000
     53 H22        -9.4204   -1.6900  -12.3056 H         1 <0>         0.0000
     54 H23        -6.3955    1.5616   -9.7380 H         1 <0>         0.0000
     55 H24        -5.1793    0.6810   -8.8027 H         1 <0>         0.0000
     56 H25        -4.6992    1.5790  -10.2594 H         1 <0>         0.0000
     57 H26        -4.2637   -7.6635   -7.1720 H         1 <0>         0.0000
     58 H27        -3.9279   -7.0922   -8.8246 H         1 <0>         0.0000
     59 H28        -5.5945   -7.1299   -8.2121 H         1 <0>         0.0000
     60 H29        -8.8565   -1.2278   -9.9003 H         1 <0>         0.0000
     61 H30        -8.2804    0.0760  -10.9421 H         1 <0>         0.0000
     62 H31        -4.8139   -0.8576  -10.8115 H         1 <0>         0.0000
     63 H32        -6.0385    0.0134  -11.6823 H         1 <0>         0.0000
     64 H33         2.2965   -4.6199   -5.7232 H         1 <0>         0.0000
     65 H34        -4.5738   -1.7595   -9.1012 H         1 <0>         0.0000
@<TRIPOS>BOND
     1    1    4 ar
     2    1    5 ar
     3    1   32 1
     4    2    4 ar
     5    2    7 ar
     6    2   33 1
     7    3    5 ar
     8    3    6 1
     9    3    7 ar
    10    4   16 1
    11    5   15 1
    12    6    8 2
    13    6   10 1
    14    7   25 1
    15    8   19 1
    16    8   25 1
    17    9   27 am
    18    9   28 am
    19    9   29 2
    20   10   17 1
    21   10   34 1
    22   10   35 1
    23   11   15 1
    24   11   18 1
    25   11   36 1
    26   11   37 1
    27   12   18 1
    28   12   26 1
    29   12   38 1
    30   12   39 1
    31   13   14 1
    32   13   30 1
    33   13   40 1
    34   13   41 1
    35   14   31 1
    36   14   42 1
    37   14   43 1
    38   15   17 1
    39   15   44 1
    40   16   31 1
    41   16   30 1
    42   16   45 1
    43   17   26 1
    44   17   46 1
    45   18   27 1
    46   18   47 1
    47   19   48 1
    48   19   49 1
    49   19   50 1
    50   20   23 1
    51   20   51 1
    52   20   52 1
    53   20   53 1
    54   21   24 1
    55   21   54 1
    56   21   55 1
    57   21   56 1
    58   22   26 1
    59   22   57 1
    60   22   58 1
    61   22   59 1
    62   23   28 1
    63   23   60 1
    64   23   61 1
    65   24   28 1
    66   24   62 1
    67   24   63 1
    68   25   64 1
    69   27   65 1
