@<TRIPOS>MOLECULE
*****
   50    53     0     0     0
SMALL
NO_CHARGES

@<TRIPOS>ATOM
      1 C1          9.3253   -0.8889    0.0744 C.ar      1 <0>         0.0000
      2 C2          8.7547   -0.4413    1.2861 C.ar      1 <0>         0.0000
      3 C3          8.5367   -1.1595   -1.0412 C.ar      1 <0>         0.0000
      4 C4          1.2549    1.6396    0.7950 C.ar      1 <0>         0.0000
      5 C5          7.3774   -0.2508    1.4171 C.ar      1 <0>         0.0000
      6 C6          0.6385    2.6832    1.4888 C.ar      1 <0>         0.0000
      7 C7          6.0197   -1.1392   -1.8177 C.2       1 <0>         0.0000
      8 C8          7.1459   -0.9750   -0.9339 C.ar      1 <0>         0.0000
      9 C9          0.4952    0.6711    0.1306 C.ar      1 <0>         0.0000
     10 C10        -0.9203    0.7199    0.1307 C.ar      1 <0>         0.0000
     11 C11         6.6084   -0.5262    0.2913 C.ar      1 <0>         0.0000
     12 C12        -1.5303    1.8037    0.7870 C.ar      1 <0>         0.0000
     13 C13        -0.7379    2.7394    1.4627 C.ar      1 <0>         0.0000
     14 C14         4.9149   -0.7888   -1.1006 C.2       1 <0>         0.0000
     15 C15         3.4947   -0.7771   -1.4846 C.2       1 <0>         0.0000
     16 C16        -0.9575   -1.7088   -0.3622 C.3       1 <0>         0.0000
     17 C17         1.1904   -0.3599   -0.7463 C.3       1 <0>         0.0000
     18 C18        -1.7001   -0.3771   -0.6071 C.3       1 <0>         0.0000
     19 C19         0.5130   -1.7728   -0.7875 C.3       1 <0>         0.0000
     20 C20        -1.8066   -0.0313   -2.1098 C.3       1 <0>         0.0000
     21 C21        -3.1291   -0.6141   -0.0686 C.3       1 <0>         0.0000
     22 C22         1.2268   -2.7744    0.1580 C.3       1 <0>         0.0000
     23 N1          2.6259   -0.4026   -0.5048 N.am      1 <0>         0.0000
     24 O1          3.1378   -1.0887   -2.6308 O.2       1 <0>         0.0000
     25 O2          5.2426   -0.4079    0.1941 O.3       1 <0>         0.0000
     26 O3         -2.8873    1.9899    0.7689 O.3       1 <0>         0.0000
     27 O4          0.5668   -2.2999   -2.1019 O.3       1 <0>         0.0000
     28 F1         -1.4031    3.7579    2.0950 F         1 <0>         0.0000
     29 F2          0.4983   -3.8966    0.3400 F         1 <0>         0.0000
     30 F3          2.4340   -3.1710   -0.3045 F         1 <0>         0.0000
     31 F4          1.4300   -2.2257    1.3926 F         1 <0>         0.0000
     32 H1         10.4017   -1.0241    0.0167 H         1 <0>         0.0000
     33 H2          9.4010   -0.2412    2.1360 H         1 <0>         0.0000
     34 H3          8.9831   -1.5046   -1.9695 H         1 <0>         0.0000
     35 H4          2.3369    1.6190    0.7472 H         1 <0>         0.0000
     36 H5          6.9278    0.0912    2.3442 H         1 <0>         0.0000
     37 H6          1.2063    3.4444    2.0142 H         1 <0>         0.0000
     38 H7          6.0097   -1.4743   -2.8459 H         1 <0>         0.0000
     39 H8         -1.0335   -1.9222    0.7077 H         1 <0>         0.0000
     40 H9         -1.4680   -2.5172   -0.8906 H         1 <0>         0.0000
     41 H10         1.0893   -0.0077   -1.7759 H         1 <0>         0.0000
     42 H11        -2.3262   -0.8346   -2.6423 H         1 <0>         0.0000
     43 H12        -0.8351    0.0979   -2.5898 H         1 <0>         0.0000
     44 H13        -2.3769    0.8940   -2.2378 H         1 <0>         0.0000
     45 H14        -3.5156   -1.5433   -0.5007 H         1 <0>         0.0000
     46 H15        -3.8091    0.1927   -0.3359 H         1 <0>         0.0000
     47 H16        -3.1383   -0.7181    1.0207 H         1 <0>         0.0000
     48 H17         2.9667   -0.3881    0.4489 H         1 <0>         0.0000
     49 H18        -3.0852    2.7914    1.2839 H         1 <0>         0.0000
     50 H19         1.4383   -2.0714   -2.4916 H         1 <0>         0.0000
@<TRIPOS>BOND
     1    1    2 ar
     2    1    3 ar
     3    1   32 1
     4    2    5 ar
     5    2   33 1
     6    3    8 ar
     7    3   34 1
     8    4    6 ar
     9    4    9 ar
    10    4   35 1
    11    5   11 ar
    12    5   36 1
    13    6   13 ar
    14    6   37 1
    15    7    8 1
    16    7   14 2
    17    7   38 1
    18    8   11 ar
    19    9   10 ar
    20    9   17 1
    21   10   12 ar
    22   10   18 1
    23   11   25 1
    24   12   13 ar
    25   12   26 1
    26   13   28 1
    27   14   15 1
    28   14   25 1
    29   15   23 am
    30   15   24 2
    31   16   18 1
    32   16   19 1
    33   16   39 1
    34   16   40 1
    35   17   19 1
    36   17   23 1
    37   17   41 1
    38   18   20 1
    39   18   21 1
    40   19   22 1
    41   19   27 1
    42   20   42 1
    43   20   43 1
    44   20   44 1
    45   21   45 1
    46   21   46 1
    47   21   47 1
    48   22   29 1
    49   22   30 1
    50   22   31 1
    51   23   48 1
    52   26   49 1
    53   27   50 1
