@<TRIPOS>MOLECULE
*****
   62    65     0     0     0
SMALL
NO_CHARGES

@<TRIPOS>ATOM
      1 C1          1.5879    5.8724    1.6522 C.ar      1 <0>         0.0000
      2 C2         -1.8611    1.8770    8.1912 C.ar      1 <0>         0.0000
      3 C3          2.9062    6.3205    1.7338 C.ar      1 <0>         0.0000
      4 C4         -1.6226    1.7832    6.8205 C.ar      1 <0>         0.0000
      5 C5          2.3211    3.7142    2.4735 C.ar      1 <0>         0.0000
      6 C6         -4.0196    1.7261    6.3870 C.ar      1 <0>         0.0000
      7 C7          1.2917    4.5517    2.0151 C.ar      1 <0>         0.0000
      8 C8         -3.1755    1.9045    8.6669 C.ar      1 <0>         0.0000
      9 C9         -4.2394    1.8268    7.7634 C.ar      1 <0>         0.0000
     10 C10         3.9497    5.4970    2.1730 C.ar      1 <0>         0.0000
     11 C11         3.6416    4.1689    2.5674 C.ar      1 <0>         0.0000
     12 C12        -2.6972    1.7083    5.9167 C.ar      1 <0>         0.0000
     13 C13        -1.8535    2.8314    1.9928 C.2       1 <0>         0.0000
     14 C14        -2.2211    4.0808    1.5804 C.2       1 <0>         0.0000
     15 C15        -0.0651    4.0215    1.9413 C.2       1 <0>         0.0000
     16 C16        -3.3739    2.9379   12.4359 C.2       1 <0>         0.0000
     17 C17        -5.5607    1.8296    8.5035 C.3       1 <0>         0.0000
     18 C18        -5.1764    2.3633    9.9034 C.3       1 <0>         0.0000
     19 C19        -3.6871    1.9752   10.0956 C.3       1 <0>         0.0000
     20 C20         5.3676    6.0144    2.1713 C.3       1 <0>         0.0000
     21 C21        -3.5054    4.7245    1.1952 C.3       1 <0>         0.0000
     22 C22         4.4629    1.8803    2.8695 C.3       1 <0>         0.0000
     23 C23         5.2138    3.6379    4.3420 C.3       1 <0>         0.0000
     24 C24        -2.7135    1.6280    2.2393 C.3       1 <0>         0.0000
     25 C25        -2.9058    2.9414   10.9865 C.3       1 <0>         0.0000
     26 C26        -3.3783    1.6322    3.6163 C.3       1 <0>         0.0000
     27 N1         -0.4782    2.8139    2.2146 N.2       1 <0>         0.0000
     28 N2          4.6929    3.3140    3.0113 N.pl3     1 <0>         0.0000
     29 O1         -4.1106    2.1160   12.9279 O.2       1 <0>         0.0000
     30 O2         -1.0783    4.8569    1.5444 O.3       1 <0>         0.0000
     31 O3         -2.8735    3.9501   13.2102 O.3       1 <0>         0.0000
     32 O4         -2.3466    1.6181    4.5970 O.3       1 <0>         0.0000
     33 H1          0.8020    6.5307    1.2964 H         1 <0>         0.0000
     34 H2         -1.0150    1.9305    8.8733 H         1 <0>         0.0000
     35 H3          3.1403    7.3361    1.4215 H         1 <0>         0.0000
     36 H4         -0.6137    1.7723    6.4189 H         1 <0>         0.0000
     37 H5          2.0594    2.7028    2.7614 H         1 <0>         0.0000
     38 H6         -4.8618    1.6649    5.7054 H         1 <0>         0.0000
     39 H7         -6.3289    2.4367    8.0135 H         1 <0>         0.0000
     40 H8         -5.9540    0.8064    8.5704 H         1 <0>         0.0000
     41 H9         -5.2605    3.4575    9.9043 H         1 <0>         0.0000
     42 H10        -5.8097    1.9811   10.7058 H         1 <0>         0.0000
     43 H11        -3.6332    0.9802   10.5562 H         1 <0>         0.0000
     44 H12         5.6388    6.4752    3.1295 H         1 <0>         0.0000
     45 H13         6.0751    5.2015    1.9870 H         1 <0>         0.0000
     46 H14         5.4968    6.7791    1.3998 H         1 <0>         0.0000
     47 H15        -3.7796    5.5254    1.8916 H         1 <0>         0.0000
     48 H16        -3.4478    5.1604    0.1915 H         1 <0>         0.0000
     49 H17        -4.3072    3.9821    1.1996 H         1 <0>         0.0000
     50 H18         5.4138    1.3578    3.0164 H         1 <0>         0.0000
     51 H19         4.1019    1.6584    1.8623 H         1 <0>         0.0000
     52 H20         3.7411    1.4722    3.5981 H         1 <0>         0.0000
     53 H21         6.1503    3.0952    4.5088 H         1 <0>         0.0000
     54 H22         4.5043    3.3623    5.1416 H         1 <0>         0.0000
     55 H23         5.4203    4.7049    4.4281 H         1 <0>         0.0000
     56 H24        -3.5078    1.5635    1.4869 H         1 <0>         0.0000
     57 H25        -2.0961    0.7306    2.1439 H         1 <0>         0.0000
     58 H26        -1.8396    2.6778   10.9950 H         1 <0>         0.0000
     59 H27        -2.9682    3.9584   10.5770 H         1 <0>         0.0000
     60 H28        -3.9989    2.5307    3.7375 H         1 <0>         0.0000
     61 H29        -4.0216    0.7479    3.7286 H         1 <0>         0.0000
     62 H30        -2.3069    4.5275   12.6708 H         1 <0>         0.0000
@<TRIPOS>BOND
     1    1    3 ar
     2    1    7 ar
     3    1   33 1
     4    2    4 ar
     5    2    8 ar
     6    2   34 1
     7    3   10 ar
     8    3   35 1
     9    4   12 ar
    10    4   36 1
    11    5    7 ar
    12    5   11 ar
    13    5   37 1
    14    6    9 ar
    15    6   12 ar
    16    6   38 1
    17    7   15 1
    18    8    9 ar
    19    8   19 1
    20    9   17 1
    21   10   11 ar
    22   10   20 1
    23   11   28 1
    24   12   32 1
    25   13   14 2
    26   13   24 1
    27   13   27 1
    28   14   21 1
    29   14   30 1
    30   15   27 2
    31   15   30 1
    32   16   25 1
    33   16   29 2
    34   16   31 1
    35   17   18 1
    36   17   39 1
    37   17   40 1
    38   18   19 1
    39   18   41 1
    40   18   42 1
    41   19   25 1
    42   19   43 1
    43   20   44 1
    44   20   45 1
    45   20   46 1
    46   21   47 1
    47   21   48 1
    48   21   49 1
    49   22   28 1
    50   22   50 1
    51   22   51 1
    52   22   52 1
    53   23   28 1
    54   23   53 1
    55   23   54 1
    56   23   55 1
    57   24   26 1
    58   24   56 1
    59   24   57 1
    60   25   58 1
    61   25   59 1
    62   26   32 1
    63   26   60 1
    64   26   61 1
    65   31   62 1
