@<TRIPOS>MOLECULE
*****
   60    63     0     0     0
SMALL
NO_CHARGES

@<TRIPOS>ATOM
      1 C1         10.6714   -5.3461   -0.5717 C.1       1 <0>         0.0000
      2 C2          9.0692   -3.6548   -1.3724 C.ar      1 <0>         0.0000
      3 C3          8.5714   -4.9183    0.6432 C.ar      1 <0>         0.0000
      4 C4          7.8656   -2.9708   -1.2326 C.ar      1 <0>         0.0000
      5 C5          7.3712   -4.2264    0.7722 C.ar      1 <0>         0.0000
      6 C6          5.2247   -2.1480    1.2509 C.ar      1 <0>         0.0000
      7 C7          4.9513   -2.1637   -1.1444 C.ar      1 <0>         0.0000
      8 C8          4.0223   -1.4650    1.3866 C.ar      1 <0>         0.0000
      9 C9          3.7472   -1.4740   -1.0102 C.ar      1 <0>         0.0000
     10 C10         2.2716    1.3140   -1.4044 C.ar      1 <0>         0.0000
     11 C11        -0.3897    1.0535   -2.1709 C.ar      1 <0>         0.0000
     12 C12         9.4310   -4.6362   -0.4330 C.ar      1 <0>         0.0000
     13 C13         6.9946   -3.2419   -0.1606 C.ar      1 <0>         0.0000
     14 C14         5.7150   -2.5117   -0.0187 C.ar      1 <0>         0.0000
     15 C15         3.2628   -1.1089    0.2571 C.ar      1 <0>         0.0000
     16 C16         1.4428    0.3980   -0.7418 C.ar      1 <0>         0.0000
     17 C17         0.0946    0.2723   -1.1203 C.ar      1 <0>         0.0000
     18 C18         1.7761    2.1126   -2.4333 C.ar      1 <0>         0.0000
     19 C19         0.4336    1.9655   -2.8368 C.ar      1 <0>         0.0000
     20 C20         1.9715   -0.3901    0.4006 C.2       1 <0>         0.0000
     21 C21        -0.0214    0.8458    2.9441 C.2       1 <0>         0.0000
     22 C22        -0.7691   -0.7236   -0.3946 C.3       1 <0>         0.0000
     23 C23        -1.0550   -0.3168    1.0582 C.3       1 <0>         0.0000
     24 C24        -1.6412   -1.4904    1.8521 C.3       1 <0>         0.0000
     25 C25         1.0058    1.4529    5.0759 C.3       1 <0>         0.0000
     26 C26         2.3281    4.3865   -2.7891 C.3       1 <0>         0.0000
     27 C27         0.4359    2.4902   -5.1528 C.3       1 <0>         0.0000
     28 N1         11.6785   -5.9225   -0.6843 N.1       1 <0>         0.0000
     29 N2          1.3832   -0.4761    1.5539 N.2       1 <0>         0.0000
     30 N3          0.1695    0.2335    1.6932 N.am      1 <0>         0.0000
     31 N4          1.1118    0.9778    3.7043 N.am      1 <0>         0.0000
     32 O1         -1.1226    1.2889    3.2789 O.2       1 <0>         0.0000
     33 O2          2.6254    3.0037   -3.0567 O.3       1 <0>         0.0000
     34 O3         -0.1096    2.7311   -3.8431 O.3       1 <0>         0.0000
     35 H1          9.7373   -3.4294   -2.1980 H         1 <0>         0.0000
     36 H2          8.8457   -5.6830    1.3634 H         1 <0>         0.0000
     37 H3          7.6100   -2.1954   -1.9486 H         1 <0>         0.0000
     38 H4          6.7027   -4.4730    1.5917 H         1 <0>         0.0000
     39 H5          5.8091   -2.3771    2.1377 H         1 <0>         0.0000
     40 H6          5.2832   -2.4631   -2.1346 H         1 <0>         0.0000
     41 H7          3.6590   -1.1936    2.3717 H         1 <0>         0.0000
     42 H8          3.1702   -1.2340   -1.8972 H         1 <0>         0.0000
     43 H9          3.3110    1.4381   -1.1155 H         1 <0>         0.0000
     44 H10        -1.4225    0.9665   -2.4981 H         1 <0>         0.0000
     45 H11        -1.7274   -0.8511   -0.9056 H         1 <0>         0.0000
     46 H12        -0.2776   -1.7041   -0.3992 H         1 <0>         0.0000
     47 H13        -1.7622    0.5142    1.0644 H         1 <0>         0.0000
     48 H14        -0.9124   -2.3043    1.9290 H         1 <0>         0.0000
     49 H15        -2.5356   -1.8771    1.3509 H         1 <0>         0.0000
     50 H16        -1.9252   -1.1689    2.8560 H         1 <0>         0.0000
     51 H17         2.0008    1.7345    5.4306 H         1 <0>         0.0000
     52 H18         0.5834    0.6977    5.7518 H         1 <0>         0.0000
     53 H19         0.3581    2.3303    5.1013 H         1 <0>         0.0000
     54 H20         3.0794    4.9673   -3.3273 H         1 <0>         0.0000
     55 H21         2.4055    4.5899   -1.7145 H         1 <0>         0.0000
     56 H22         1.3269    4.6510   -3.1428 H         1 <0>         0.0000
     57 H23        -0.1036    3.1548   -5.8298 H         1 <0>         0.0000
     58 H24         0.2633    1.4481   -5.4477 H         1 <0>         0.0000
     59 H25         1.5066    2.7105   -5.1845 H         1 <0>         0.0000
     60 H26         1.8799    0.3683    3.4516 H         1 <0>         0.0000
@<TRIPOS>BOND
     1    1   12 1
     2    1   28 3
     3    2    4 ar
     4    2   12 ar
     5    2   35 1
     6    3    5 ar
     7    3   12 ar
     8    3   36 1
     9    4   13 ar
    10    4   37 1
    11    5   13 ar
    12    5   38 1
    13    6    8 ar
    14    6   14 ar
    15    6   39 1
    16    7    9 ar
    17    7   14 ar
    18    7   40 1
    19    8   15 ar
    20    8   41 1
    21    9   15 ar
    22    9   42 1
    23   10   16 ar
    24   10   18 ar
    25   10   43 1
    26   11   17 ar
    27   11   19 ar
    28   11   44 1
    29   13   14 1
    30   15   20 1
    31   16   17 ar
    32   16   20 1
    33   17   22 1
    34   18   19 ar
    35   18   33 1
    36   19   34 1
    37   20   29 2
    38   21   30 am
    39   21   31 am
    40   21   32 2
    41   22   23 1
    42   22   45 1
    43   22   46 1
    44   23   24 1
    45   23   30 1
    46   23   47 1
    47   24   48 1
    48   24   49 1
    49   24   50 1
    50   25   31 1
    51   25   51 1
    52   25   52 1
    53   25   53 1
    54   26   33 1
    55   26   54 1
    56   26   55 1
    57   26   56 1
    58   27   34 1
    59   27   57 1
    60   27   58 1
    61   27   59 1
    62   29   30 1
    63   31   60 1
