@<TRIPOS>MOLECULE
*****
   65    68     0     0     0
SMALL
NO_CHARGES

@<TRIPOS>ATOM
      1 C1          3.4404    4.0610   -1.7662 C.1       1 <0>         0.0000
      2 C2          3.4439    3.0763   -1.0543 C.1       1 <0>         0.0000
      3 C3          3.7748    1.4338   -6.2745 C.ar      1 <0>         0.0000
      4 C4          3.4838    2.2104   -5.1543 C.ar      1 <0>         0.0000
      5 C5          4.0243    6.3797   -2.4356 C.ar      1 <0>         0.0000
      6 C6          3.2792    7.2193   -4.5602 C.ar      1 <0>         0.0000
      7 C7          3.3888    5.1499   -2.6872 C.ar      1 <0>         0.0000
      8 C8          1.5276    3.0853   -6.3054 C.ar      1 <0>         0.0000
      9 C9          2.6324    6.0122   -4.8483 C.ar      1 <0>         0.0000
     10 C10         2.9640    1.4621   -7.4181 C.ar      1 <0>         0.0000
     11 C11         3.9815    7.4221   -3.3629 C.ar      1 <0>         0.0000
     12 C12         2.3631    3.0371   -5.1889 C.ar      1 <0>         0.0000
     13 C13         2.6919    4.9855   -3.8982 C.ar      1 <0>         0.0000
     14 C14         1.8246    2.2797   -7.4182 C.ar      1 <0>         0.0000
     15 C15         0.3413    4.0046   -6.2791 C.2       1 <0>         0.0000
     16 C16         1.9368    5.8505   -6.1816 C.3       1 <0>         0.0000
     17 C17         2.5369    0.2081   -1.9367 C.3       1 <0>         0.0000
     18 C18         1.3355    0.9500   -1.2861 C.3       1 <0>         0.0000
     19 C19         3.7894    0.6092   -1.1112 C.3       1 <0>         0.0000
     20 C20         1.8733    1.5054    0.0455 C.3       1 <0>         0.0000
     21 C21         3.3532    1.8401   -0.2700 C.3       1 <0>         0.0000
     22 C22         4.6851    8.7335   -3.0980 C.3       1 <0>         0.0000
     23 C23         5.8510    3.2169  -10.3008 C.3       1 <0>         0.0000
     24 C24         3.4324    2.8482  -10.9380 C.3       1 <0>         0.0000
     25 C25        -0.0738    1.4437   -8.5654 C.3       1 <0>         0.0000
     26 C26         4.6114    1.2579   -9.3230 C.3       1 <0>         0.0000
     27 C27         3.3648    0.6655   -8.6410 C.3       1 <0>         0.0000
     28 C28         4.4829    2.7061   -9.8261 C.3       1 <0>         0.0000
     29 O1         -0.8049    3.6286   -6.3894 O.2       1 <0>         0.0000
     30 O2          2.0079    3.7924   -4.0790 O.3       1 <0>         0.0000
     31 O3          0.5928    5.3291   -6.0925 O.3       1 <0>         0.0000
     32 O4          3.6305   -0.6790   -8.1958 O.3       1 <0>         0.0000
     33 O5          1.0350    2.3693   -8.5441 O.3       1 <0>         0.0000
     34 H1          4.6380    0.7753   -6.2661 H         1 <0>         0.0000
     35 H2          4.1000    2.1869   -4.2609 H         1 <0>         0.0000
     36 H3          4.5566    6.5040   -1.4965 H         1 <0>         0.0000
     37 H4          3.2252    8.0284   -5.2867 H         1 <0>         0.0000
     38 H5          1.8197    6.8307   -6.6471 H         1 <0>         0.0000
     39 H6          2.5290    5.2284   -6.8588 H         1 <0>         0.0000
     40 H7          2.3985   -0.8771   -1.9189 H         1 <0>         0.0000
     41 H8          2.6430    0.4961   -2.9853 H         1 <0>         0.0000
     42 H9          1.0187    1.7786   -1.9257 H         1 <0>         0.0000
     43 H10         0.4685    0.2995   -1.1394 H         1 <0>         0.0000
     44 H11         4.0666   -0.1950   -0.4208 H         1 <0>         0.0000
     45 H12         4.6639    0.8226   -1.7315 H         1 <0>         0.0000
     46 H13         1.3134    2.3695    0.4123 H         1 <0>         0.0000
     47 H14         1.8546    0.7323    0.8236 H         1 <0>         0.0000
     48 H15         3.9537    1.9381    0.6408 H         1 <0>         0.0000
     49 H16         5.6400    8.7826   -3.6347 H         1 <0>         0.0000
     50 H17         4.0802    9.5837   -3.4283 H         1 <0>         0.0000
     51 H18         4.8976    8.8639   -2.0335 H         1 <0>         0.0000
     52 H19         6.2186    2.6238  -11.1475 H         1 <0>         0.0000
     53 H20         5.7884    4.2599  -10.6301 H         1 <0>         0.0000
     54 H21         6.5994    3.1599   -9.5024 H         1 <0>         0.0000
     55 H22         3.6769    2.1971  -11.7873 H         1 <0>         0.0000
     56 H23         2.4296    2.5974  -10.5843 H         1 <0>         0.0000
     57 H24         3.4024    3.8781  -11.3106 H         1 <0>         0.0000
     58 H25        -0.5666    1.5908   -9.5280 H         1 <0>         0.0000
     59 H26        -0.7665    1.6671   -7.7509 H         1 <0>         0.0000
     60 H27         0.2889    0.4119   -8.4866 H         1 <0>         0.0000
     61 H28         4.8743    0.6127  -10.1756 H         1 <0>         0.0000
     62 H29         5.4416    1.1898   -8.6096 H         1 <0>         0.0000
     63 H30         2.5329    0.6578   -9.3510 H         1 <0>         0.0000
     64 H31         4.1681    3.3287   -8.9783 H         1 <0>         0.0000
     65 H32         3.9871   -1.1717   -8.9523 H         1 <0>         0.0000
@<TRIPOS>BOND
     1    1    2 3
     2    1    7 1
     3    2   21 1
     4    3    4 ar
     5    3   10 ar
     6    3   34 1
     7    4   12 ar
     8    4   35 1
     9    5    7 ar
    10    5   11 ar
    11    5   36 1
    12    6    9 ar
    13    6   11 ar
    14    6   37 1
    15    7   13 ar
    16    8   12 ar
    17    8   14 ar
    18    8   15 1
    19    9   13 ar
    20    9   16 1
    21   10   14 ar
    22   10   27 1
    23   11   22 1
    24   12   30 1
    25   13   30 1
    26   14   33 1
    27   15   29 2
    28   15   31 1
    29   16   31 1
    30   16   38 1
    31   16   39 1
    32   17   18 1
    33   17   19 1
    34   17   40 1
    35   17   41 1
    36   18   20 1
    37   18   42 1
    38   18   43 1
    39   19   21 1
    40   19   44 1
    41   19   45 1
    42   20   21 1
    43   20   46 1
    44   20   47 1
    45   21   48 1
    46   22   49 1
    47   22   50 1
    48   22   51 1
    49   23   28 1
    50   23   52 1
    51   23   53 1
    52   23   54 1
    53   24   28 1
    54   24   55 1
    55   24   56 1
    56   24   57 1
    57   25   33 1
    58   25   58 1
    59   25   59 1
    60   25   60 1
    61   26   27 1
    62   26   28 1
    63   26   61 1
    64   26   62 1
    65   27   32 1
    66   27   63 1
    67   28   64 1
    68   32   65 1
