@<TRIPOS>MOLECULE
*****
   39    41     0     0     0
SMALL
NO_CHARGES

@<TRIPOS>ATOM
      1 C1          2.9860    3.7519    0.0233 C.ar      1 <0>         0.0000
      2 C2          1.7640    3.9669    0.6688 C.ar      1 <0>         0.0000
      3 C3          3.0190    3.2554   -1.2854 C.ar      1 <0>         0.0000
      4 C4          0.5658    3.6758    0.0111 C.ar      1 <0>         0.0000
      5 C5          1.8292    2.9633   -1.9535 C.ar      1 <0>         0.0000
      6 C6         -2.6344   -2.5531    0.0030 C.2       1 <0>         0.0000
      7 C7         -3.2766   -0.5619    0.2379 C.2       1 <0>         0.0000
      8 C8          0.6189    3.1715   -1.2899 C.ar      1 <0>         0.0000
      9 C9          0.3295    0.2181    0.1687 C.2       1 <0>         0.0000
     10 C10         1.6220   -0.9011    2.0384 C.3       1 <0>         0.0000
     11 C11         1.8523    0.5692    2.1504 C.3       1 <0>         0.0000
     12 C12         0.4961    0.0553    1.6419 C.3       1 <0>         0.0000
     13 C13        -0.6998    0.1651    2.5704 C.3       1 <0>         0.0000
     14 C14        -1.0415    0.9243   -1.8668 C.3       1 <0>         0.0000
     15 C15        -1.0822    0.5550   -0.3821 C.3       1 <0>         0.0000
     16 N1         -3.7280   -1.8035    0.3373 N.2       1 <0>         0.0000
     17 N2         -1.5451   -1.8532   -0.2943 N.2       1 <0>         0.0000
     18 N3         -1.9730   -0.5686   -0.1348 N.pl3     1 <0>         0.0000
     19 O1          1.2669    0.1325   -0.6089 O.2       1 <0>         0.0000
     20 O2         -2.0197    3.3257   -1.3354 O.2       1 <0>         0.0000
     21 O3         -0.7767    2.9577   -3.5538 O.2       1 <0>         0.0000
     22 S1         -0.9147    2.7256   -2.1094 S.o2      1 <0>         0.0000
     23 H1          3.9160    3.9757    0.5394 H         1 <0>         0.0000
     24 H2          1.7420    4.3625    1.6804 H         1 <0>         0.0000
     25 H3          3.9705    3.0941   -1.7839 H         1 <0>         0.0000
     26 H4         -0.3958    3.8535    0.4825 H         1 <0>         0.0000
     27 H5          1.8352    2.5808   -2.9692 H         1 <0>         0.0000
     28 H6         -2.6386   -3.6351   -0.0214 H         1 <0>         0.0000
     29 H7         -3.8330    0.3488    0.4209 H         1 <0>         0.0000
     30 H8          2.1075   -1.4278    1.2242 H         1 <0>         0.0000
     31 H9          1.4531   -1.4776    2.9430 H         1 <0>         0.0000
     32 H10         1.8427    1.0306    3.1335 H         1 <0>         0.0000
     33 H11         2.4912    1.0401    1.4119 H         1 <0>         0.0000
     34 H12        -0.3644    0.1232    3.6106 H         1 <0>         0.0000
     35 H13        -1.4085   -0.6540    2.4232 H         1 <0>         0.0000
     36 H14        -1.2343    1.1138    2.4472 H         1 <0>         0.0000
     37 H15        -1.9838    0.6736   -2.3602 H         1 <0>         0.0000
     38 H16        -0.2069    0.4495   -2.3827 H         1 <0>         0.0000
     39 H17        -1.4942    1.3929    0.1877 H         1 <0>         0.0000
@<TRIPOS>BOND
     1    1    3 ar
     2    1    2 ar
     3    1   23 1
     4    2    4 ar
     5    2   24 1
     6    3    5 ar
     7    3   25 1
     8    4    8 ar
     9    4   26 1
    10    5    8 ar
    11    5   27 1
    12    6   16 1
    13    6   17 2
    14    6   28 1
    15    7   16 2
    16    7   18 1
    17    7   29 1
    18    8   22 1
    19    9   12 1
    20    9   15 1
    21    9   19 2
    22   10   11 1
    23   10   12 1
    24   10   30 1
    25   10   31 1
    26   11   12 1
    27   11   32 1
    28   11   33 1
    29   12   13 1
    30   13   34 1
    31   13   35 1
    32   13   36 1
    33   14   15 1
    34   14   22 1
    35   14   37 1
    36   14   38 1
    37   15   18 1
    38   15   39 1
    39   17   18 1
    40   20   22 2
    41   21   22 2
