@<TRIPOS>MOLECULE
*****
   46    50     0     0     0
SMALL
NO_CHARGES

@<TRIPOS>ATOM
      1 C1         -2.7510   -1.0185    5.5550 C.ar      1 <0>         0.0000
      2 C2          2.4849   -0.1972   -0.0327 C.ar      1 <0>         0.0000
      3 C3         -2.4056    0.0887    4.7770 C.ar      1 <0>         0.0000
      4 C4          1.2965    0.3579    0.4389 C.ar      1 <0>         0.0000
      5 C5         -3.6929   -1.9441    5.0955 C.ar      1 <0>         0.0000
      6 C6          1.0926   -1.5574    1.9084 C.ar      1 <0>         0.0000
      7 C7          4.3750   -3.1800   -0.7585 C.ar      1 <0>         0.0000
      8 C8         -3.9311   -0.6443    3.0505 C.ar      1 <0>         0.0000
      9 C9          5.3654   -1.0406   -0.3317 C.ar      1 <0>         0.0000
     10 C10         6.6042   -2.5804   -1.4912 C.ar      1 <0>         0.0000
     11 C11         3.0064   -1.4167    0.4328 C.ar      1 <0>         0.0000
     12 C12         2.2990   -2.1156    1.4479 C.ar      1 <0>         0.0000
     13 C13         4.2603   -1.8983   -0.2021 C.ar      1 <0>         0.0000
     14 C14        -2.9897    0.2851    3.5157 C.ar      1 <0>         0.0000
     15 C15         0.5909   -0.3485    1.4238 C.ar      1 <0>         0.0000
     16 C16         5.5570   -3.4949   -1.4040 C.ar      1 <0>         0.0000
     17 C17        -4.2763   -1.7376    3.8446 C.ar      1 <0>         0.0000
     18 C18         2.7382   -3.3570    2.0965 C.2       1 <0>         0.0000
     19 C19        -1.2969    1.2701    1.8091 C.2       1 <0>         0.0000
     20 C20        -3.6228    2.3130    2.0132 C.3       1 <0>         0.0000
     21 C21        -2.7926    2.8505    3.1441 C.3       1 <0>         0.0000
     22 C22        -2.5605    1.4285    2.6460 C.3       1 <0>         0.0000
     23 N1          3.8844   -5.0212    2.7780 N.2       1 <0>         0.0000
     24 N2          6.5103   -1.3580   -0.9547 N.ar      1 <0>         0.0000
     25 N3          3.9433   -3.9513    1.9699 N.2       1 <0>         0.0000
     26 N4          1.9449   -4.0316    2.9618 N.2       1 <0>         0.0000
     27 N5          2.6878   -5.0681    3.3698 N.2       1 <0>         0.0000
     28 N6         -0.6366    0.0912    1.9847 N.am      1 <0>         0.0000
     29 O1         -0.9353    2.1742    1.0502 O.2       1 <0>         0.0000
     30 F1          5.7077   -4.7217   -1.9800 F         1 <0>         0.0000
     31 Cl1        -5.4676   -2.8882    3.2496 Cl        1 <0>         0.0000
     32 H1         -2.2792   -1.1736    6.5213 H         1 <0>         0.0000
     33 H2          3.0223    0.3252   -0.8203 H         1 <0>         0.0000
     34 H3         -1.6669    0.8002    5.1364 H         1 <0>         0.0000
     35 H4          0.9203    1.2969    0.0574 H         1 <0>         0.0000
     36 H5         -3.9620   -2.8116    5.6893 H         1 <0>         0.0000
     37 H6          0.5647   -2.1048    2.6854 H         1 <0>         0.0000
     38 H7          3.5756   -3.9075   -0.6829 H         1 <0>         0.0000
     39 H8         -4.3819   -0.5164    2.0713 H         1 <0>         0.0000
     40 H9          5.3235   -0.0468    0.1106 H         1 <0>         0.0000
     41 H10         7.5288   -2.8494   -1.9996 H         1 <0>         0.0000
     42 H11        -4.6583    2.0569    2.2162 H         1 <0>         0.0000
     43 H12        -3.4032    2.6804    1.0166 H         1 <0>         0.0000
     44 H13        -2.0224    3.5739    2.8988 H         1 <0>         0.0000
     45 H14        -3.2585    2.9528    4.1198 H         1 <0>         0.0000
     46 H15        -1.0409   -0.5568    2.6493 H         1 <0>         0.0000
@<TRIPOS>BOND
     1    1    3 ar
     2    1    5 ar
     3    1   32 1
     4    2    4 ar
     5    2   11 ar
     6    2   33 1
     7    3   14 ar
     8    3   34 1
     9    4   15 ar
    10    4   35 1
    11    5   17 ar
    12    5   36 1
    13    6   12 ar
    14    6   15 ar
    15    6   37 1
    16    7   13 ar
    17    7   16 ar
    18    7   38 1
    19    8   14 ar
    20    8   17 ar
    21    8   39 1
    22    9   13 ar
    23    9   24 ar
    24    9   40 1
    25   10   16 ar
    26   10   24 ar
    27   10   41 1
    28   11   12 ar
    29   11   13 1
    30   12   18 1
    31   14   22 1
    32   15   28 1
    33   16   30 1
    34   17   31 1
    35   18   25 2
    36   18   26 1
    37   19   22 1
    38   19   28 am
    39   19   29 2
    40   20   21 1
    41   20   22 1
    42   20   42 1
    43   20   43 1
    44   21   22 1
    45   21   44 1
    46   21   45 1
    47   23   25 1
    48   23   27 1
    49   26   27 2
    50   28   46 1
