@<TRIPOS>MOLECULE
*****
   29    30     0     0     0
SMALL
NO_CHARGES

@<TRIPOS>ATOM
      1 C1          2.6387   -6.4791    1.7911 C.ar      1 <0>         0.0000
      2 C2          2.3861   -5.3416    1.0149 C.ar      1 <0>         0.0000
      3 C3          1.6343   -6.9967    2.6135 C.ar      1 <0>         0.0000
      4 C4          1.1323   -4.7289    1.0598 C.ar      1 <0>         0.0000
      5 C5          0.3818   -6.3763    2.6640 C.ar      1 <0>         0.0000
      6 C6          0.1216   -5.2430    1.8857 C.ar      1 <0>         0.0000
      7 C7         -0.7327   -2.7364    3.4798 C.cat     1 <0>         0.0000
      8 C8         -0.1956   -1.4190    5.3021 C.3       1 <0>         0.0000
      9 C9          0.0367   -2.9098    5.6047 C.3       1 <0>         0.0000
     10 C10        -2.0103   -4.6857    0.6003 C.3       1 <0>         0.0000
     11 C11        -1.2526   -4.6018    1.9261 C.3       1 <0>         0.0000
     12 N1         -0.4299   -1.4839    3.8478 N.pl3     1 <0>         0.0000
     13 N2         -1.1560   -3.1514    2.3030 N.pl3     1 <0>         0.0000
     14 O1         -0.5660   -3.6079    4.4564 O.3       1 <0>         0.0000
     15 H1          3.6120   -6.9596    1.7509 H         1 <0>         0.0000
     16 H2          3.1624   -4.9399    0.3698 H         1 <0>         0.0000
     17 H3          1.8243   -7.8808    3.2155 H         1 <0>         0.0000
     18 H4          0.9465   -3.8529    0.4412 H         1 <0>         0.0000
     19 H5         -0.3949   -6.7791    3.3104 H         1 <0>         0.0000
     20 H6         -1.0703   -1.0130    5.8180 H         1 <0>         0.0000
     21 H7          0.6804   -0.8096    5.5273 H         1 <0>         0.0000
     22 H8          1.0919   -3.1854    5.6196 H         1 <0>         0.0000
     23 H9         -0.4683   -3.2705    6.4983 H         1 <0>         0.0000
     24 H10        -1.4587   -4.1904   -0.2055 H         1 <0>         0.0000
     25 H11        -2.1218   -5.7352    0.3214 H         1 <0>         0.0000
     26 H12        -3.0072   -4.2414    0.6820 H         1 <0>         0.0000
     27 H13        -1.8472   -5.0782    2.7087 H         1 <0>         0.0000
     28 H14        -0.6186   -0.6703    3.2743 H         1 <0>         0.0000
     29 H15        -1.2849   -2.4604    1.5717 H         1 <0>         0.0000
@<TRIPOS>BOND
     1    1    3 ar
     2    1    2 ar
     3    1   15 1
     4    2    4 ar
     5    2   16 1
     6    3    5 ar
     7    3   17 1
     8    4    6 ar
     9    4   18 1
    10    5    6 ar
    11    5   19 1
    12    6   11 1
    13    7   12 2
    14    7   13 1
    15    7   14 1
    16    8    9 1
    17    8   12 1
    18    8   20 1
    19    8   21 1
    20    9   14 1
    21    9   22 1
    22    9   23 1
    23   10   11 1
    24   10   24 1
    25   10   25 1
    26   10   26 1
    27   11   13 1
    28   11   27 1
    29   12   28 1
    30   13   29 1
