@<TRIPOS>MOLECULE
*****
   35    35     0     0     0
SMALL
NO_CHARGES

@<TRIPOS>ATOM
      1 C1          0.0508   -3.9579   -5.4084 C.2       1 <0>         0.0000
      2 C2          2.8769   -1.6606    0.5350 C.3       1 <0>         0.0000
      3 C3          0.9733   -0.4226   -0.2775 C.3       1 <0>         0.0000
      4 C4          2.6493   -2.7208   -0.5481 C.3       1 <0>         0.0000
      5 C5          0.7469   -1.4824   -1.3611 C.3       1 <0>         0.0000
      6 C6         -0.0235   -5.0212   -6.4535 C.3       1 <0>         0.0000
      7 C7          2.8634   -1.7247   -4.5918 C.3       1 <0>         0.0000
      8 C8          1.8318    0.0009    1.9360 C.3       1 <0>         0.0000
      9 C9          1.7938   -3.1419   -2.7630 C.3       1 <0>         0.0000
     10 C10         1.6348   -2.5131   -4.1491 C.3       1 <0>         0.0000
     11 N1          1.6130   -1.0119    0.9052 N.3       1 <0>         0.0000
     12 N2          2.0113   -2.1302   -1.7310 N.3       1 <0>         0.0000
     13 N3          1.3350   -3.5372   -5.1288 N.am      1 <0>         0.0000
     14 O1         -0.9810   -3.5454   -4.8917 O.2       1 <0>         0.0000
     15 H1          3.3116   -2.1531    1.4133 H         1 <0>         0.0000
     16 H2          3.6077   -0.9212    0.1801 H         1 <0>         0.0000
     17 H3          1.5814    0.3970   -0.6843 H         1 <0>         0.0000
     18 H4          0.0001    0.0003   -0.0003 H         1 <0>         0.0000
     19 H5          3.6222   -3.1448   -0.8248 H         1 <0>         0.0000
     20 H6          2.0399   -3.5394   -0.1414 H         1 <0>         0.0000
     21 H7          0.0163   -2.2224   -1.0069 H         1 <0>         0.0000
     22 H8          0.3122   -0.9898   -2.2394 H         1 <0>         0.0000
     23 H9          0.0326   -6.0353   -6.0263 H         1 <0>         0.0000
     24 H10        -0.9714   -4.9937   -7.0146 H         1 <0>         0.0000
     25 H11         0.7676   -4.9852   -7.2194 H         1 <0>         0.0000
     26 H12         3.7562   -2.3568   -4.6501 H         1 <0>         0.0000
     27 H13         2.7060   -1.2953   -5.5875 H         1 <0>         0.0000
     28 H14         3.0695   -0.9025   -3.8987 H         1 <0>         0.0000
     29 H15         2.3081   -0.4499    2.8105 H         1 <0>         0.0000
     30 H16         0.8787    0.4408    2.2419 H         1 <0>         0.0000
     31 H17         2.4780    0.7957    1.5538 H         1 <0>         0.0000
     32 H18         2.6441   -3.8332   -2.7594 H         1 <0>         0.0000
     33 H19         0.9003   -3.7229   -2.5095 H         1 <0>         0.0000
     34 H20         0.7837   -1.8228   -4.1126 H         1 <0>         0.0000
     35 H21         2.1044   -3.9647   -5.6324 H         1 <0>         0.0000
@<TRIPOS>BOND
     1    1    6 1
     2    1   13 am
     3    1   14 2
     4    2    4 1
     5    2   11 1
     6    2   15 1
     7    2   16 1
     8    3    5 1
     9    3   11 1
    10    3   17 1
    11    3   18 1
    12    4   12 1
    13    4   19 1
    14    4   20 1
    15    5   12 1
    16    5   21 1
    17    5   22 1
    18    6   23 1
    19    6   24 1
    20    6   25 1
    21    7   10 1
    22    7   26 1
    23    7   27 1
    24    7   28 1
    25    8   11 1
    26    8   29 1
    27    8   30 1
    28    8   31 1
    29    9   10 1
    30    9   12 1
    31    9   32 1
    32    9   33 1
    33   10   13 1
    34   10   34 1
    35   13   35 1
