@<TRIPOS>MOLECULE
*****
   33    35     0     0     0
SMALL
NO_CHARGES

@<TRIPOS>ATOM
      1 C1         -5.0710   -0.6253   -4.8698 C.ar      1 <0>         0.0000
      2 C2         -7.1172   -1.8837   -5.0001 C.ar      1 <0>         0.0000
      3 C3         -4.5962   -1.5625   -3.9469 C.ar      1 <0>         0.0000
      4 C4         -6.3450   -0.7915   -5.4007 C.ar      1 <0>         0.0000
      5 C5         -5.4374   -2.6389   -3.5971 C.ar      1 <0>         0.0000
      6 C6         -2.7871    1.6384   -1.2465 C.3       1 <0>         0.0000
      7 C7         -3.1982    0.2954   -0.6596 C.3       1 <0>         0.0000
      8 C8         -5.2551   -5.1181   -2.9194 C.3       1 <0>         0.0000
      9 C9         -3.8443   -4.5666   -2.8865 C.3       1 <0>         0.0000
     10 C10        -3.5196    0.6479   -2.1039 C.3       1 <0>         0.0000
     11 C11        -5.0275   -3.6680   -2.5765 C.3       1 <0>         0.0000
     12 C12        -5.2667   -3.2324   -1.1367 C.3       1 <0>         0.0000
     13 C13        -3.1937   -1.3964   -3.3831 C.3       1 <0>         0.0000
     14 N1         -6.6690   -2.7804   -4.1189 N.ar      1 <0>         0.0000
     15 N2         -2.8443    0.0186   -3.2174 N.3       1 <0>         0.0000
     16 Cl1        -6.9885    0.3581   -6.5611 Cl        1 <0>         0.0000
     17 H1         -4.4466    0.2193   -5.1440 H         1 <0>         0.0000
     18 H2         -8.1188   -2.0315   -5.3994 H         1 <0>         0.0000
     19 H3         -3.3124    2.5325   -0.9246 H         1 <0>         0.0000
     20 H4         -1.7292    1.7938   -1.4453 H         1 <0>         0.0000
     21 H5         -2.4084   -0.4308   -0.4839 H         1 <0>         0.0000
     22 H6         -4.0046    0.2724    0.0684 H         1 <0>         0.0000
     23 H7         -5.6963   -5.3403   -3.8854 H         1 <0>         0.0000
     24 H8         -5.5662   -5.7812   -2.1169 H         1 <0>         0.0000
     25 H9         -3.1924   -4.8496   -2.0637 H         1 <0>         0.0000
     26 H10        -3.3354   -4.4344   -3.8376 H         1 <0>         0.0000
     27 H11        -4.5624    0.8715   -2.3162 H         1 <0>         0.0000
     28 H12        -4.9393   -4.0081   -0.4362 H         1 <0>         0.0000
     29 H13        -6.3343   -3.0522   -0.9705 H         1 <0>         0.0000
     30 H14        -4.7273   -2.3095   -0.8973 H         1 <0>         0.0000
     31 H15        -3.1021   -1.9611   -2.4481 H         1 <0>         0.0000
     32 H16        -2.4794   -1.8360   -4.0907 H         1 <0>         0.0000
     33 H17        -1.8375    0.1134   -3.1162 H         1 <0>         0.0000
@<TRIPOS>BOND
     1    1    3 ar
     2    1    4 ar
     3    1   17 1
     4    2    4 ar
     5    2   14 ar
     6    2   18 1
     7    3    5 ar
     8    3   13 1
     9    4   16 1
    10    5   11 1
    11    5   14 ar
    12    6    7 1
    13    6   10 1
    14    6   19 1
    15    6   20 1
    16    7   10 1
    17    7   21 1
    18    7   22 1
    19    8    9 1
    20    8   11 1
    21    8   23 1
    22    8   24 1
    23    9   11 1
    24    9   25 1
    25    9   26 1
    26   10   15 1
    27   10   27 1
    28   11   12 1
    29   12   28 1
    30   12   29 1
    31   12   30 1
    32   13   15 1
    33   13   31 1
    34   13   32 1
    35   15   33 1
