@<TRIPOS>MOLECULE
*****
   37    39     0     0     0
SMALL
NO_CHARGES

@<TRIPOS>ATOM
      1 C1         -2.2415   -2.0798   -0.2801 C.1       1 <0>         0.0000
      2 C2         -2.0021   -0.5641    4.0667 C.ar      1 <0>         0.0000
      3 C3         -1.1598   -0.4392    2.9662 C.ar      1 <0>         0.0000
      4 C4         -3.3224   -0.1001    3.9928 C.ar      1 <0>         0.0000
      5 C5         -0.9857   -2.5819    0.1488 C.2       1 <0>         0.0000
      6 C6         -1.6343    0.1633    1.7877 C.ar      1 <0>         0.0000
      7 C7         -0.6661   -3.9681    0.3841 C.2       1 <0>         0.0000
      8 C8         -3.8319    0.4757    2.8238 C.ar      1 <0>         0.0000
      9 C9         -2.9709    0.5912    1.7200 C.ar      1 <0>         0.0000
     10 C10         0.6358   -4.1401    0.7638 C.2       1 <0>         0.0000
     11 C11         0.0864   -1.7197    0.3684 C.2       1 <0>         0.0000
     12 C12        -0.7192    0.4378    0.6592 C.2       1 <0>         0.0000
     13 C13        -1.6264   -5.1204    0.2327 C.3       1 <0>         0.0000
     14 C14         1.2749   -5.4574    1.1060 C.3       1 <0>         0.0000
     15 C15        -1.0830   -6.3842    0.9191 C.3       1 <0>         0.0000
     16 C16         0.3983   -6.6115    0.5855 C.3       1 <0>         0.0000
     17 C17        -5.2640    0.9332    2.7110 C.3       1 <0>         0.0000
     18 N1         -3.2457   -1.5937   -0.6275 N.1       1 <0>         0.0000
     19 N2          0.1404   -0.3610    0.1274 N.2       1 <0>         0.0000
     20 O1         -3.4602    1.1298    0.5477 O.3       1 <0>         0.0000
     21 S1          1.5087   -2.6175    0.8214 S.3       1 <0>         0.0000
     22 H1         -1.6338   -1.0123    4.9854 H         1 <0>         0.0000
     23 H2         -0.1282   -0.7741    3.0207 H         1 <0>         0.0000
     24 H3         -3.9755   -0.2026    4.8567 H         1 <0>         0.0000
     25 H4         -0.7370    1.4540    0.2605 H         1 <0>         0.0000
     26 H5         -2.6040   -4.8496    0.6472 H         1 <0>         0.0000
     27 H6         -1.7913   -5.3136   -0.8358 H         1 <0>         0.0000
     28 H7          2.2812   -5.5246    0.6771 H         1 <0>         0.0000
     29 H8          1.3945   -5.5419    2.1948 H         1 <0>         0.0000
     30 H9         -1.1957   -6.2826    2.0059 H         1 <0>         0.0000
     31 H10        -1.6780   -7.2524    0.6169 H         1 <0>         0.0000
     32 H11         0.5164   -6.6907   -0.5023 H         1 <0>         0.0000
     33 H12         0.7469   -7.5562    1.0160 H         1 <0>         0.0000
     34 H13        -5.3203    1.9903    2.4343 H         1 <0>         0.0000
     35 H14        -5.7898    0.3755    1.9290 H         1 <0>         0.0000
     36 H15        -5.7946    0.7905    3.6561 H         1 <0>         0.0000
     37 H16        -3.4794    0.4176   -0.1253 H         1 <0>         0.0000
@<TRIPOS>BOND
     1    1    5 1
     2    1   18 3
     3    2    3 ar
     4    2    4 ar
     5    2   22 1
     6    3    6 ar
     7    3   23 1
     8    4    8 ar
     9    4   24 1
    10    5    7 1
    11    5   11 2
    12    6    9 ar
    13    6   12 1
    14    7   10 2
    15    7   13 1
    16    8    9 ar
    17    8   17 1
    18    9   20 1
    19   10   14 1
    20   10   21 1
    21   11   19 1
    22   11   21 1
    23   12   19 2
    24   12   25 1
    25   13   15 1
    26   13   26 1
    27   13   27 1
    28   14   16 1
    29   14   28 1
    30   14   29 1
    31   15   16 1
    32   15   30 1
    33   15   31 1
    34   16   32 1
    35   16   33 1
    36   17   34 1
    37   17   35 1
    38   17   36 1
    39   20   37 1
