@<TRIPOS>MOLECULE
*****
   59    63     0     0     0
SMALL
NO_CHARGES

@<TRIPOS>ATOM
      1 C1          5.9230    1.6446   -1.9272 C.ar      1 <0>         0.0000
      2 C2          6.9823    1.3951   -1.0355 C.ar      1 <0>         0.0000
      3 C3          4.6625    1.0823   -1.7107 C.ar      1 <0>         0.0000
      4 C4          3.0718   -2.7439   -3.0627 C.ar      1 <0>         0.0000
      5 C5          1.1460   -3.9590   -2.0549 C.ar      1 <0>         0.0000
      6 C6          1.9757   -0.5645   -0.4565 C.ar      1 <0>         0.0000
      7 C7          6.8052    0.5839    0.0901 C.ar      1 <0>         0.0000
      8 C8          4.3965   -2.3562   -3.0240 C.ar      1 <0>         0.0000
      9 C9          0.6208   -4.7202   -1.0346 C.ar      1 <0>         0.0000
     10 C10         1.1046   -1.3266    0.3107 C.ar      1 <0>         0.0000
     11 C11         4.6959   -3.5564   -0.9289 C.ar      1 <0>         0.0000
     12 C12         2.7777   -4.7473    0.0881 C.ar      1 <0>         0.0000
     13 C13         2.8662   -1.8086    1.9433 C.ar      1 <0>         0.0000
     14 C14         2.5065   -3.5512   -2.0450 C.ar      1 <0>         0.0000
     15 C15         4.4579    0.2804   -0.5822 C.ar      1 <0>         0.0000
     16 C16         3.3061   -0.4148   -0.0445 C.ar      1 <0>         0.0000
     17 C17         3.3417   -3.9618   -0.9556 C.ar      1 <0>         0.0000
     18 C18         5.5382    0.0421    0.3110 C.ar      1 <0>         0.0000
     19 C19         3.7253   -1.0429    1.1526 C.ar      1 <0>         0.0000
     20 C20         5.2180   -2.7718   -1.9418 C.ar      1 <0>         0.0000
     21 C21         1.4479   -5.1039    0.0581 C.ar      1 <0>         0.0000
     22 C22         1.5496   -1.9574    1.4919 C.ar      1 <0>         0.0000
     23 C23         6.1689   -2.4543    2.8545 C.2       1 <0>         0.0000
     24 C24         7.1499   -1.7152   -2.8903 C.3       1 <0>         0.0000
     25 C25         5.7739   -0.9944    2.5899 C.3       1 <0>         0.0000
     26 C26         0.0397   -4.8411    3.1075 C.3       1 <0>         0.0000
     27 C27        -0.2585   -5.4317    1.7269 C.3       1 <0>         0.0000
     28 C28         1.0773   -3.7272    3.0543 C.3       1 <0>         0.0000
     29 N1          5.0816   -0.7711    1.3562 N.pl3     1 <0>         0.0000
     30 O1          5.8583   -3.3980    2.1753 O.2       1 <0>         0.0000
     31 O2          6.8985   -2.6297    3.9960 O.3       1 <0>         0.0000
     32 O3          6.5390   -2.4261   -1.8192 O.3       1 <0>         0.0000
     33 O4          0.9491   -5.8821    1.0882 O.3       1 <0>         0.0000
     34 O5          0.6182   -2.7336    2.1290 O.3       1 <0>         0.0000
     35 H1          6.0917    2.2762   -2.7952 H         1 <0>         0.0000
     36 H2          7.9598    1.8288   -1.2285 H         1 <0>         0.0000
     37 H3          3.8484    1.2697   -2.4060 H         1 <0>         0.0000
     38 H4          2.4429   -2.4220   -3.8901 H         1 <0>         0.0000
     39 H5          0.5141   -3.6651   -2.8904 H         1 <0>         0.0000
     40 H6          1.6292   -0.1112   -1.3810 H         1 <0>         0.0000
     41 H7          7.6434    0.3782    0.7505 H         1 <0>         0.0000
     42 H8          4.7953   -1.7290   -3.8127 H         1 <0>         0.0000
     43 H9         -0.4155   -5.0431   -1.0659 H         1 <0>         0.0000
     44 H10         0.0798   -1.4956   -0.0020 H         1 <0>         0.0000
     45 H11         5.3322   -3.8332   -0.0958 H         1 <0>         0.0000
     46 H12         3.3987   -5.0538    0.9247 H         1 <0>         0.0000
     47 H13         3.2195   -2.3141    2.8331 H         1 <0>         0.0000
     48 H14         8.1901   -1.5707   -2.5941 H         1 <0>         0.0000
     49 H15         6.6853   -0.7361   -3.0403 H         1 <0>         0.0000
     50 H16         7.1151   -2.2938   -3.8227 H         1 <0>         0.0000
     51 H17         5.1526   -0.6662    3.4374 H         1 <0>         0.0000
     52 H18         6.6763   -0.3761    2.6084 H         1 <0>         0.0000
     53 H19        -0.8995   -4.4688    3.5350 H         1 <0>         0.0000
     54 H20         0.4194   -5.6235    3.7745 H         1 <0>         0.0000
     55 H21        -0.9159   -6.3016    1.8237 H         1 <0>         0.0000
     56 H22        -0.7604   -4.6840    1.1090 H         1 <0>         0.0000
     57 H23         2.0321   -4.1362    2.7145 H         1 <0>         0.0000
     58 H24         1.2217   -3.2757    4.0449 H         1 <0>         0.0000
     59 H25         7.0691   -1.7757    4.4305 H         1 <0>         0.0000
@<TRIPOS>BOND
     1    1    2 ar
     2    1    3 ar
     3    1   35 1
     4    2    7 ar
     5    2   36 1
     6    3   15 ar
     7    3   37 1
     8    4    8 ar
     9    4   14 ar
    10    4   38 1
    11    5    9 ar
    12    5   14 ar
    13    5   39 1
    14    6   10 ar
    15    6   16 ar
    16    6   40 1
    17    7   18 ar
    18    7   41 1
    19    8   20 ar
    20    8   42 1
    21    9   21 ar
    22    9   43 1
    23   10   22 ar
    24   10   44 1
    25   11   17 ar
    26   11   20 ar
    27   11   45 1
    28   12   17 ar
    29   12   21 ar
    30   12   46 1
    31   13   19 ar
    32   13   22 ar
    33   13   47 1
    34   14   17 ar
    35   15   16 1
    36   15   18 ar
    37   16   19 ar
    38   18   29 1
    39   19   29 1
    40   20   32 1
    41   21   33 1
    42   22   34 1
    43   23   25 1
    44   23   30 2
    45   23   31 1
    46   24   32 1
    47   24   48 1
    48   24   49 1
    49   24   50 1
    50   25   29 1
    51   25   51 1
    52   25   52 1
    53   26   27 1
    54   26   28 1
    55   26   53 1
    56   26   54 1
    57   27   33 1
    58   27   55 1
    59   27   56 1
    60   28   34 1
    61   28   57 1
    62   28   58 1
    63   31   59 1
