@<TRIPOS>MOLECULE
*****
   58    62     0     0     0
SMALL
NO_CHARGES

@<TRIPOS>ATOM
      1 C1          6.1159    1.4367   -1.6667 C.ar      1 <0>         0.0000
      2 C2          5.3154    1.8524   -2.7517 C.ar      1 <0>         0.0000
      3 C3          5.5577    0.7126   -0.6092 C.ar      1 <0>         0.0000
      4 C4          3.2277   -2.4203   -2.7528 C.ar      1 <0>         0.0000
      5 C5          0.9996   -3.3515   -2.1864 C.ar      1 <0>         0.0000
      6 C6          3.4826   -1.0564    1.4134 C.ar      1 <0>         0.0000
      7 C7          3.9466    1.5751   -2.7980 C.ar      1 <0>         0.0000
      8 C8          4.5753   -2.2931   -2.4827 C.ar      1 <0>         0.0000
      9 C9          0.2036   -4.1146   -1.3604 C.ar      1 <0>         0.0000
     10 C10         2.3978   -1.7231    1.9848 C.ar      1 <0>         0.0000
     11 C11         4.3663   -3.8221   -0.6005 C.ar      1 <0>         0.0000
     12 C12         2.1317   -4.7344   -0.0132 C.ar      1 <0>         0.0000
     13 C13         0.9182   -0.9469    0.1894 C.ar      1 <0>         0.0000
     14 C14         2.3982   -3.2465   -1.9527 C.ar      1 <0>         0.0000
     15 C15         4.1888    0.4230   -0.6307 C.ar      1 <0>         0.0000
     16 C16         3.3053   -0.3247    0.2378 C.ar      1 <0>         0.0000
     17 C17         2.9788   -3.9563   -0.8513 C.ar      1 <0>         0.0000
     18 C18         3.3878    0.8818   -1.7190 C.ar      1 <0>         0.0000
     19 C19         2.0105   -0.2692   -0.3576 C.ar      1 <0>         0.0000
     20 C20         5.1474   -3.0023   -1.3957 C.ar      1 <0>         0.0000
     21 C21         0.7759   -4.7926   -0.2520 C.ar      1 <0>         0.0000
     22 C22         1.1332   -1.6798    1.3584 C.ar      1 <0>         0.0000
     23 C23         0.6892   -0.1173   -3.5396 C.2       1 <0>         0.0000
     24 C24         7.3413   -2.2083   -1.9428 C.3       1 <0>         0.0000
     25 C25         0.9266    0.8612   -2.3419 C.3       1 <0>         0.0000
     26 C26        -0.9138   -4.4296    2.5953 C.3       1 <0>         0.0000
     27 C27        -1.1678   -4.9013    1.1609 C.3       1 <0>         0.0000
     28 C28         0.2717   -3.4774    2.7072 C.3       1 <0>         0.0000
     29 N1          2.0735    0.4884   -1.5169 N.pl3     1 <0>         0.0000
     30 O1          1.6325   -0.1565   -4.3780 O.co2     1 <0>         0.0000
     31 O2         -0.3939   -0.7591   -3.5156 O.co2     1 <0>         0.0000
     32 O3          6.4804   -2.9047   -1.0490 O.3       1 <0>         0.0000
     33 O4         -0.0136   -5.5529    0.6075 O.3       1 <0>         0.0000
     34 O5          0.0363   -2.3650    1.8454 O.3       1 <0>         0.0000
     35 H1          7.1794    1.6664   -1.6647 H         1 <0>         0.0000
     36 H2          5.7769    2.3811   -3.5831 H         1 <0>         0.0000
     37 H3          6.1815    0.3606    0.2098 H         1 <0>         0.0000
     38 H4          2.7807   -1.8356   -3.5545 H         1 <0>         0.0000
     39 H5          0.5514   -2.7832   -2.9981 H         1 <0>         0.0000
     40 H6          4.4639   -1.1269    1.8764 H         1 <0>         0.0000
     41 H7          3.3415    1.8175   -3.6649 H         1 <0>         0.0000
     42 H8          5.1684   -1.6108   -3.0802 H         1 <0>         0.0000
     43 H9         -0.8638   -4.1824   -1.5491 H         1 <0>         0.0000
     44 H10         2.5404   -2.2950    2.8947 H         1 <0>         0.0000
     45 H11         4.8264   -4.3377    0.2386 H         1 <0>         0.0000
     46 H12         2.5461   -5.2607    0.8431 H         1 <0>         0.0000
     47 H13        -0.0444   -0.9871   -0.3079 H         1 <0>         0.0000
     48 H14         8.3457   -2.3015   -1.5216 H         1 <0>         0.0000
     49 H15         7.0762   -1.1485   -2.0185 H         1 <0>         0.0000
     50 H16         7.3259   -2.6591   -2.9441 H         1 <0>         0.0000
     51 H17         1.1134    1.8682   -2.7302 H         1 <0>         0.0000
     52 H18         0.0469    0.8967   -1.6960 H         1 <0>         0.0000
     53 H19        -1.8255   -3.9408    2.9635 H         1 <0>         0.0000
     54 H20        -0.7180   -5.2942    3.2416 H         1 <0>         0.0000
     55 H21        -1.9814   -5.6351    1.1485 H         1 <0>         0.0000
     56 H22        -1.4609   -4.0497    0.5440 H         1 <0>         0.0000
     57 H23         1.1864   -3.9957    2.4079 H         1 <0>         0.0000
     58 H24         0.3930   -3.1338    3.7451 H         1 <0>         0.0000
@<TRIPOS>BOND
     1    1    2 ar
     2    1    3 ar
     3    1   35 1
     4    2    7 ar
     5    2   36 1
     6    3   15 ar
     7    3   37 1
     8    4    8 ar
     9    4   14 ar
    10    4   38 1
    11    5    9 ar
    12    5   14 ar
    13    5   39 1
    14    6   10 ar
    15    6   16 ar
    16    6   40 1
    17    7   18 ar
    18    7   41 1
    19    8   20 ar
    20    8   42 1
    21    9   21 ar
    22    9   43 1
    23   10   22 ar
    24   10   44 1
    25   11   17 ar
    26   11   20 ar
    27   11   45 1
    28   12   17 ar
    29   12   21 ar
    30   12   46 1
    31   13   19 ar
    32   13   22 ar
    33   13   47 1
    34   14   17 ar
    35   15   16 1
    36   15   18 ar
    37   16   19 ar
    38   18   29 1
    39   19   29 1
    40   20   32 1
    41   21   33 1
    42   22   34 1
    43   23   25 1
    44   23   30 1
    45   23   31 2
    46   24   32 1
    47   24   48 1
    48   24   49 1
    49   24   50 1
    50   25   29 1
    51   25   51 1
    52   25   52 1
    53   26   27 1
    54   26   28 1
    55   26   53 1
    56   26   54 1
    57   27   33 1
    58   27   55 1
    59   27   56 1
    60   28   34 1
    61   28   57 1
    62   28   58 1
