@<TRIPOS>MOLECULE
*****
   58    60     0     0     0
SMALL
NO_CHARGES

@<TRIPOS>ATOM
      1 C1          1.7426   -7.9244    6.5638 C.ar      1 <0>         0.0000
      2 C2          1.6927   -8.1364    7.9414 C.ar      1 <0>         0.0000
      3 C3         -3.5307   -5.4957    9.7713 C.ar      1 <0>         0.0000
      4 C4         -2.3520   -6.0367   11.8465 C.ar      1 <0>         0.0000
      5 C5         -2.3367   -5.0314    9.2198 C.ar      1 <0>         0.0000
      6 C6         -1.1588   -5.5768   11.2864 C.ar      1 <0>         0.0000
      7 C7          0.8420   -2.7920    3.7217 C.ar      1 <0>         0.0000
      8 C8         -1.2785   -3.9508    3.6360 C.ar      1 <0>         0.0000
      9 C9          0.9577   -5.6817    6.8636 C.ar      1 <0>         0.0000
     10 C10         1.3749   -6.6953    5.9981 C.ar      1 <0>         0.0000
     11 C11         1.5015   -4.0011    3.9745 C.ar      1 <0>         0.0000
     12 C12        -0.6371   -5.1705    3.8754 C.ar      1 <0>         0.0000
     13 C13         0.7609   -5.1973    4.0562 C.ar      1 <0>         0.0000
     14 C14         1.2741   -7.1135    8.8028 C.ar      1 <0>         0.0000
     15 C15        -0.5452   -2.7682    3.5776 C.ar      1 <0>         0.0000
     16 C16        -3.5101   -5.9903   11.0746 C.ar      1 <0>         0.0000
     17 C17        -1.1656   -5.0840    9.9806 C.ar      1 <0>         0.0000
     18 C18         0.9078   -5.8803    8.2438 C.ar      1 <0>         0.0000
     19 C19        -0.0395    0.4120    4.0716 C.2       1 <0>         0.0000
     20 C20         2.9974   -3.9847    4.2017 C.3       1 <0>         0.0000
     21 C21        -1.4646   -6.4315    3.9890 C.3       1 <0>         0.0000
     22 C22        -1.1180   -1.1047    5.7965 C.3       1 <0>         0.0000
     23 C23        -2.5117    0.2401    4.1716 C.3       1 <0>         0.0000
     24 C24         1.4354   -6.4808    4.4876 C.3       1 <0>         0.0000
     25 C25        -1.2116   -0.5469    4.3789 C.3       1 <0>         0.0000
     26 O1          0.4219    1.1818    4.8823 O.2       1 <0>         0.0000
     27 O2          0.0161   -3.4124    8.3142 O.2       1 <0>         0.0000
     28 O3          1.3293   -4.2627   10.3386 O.2       1 <0>         0.0000
     29 O4          1.1879   -7.2810   10.1554 O.3       1 <0>         0.0000
     30 O5          0.3967    0.3758    2.7889 O.3       1 <0>         0.0000
     31 O6         -1.2486   -1.5891    3.3490 O.3       1 <0>         0.0000
     32 F1         -4.6683   -6.4398   11.6138 F         1 <0>         0.0000
     33 S1          0.3653   -4.4897    9.2565 S.o2      1 <0>         0.0000
     34 H1          2.0679   -8.7376    5.9182 H         1 <0>         0.0000
     35 H2          1.9768   -9.1030    8.3545 H         1 <0>         0.0000
     36 H3         -4.4642   -5.4700    9.2181 H         1 <0>         0.0000
     37 H4         -2.3948   -6.4214   12.8607 H         1 <0>         0.0000
     38 H5         -2.3125   -4.6187    8.2160 H         1 <0>         0.0000
     39 H6         -0.2315   -5.5894   11.8483 H         1 <0>         0.0000
     40 H7          1.4149   -1.8715    3.6714 H         1 <0>         0.0000
     41 H8         -2.3571   -3.9010    3.5161 H         1 <0>         0.0000
     42 H9          0.6548   -4.7139    6.4807 H         1 <0>         0.0000
     43 H10         3.2576   -4.3882    5.1863 H         1 <0>         0.0000
     44 H11         3.5275   -4.5833    3.4522 H         1 <0>         0.0000
     45 H12         3.3883   -2.9662    4.1486 H         1 <0>         0.0000
     46 H13        -1.1924   -7.1638    3.2201 H         1 <0>         0.0000
     47 H14        -1.3255   -6.9164    4.9615 H         1 <0>         0.0000
     48 H15        -2.5287   -6.2120    3.8728 H         1 <0>         0.0000
     49 H16        -1.9519   -1.7875    5.9802 H         1 <0>         0.0000
     50 H17        -0.1869   -1.6394    5.9848 H         1 <0>         0.0000
     51 H18        -1.1735   -0.2780    6.5064 H         1 <0>         0.0000
     52 H19        -3.3645   -0.4040    4.4029 H         1 <0>         0.0000
     53 H20        -2.6012    0.5773    3.1349 H         1 <0>         0.0000
     54 H21        -2.5303    1.1125    4.8290 H         1 <0>         0.0000
     55 H22         2.4839   -6.4863    4.1752 H         1 <0>         0.0000
     56 H23         0.9745   -7.3424    3.9946 H         1 <0>         0.0000
     57 H24         1.4711   -8.1804   10.3855 H         1 <0>         0.0000
     58 H25        -0.1019   -0.3390    2.3407 H         1 <0>         0.0000
@<TRIPOS>BOND
     1    1    2 ar
     2    1   10 ar
     3    1   34 1
     4    2   14 ar
     5    2   35 1
     6    3    5 ar
     7    3   16 ar
     8    3   36 1
     9    4    6 ar
    10    4   16 ar
    11    4   37 1
    12    5   17 ar
    13    5   38 1
    14    6   17 ar
    15    6   39 1
    16    7   11 ar
    17    7   15 ar
    18    7   40 1
    19    8   12 ar
    20    8   15 ar
    21    8   41 1
    22    9   10 ar
    23    9   18 ar
    24    9   42 1
    25   10   24 1
    26   11   13 ar
    27   11   20 1
    28   12   13 ar
    29   12   21 1
    30   13   24 1
    31   14   18 ar
    32   14   29 1
    33   15   31 1
    34   16   32 1
    35   17   33 1
    36   18   33 1
    37   19   25 1
    38   19   26 2
    39   19   30 1
    40   20   43 1
    41   20   44 1
    42   20   45 1
    43   21   46 1
    44   21   47 1
    45   21   48 1
    46   22   25 1
    47   22   49 1
    48   22   50 1
    49   22   51 1
    50   23   25 1
    51   23   52 1
    52   23   53 1
    53   23   54 1
    54   24   55 1
    55   24   56 1
    56   25   31 1
    57   27   33 2
    58   28   33 2
    59   29   57 1
    60   30   58 1
