@<TRIPOS>MOLECULE
*****
   76    79     0     0     0
SMALL
NO_CHARGES

@<TRIPOS>ATOM
      1 C1          9.9706   -4.0571    8.6453 C.ar      1 <0>         0.0000
      2 C2          9.6588   -5.2379    7.9613 C.ar      1 <0>         0.0000
      3 C3          8.9758   -3.4223    9.3905 C.ar      1 <0>         0.0000
      4 C4          8.3697   -5.7689    8.0272 C.ar      1 <0>         0.0000
      5 C5          7.6842   -3.9604    9.4528 C.ar      1 <0>         0.0000
      6 C6          4.4492   -4.4745    4.2536 C.ar      1 <0>         0.0000
      7 C7          3.4338   -4.5015    3.2921 C.ar      1 <0>         0.0000
      8 C8         -0.2302   -1.2063    1.9625 C.ar      1 <0>         0.0000
      9 C9          0.3724   -2.3771   -0.0564 C.ar      1 <0>         0.0000
     10 C10         1.7766   -4.3048    5.0762 C.ar      1 <0>         0.0000
     11 C11         0.1944   -2.2951    2.7411 C.ar      1 <0>         0.0000
     12 C12         7.3519   -5.1429    8.7741 C.ar      1 <0>         0.0000
     13 C13         4.1583   -4.3667    5.6123 C.ar      1 <0>         0.0000
     14 C14        -0.1477   -1.2330    0.5703 C.ar      1 <0>         0.0000
     15 C15         2.1171   -4.4223    3.7183 C.ar      1 <0>         0.0000
     16 C16         0.7082   -3.4232    2.1031 C.ar      1 <0>         0.0000
     17 C17         0.8046   -3.4725    0.6970 C.ar      1 <0>         0.0000
     18 C18         2.8120   -4.2787    6.0280 C.ar      1 <0>         0.0000
     19 C19         0.3126   -4.3347    5.4037 C.2       1 <0>         0.0000
     20 C20         0.1259   -2.1912    4.2469 C.3       1 <0>         0.0000
     21 C21        -0.6157   -0.0637   -0.2658 C.3       1 <0>         0.0000
     22 C22         3.0229   -7.6868   -3.2271 C.3       1 <0>         0.0000
     23 C23         1.0125   -6.3091   -3.8871 C.3       1 <0>         0.0000
     24 C24         5.0025   -4.9998    9.7666 C.3       1 <0>         0.0000
     25 C25         6.0219   -7.2140    9.2758 C.3       1 <0>         0.0000
     26 C26         1.5055   -3.5009    7.9402 C.3       1 <0>         0.0000
     27 C27         2.0177   -6.1048   -1.5452 C.3       1 <0>         0.0000
     28 C28         5.3154   -5.7371    7.3749 C.3       1 <0>         0.0000
     29 C29         1.4131   -4.7407   -1.2450 C.3       1 <0>         0.0000
     30 C30         5.2560   -4.3686    6.6566 C.3       1 <0>         0.0000
     31 C31         2.2936   -6.3488   -3.0390 C.3       1 <0>         0.0000
     32 C32         5.9406   -5.7455    8.7990 C.3       1 <0>         0.0000
     33 O1         -0.2047   -5.1992    6.0779 O.2       1 <0>         0.0000
     34 O2          1.0741   -4.5594    2.8074 O.3       1 <0>         0.0000
     35 O3         -0.4649   -3.3384    4.8959 O.3       1 <0>         0.0000
     36 O4          6.4848   -4.0528    5.9925 O.3       1 <0>         0.0000
     37 O5          2.6415   -4.1696    7.3816 O.3       1 <0>         0.0000
     38 O6          1.3413   -4.6121    0.1796 O.3       1 <0>         0.0000
     39 H1         10.9724   -3.6390    8.5935 H         1 <0>         0.0000
     40 H2         10.4186   -5.7427    7.3701 H         1 <0>         0.0000
     41 H3          9.1993   -2.5027    9.9256 H         1 <0>         0.0000
     42 H4          8.1512   -6.6766    7.4725 H         1 <0>         0.0000
     43 H5          6.9343   -3.4397   10.0377 H         1 <0>         0.0000
     44 H6          5.4905   -4.5260    3.9564 H         1 <0>         0.0000
     45 H7          3.6445   -4.6078    2.2327 H         1 <0>         0.0000
     46 H8         -0.6401   -0.3297    2.4593 H         1 <0>         0.0000
     47 H9          0.4381   -2.4001   -1.1389 H         1 <0>         0.0000
     48 H10         1.1181   -2.0012    4.6671 H         1 <0>         0.0000
     49 H11        -0.5223   -1.3568    4.5214 H         1 <0>         0.0000
     50 H12         0.1949    0.3263   -0.8917 H         1 <0>         0.0000
     51 H13        -1.4322   -0.3569   -0.9352 H         1 <0>         0.0000
     52 H14        -0.9766    0.7552    0.3621 H         1 <0>         0.0000
     53 H15         2.3974   -8.5221   -2.8897 H         1 <0>         0.0000
     54 H16         3.9565   -7.7169   -2.6546 H         1 <0>         0.0000
     55 H17         3.2679   -7.8584   -4.2809 H         1 <0>         0.0000
     56 H18         0.2875   -7.0509   -3.5300 H         1 <0>         0.0000
     57 H19         1.2326   -6.5372   -4.9357 H         1 <0>         0.0000
     58 H20         0.5267   -5.3284   -3.8613 H         1 <0>         0.0000
     59 H21         4.0194   -5.4789    9.7624 H         1 <0>         0.0000
     60 H22         4.8490   -3.9542    9.4872 H         1 <0>         0.0000
     61 H23         5.3880   -5.0265   10.7912 H         1 <0>         0.0000
     62 H24         5.0203   -7.6560    9.3121 H         1 <0>         0.0000
     63 H25         6.6311   -7.8299    8.6085 H         1 <0>         0.0000
     64 H26         6.4587   -7.2715   10.2783 H         1 <0>         0.0000
     65 H27         1.8273   -3.1505    8.9231 H         1 <0>         0.0000
     66 H28         0.6575   -4.1796    8.0428 H         1 <0>         0.0000
     67 H29         1.2176   -2.6376    7.3293 H         1 <0>         0.0000
     68 H30         2.9548   -6.1887   -0.9827 H         1 <0>         0.0000
     69 H31         1.3480   -6.8823   -1.1575 H         1 <0>         0.0000
     70 H32         5.8634   -6.4186    6.7144 H         1 <0>         0.0000
     71 H33         4.3009   -6.1344    7.4659 H         1 <0>         0.0000
     72 H34         2.0414   -3.9396   -1.6601 H         1 <0>         0.0000
     73 H35         0.4067   -4.6428   -1.6691 H         1 <0>         0.0000
     74 H36         5.0263   -3.5843    7.3878 H         1 <0>         0.0000
     75 H37         2.9610   -5.5502   -3.3945 H         1 <0>         0.0000
     76 H38         7.1977   -4.1155    6.6488 H         1 <0>         0.0000
@<TRIPOS>BOND
     1    1    3 ar
     2    1    2 ar
     3    1   39 1
     4    2    4 ar
     5    2   40 1
     6    3    5 ar
     7    3   41 1
     8    4   12 ar
     9    4   42 1
    10    5   12 ar
    11    5   43 1
    12    6    7 ar
    13    6   13 ar
    14    6   44 1
    15    7   15 ar
    16    7   45 1
    17    8   11 ar
    18    8   14 ar
    19    8   46 1
    20    9   14 ar
    21    9   17 ar
    22    9   47 1
    23   10   15 ar
    24   10   18 ar
    25   10   19 1
    26   11   16 ar
    27   11   20 1
    28   12   32 1
    29   13   18 ar
    30   13   30 1
    31   14   21 1
    32   15   34 1
    33   16   17 ar
    34   16   34 1
    35   17   38 1
    36   18   37 1
    37   19   33 2
    38   19   35 1
    39   20   35 1
    40   20   48 1
    41   20   49 1
    42   21   50 1
    43   21   51 1
    44   21   52 1
    45   22   31 1
    46   22   53 1
    47   22   54 1
    48   22   55 1
    49   23   31 1
    50   23   56 1
    51   23   57 1
    52   23   58 1
    53   24   32 1
    54   24   59 1
    55   24   60 1
    56   24   61 1
    57   25   32 1
    58   25   62 1
    59   25   63 1
    60   25   64 1
    61   26   37 1
    62   26   65 1
    63   26   66 1
    64   26   67 1
    65   27   29 1
    66   27   31 1
    67   27   68 1
    68   27   69 1
    69   28   30 1
    70   28   32 1
    71   28   70 1
    72   28   71 1
    73   29   38 1
    74   29   72 1
    75   29   73 1
    76   30   36 1
    77   30   74 1
    78   31   75 1
    79   36   76 1
