@<TRIPOS>MOLECULE
*****
   27    28     0     0     0
SMALL
NO_CHARGES

@<TRIPOS>ATOM
      1 C1          1.9039   -0.9373   -0.0937 C.ar      1 <0>         0.0000
      2 C2          0.0096   -2.7697    8.7627 C.ar      1 <0>         0.0000
      3 C3          0.8456   -0.3851    0.6391 C.ar      1 <0>         0.0000
      4 C4          2.9523   -1.5724    0.5772 C.ar      1 <0>         0.0000
      5 C5         -0.6956   -3.4410    7.7541 C.ar      1 <0>         0.0000
      6 C6          0.9618   -1.8162    8.3964 C.ar      1 <0>         0.0000
      7 C7          0.8401   -0.4665    2.0331 C.ar      1 <0>         0.0000
      8 C8          2.9418   -1.6552    1.9748 C.ar      1 <0>         0.0000
      9 C9         -0.4569   -3.1593    6.4115 C.ar      1 <0>         0.0000
     10 C10         1.2167   -1.5296    7.0509 C.ar      1 <0>         0.0000
     11 C11         1.8904   -1.1014    2.7151 C.ar      1 <0>         0.0000
     12 C12         0.5033   -2.1955    6.0356 C.ar      1 <0>         0.0000
     13 C13         1.8730   -1.1875    4.2249 C.3       1 <0>         0.0000
     14 N1          0.6854   -1.9064    4.6798 N.pl3     1 <0>         0.0000
     15 H1          1.9092   -0.8726   -1.1788 H         1 <0>         0.0000
     16 H2         -0.1794   -2.9898    9.8095 H         1 <0>         0.0000
     17 H3          0.0276    0.1110    0.1227 H         1 <0>         0.0000
     18 H4          3.7760   -2.0058    0.0157 H         1 <0>         0.0000
     19 H5         -1.4397   -4.1894    8.0161 H         1 <0>         0.0000
     20 H6          1.5234   -1.2879    9.1633 H         1 <0>         0.0000
     21 H7          0.0177   -0.0414    2.6032 H         1 <0>         0.0000
     22 H8          3.7579   -2.1546    2.4926 H         1 <0>         0.0000
     23 H9         -1.0185   -3.6800    5.6379 H         1 <0>         0.0000
     24 H10         1.9694   -0.7900    6.7996 H         1 <0>         0.0000
     25 H11         2.8015   -1.6588    4.5838 H         1 <0>         0.0000
     26 H12         1.8467   -0.1754    4.6469 H         1 <0>         0.0000
     27 H13         0.4313   -2.6718    4.0655 H         1 <0>         0.0000
@<TRIPOS>BOND
     1    1    4 ar
     2    1    3 ar
     3    1   15 1
     4    2    6 ar
     5    2    5 ar
     6    2   16 1
     7    3    7 ar
     8    3   17 1
     9    4    8 ar
    10    4   18 1
    11    5    9 ar
    12    5   19 1
    13    6   10 ar
    14    6   20 1
    15    7   11 ar
    16    7   21 1
    17    8   11 ar
    18    8   22 1
    19    9   12 ar
    20    9   23 1
    21   10   12 ar
    22   10   24 1
    23   11   13 1
    24   12   14 1
    25   13   14 1
    26   13   25 1
    27   13   26 1
    28   14   27 1
