@<TRIPOS>MOLECULE
*****
   32    33     0     0     0
SMALL
NO_CHARGES

@<TRIPOS>ATOM
      1 C1         -0.4966   -2.0341    0.4940 C.ar      1 <0>         0.0000
      2 C2          0.3500   -1.0275    0.0392 C.ar      1 <0>         0.0000
      3 C3         -0.0479   -3.3542    0.5448 C.ar      1 <0>         0.0000
      4 C4          1.6484   -1.3369   -0.3665 C.ar      1 <0>         0.0000
      5 C5          1.7243   -5.0072    0.1848 C.ar      1 <0>         0.0000
      6 C6          3.0228   -5.3167   -0.2210 C.ar      1 <0>         0.0000
      7 C7          3.4207   -2.9899   -0.7267 C.ar      1 <0>         0.0000
      8 C8          1.2560   -3.6839    0.1403 C.ar      1 <0>         0.0000
      9 C9          2.1168   -2.6602   -0.3222 C.ar      1 <0>         0.0000
     10 C10         3.8693   -4.3100   -0.6758 C.ar      1 <0>         0.0000
     11 C11         5.9200   -5.7981   -0.4596 C.2       1 <0>         0.0000
     12 C12         7.1702   -6.1267   -0.8054 C.2       1 <0>         0.0000
     13 C13         5.2217   -4.6341   -1.1009 C.2       1 <0>         0.0000
     14 C14         9.2801   -7.3942   -0.7739 C.3       1 <0>         0.0000
     15 C15         7.5128   -7.8810    0.8878 C.3       1 <0>         0.0000
     16 N1          7.9197   -7.1435   -0.3054 N.pl3     1 <0>         0.0000
     17 O1          5.8017   -3.9496   -1.9578 O.2       1 <0>         0.0000
     18 H1         -1.5078   -1.7927    0.8083 H         1 <0>         0.0000
     19 H2          0.0002    0.0001    0.0004 H         1 <0>         0.0000
     20 H3         -0.7274   -4.1251    0.9023 H         1 <0>         0.0000
     21 H4          2.2930   -0.5335   -0.7171 H         1 <0>         0.0000
     22 H5          1.0798   -5.8097    0.5376 H         1 <0>         0.0000
     23 H6          3.3615   -6.3488   -0.1771 H         1 <0>         0.0000
     24 H7          4.0911   -2.2102   -1.0851 H         1 <0>         0.0000
     25 H8          5.3945   -6.3626    0.3021 H         1 <0>         0.0000
     26 H9          7.7174   -5.5736   -1.5611 H         1 <0>         0.0000
     27 H10         9.7063   -8.2525   -0.2481 H         1 <0>         0.0000
     28 H11         9.9104   -6.5200   -0.5896 H         1 <0>         0.0000
     29 H12         9.2776   -7.6046   -1.8468 H         1 <0>         0.0000
     30 H13         8.2499   -8.6537    1.1214 H         1 <0>         0.0000
     31 H14         6.5425   -8.3579    0.7249 H         1 <0>         0.0000
     32 H15         7.4312   -7.2030    1.7416 H         1 <0>         0.0000
@<TRIPOS>BOND
     1    1    2 ar
     2    1    3 ar
     3    1   18 1
     4    2    4 ar
     5    2   19 1
     6    3    8 ar
     7    3   20 1
     8    4    9 ar
     9    4   21 1
    10    5    6 ar
    11    5    8 ar
    12    5   22 1
    13    6   10 ar
    14    6   23 1
    15    7    9 ar
    16    7   10 ar
    17    7   24 1
    18    8    9 ar
    19   10   13 1
    20   11   12 2
    21   11   13 1
    22   11   25 1
    23   12   16 1
    24   12   26 1
    25   13   17 2
    26   14   16 1
    27   14   27 1
    28   14   28 1
    29   14   29 1
    30   15   16 1
    31   15   30 1
    32   15   31 1
    33   15   32 1
