@<TRIPOS>MOLECULE
*****
   30    31     0     0     0
SMALL
NO_CHARGES

@<TRIPOS>ATOM
      1 C1         -2.6593   -4.6451   -6.3885 C.ar      1 <0>         0.0000
      2 C2         -1.9978   -5.3977   -5.4182 C.ar      1 <0>         0.0000
      3 C3         -3.0512   -3.3360   -6.1085 C.ar      1 <0>         0.0000
      4 C4         -1.7280   -4.8413   -4.1679 C.ar      1 <0>         0.0000
      5 C5         -2.7814   -2.7795   -4.8582 C.ar      1 <0>         0.0000
      6 C6         -2.1198   -3.5322   -3.8879 C.ar      1 <0>         0.0000
      7 C7          0.2867    0.2687   -1.0242 C.3       1 <0>         0.0000
      8 C8         -0.9658    0.5787   -1.8389 C.3       1 <0>         0.0000
      9 C9          1.0857   -0.8719   -1.6439 C.3       1 <0>         0.0000
     10 C10        -1.8274   -0.6640   -2.0315 C.3       1 <0>         0.0000
     11 C11         0.2320   -2.1218   -1.8459 C.3       1 <0>         0.0000
     12 C12        -1.0360   -1.8174   -2.6466 C.3       1 <0>         0.0000
     13 O1          1.0176   -3.0854   -2.5457 O.3       1 <0>         0.0000
     14 O2         -1.8535   -2.9862   -2.6618 O.3       1 <0>         0.0000
     15 H1         -2.8697   -5.0788   -7.3617 H         1 <0>         0.0000
     16 H2         -1.6930   -6.4171   -5.6369 H         1 <0>         0.0000
     17 H3         -3.5662   -2.7497   -6.8641 H         1 <0>         0.0000
     18 H4         -1.2107   -5.4317   -3.4165 H         1 <0>         0.0000
     19 H5         -3.0881   -1.7587   -4.6470 H         1 <0>         0.0000
     20 H6          0.9137    1.1647   -0.9561 H         1 <0>         0.0000
     21 H7          0.0001    0.0001   -0.0000 H         1 <0>         0.0000
     22 H8         -1.5493    1.3579   -1.3359 H         1 <0>         0.0000
     23 H9         -0.6759    0.9777   -2.8186 H         1 <0>         0.0000
     24 H10         1.5045   -0.5505   -2.6068 H         1 <0>         0.0000
     25 H11         1.9497   -1.1117   -1.0122 H         1 <0>         0.0000
     26 H12        -2.2473   -0.9772   -1.0665 H         1 <0>         0.0000
     27 H13        -2.6906   -0.4281   -2.6657 H         1 <0>         0.0000
     28 H14        -0.0280   -2.5604   -0.8741 H         1 <0>         0.0000
     29 H15        -0.7773   -1.5891   -3.6879 H         1 <0>         0.0000
     30 H16         1.7900   -3.2671   -1.9889 H         1 <0>         0.0000
@<TRIPOS>BOND
     1    1    3 ar
     2    1    2 ar
     3    1   15 1
     4    2    4 ar
     5    2   16 1
     6    3    5 ar
     7    3   17 1
     8    4    6 ar
     9    4   18 1
    10    5    6 ar
    11    5   19 1
    12    6   14 1
    13    7    8 1
    14    7    9 1
    15    7   20 1
    16    7   21 1
    17    8   10 1
    18    8   22 1
    19    8   23 1
    20    9   11 1
    21    9   24 1
    22    9   25 1
    23   10   12 1
    24   10   26 1
    25   10   27 1
    26   11   12 1
    27   11   13 1
    28   11   28 1
    29   12   14 1
    30   12   29 1
    31   13   30 1
