@<TRIPOS>MOLECULE
*****
   61    64     0     0     0
SMALL
NO_CHARGES

@<TRIPOS>ATOM
      1 C1         -4.5384   -8.3845    5.1849 C.ar      1 <0>         0.0000
      2 C2         -4.3237   -6.4078    3.7868 C.ar      1 <0>         0.0000
      3 C3         -3.2155   -8.2557    5.5884 C.ar      1 <0>         0.0000
      4 C4         -2.9973   -6.2838    4.1901 C.ar      1 <0>         0.0000
      5 C5         -9.2837   -7.0774    1.9648 C.ar      1 <0>         0.0000
      6 C6         -5.1113   -7.4716    4.2727 C.ar      1 <0>         0.0000
      7 C7         -2.4446   -7.2070    5.0786 C.ar      1 <0>         0.0000
      8 C8         -8.9215   -5.9685    1.2188 C.ar      1 <0>         0.0000
      9 C9         -7.6322   -5.4159    1.4361 C.ar      1 <0>         0.0000
     10 C10        -7.2625   -7.0623    2.9947 C.ar      1 <0>         0.0000
     11 C11        -3.3647   -3.9126    0.5888 C.3       1 <0>         0.0000
     12 C12        -4.4559   -1.6614    0.7546 C.3       1 <0>         0.0000
     13 C13        -4.7399   -4.5400    0.3283 C.3       1 <0>         0.0000
     14 C14        -5.8336   -2.2900    0.5131 C.3       1 <0>         0.0000
     15 C15         0.4223   -1.8794    0.7477 C.3       1 <0>         0.0000
     16 C16        -0.6360    0.2378   -0.0179 C.3       1 <0>         0.0000
     17 C17        -0.8302   -2.6363    0.2918 C.3       1 <0>         0.0000
     18 C18        -1.8486   -0.5904   -0.4445 C.3       1 <0>         0.0000
     19 C19        -3.3047   -2.4552    0.1026 C.3       1 <0>         0.0000
     20 C20        -5.8577   -3.7370    1.0043 C.3       1 <0>         0.0000
     21 C21         0.6304   -0.6046   -0.0677 C.3       1 <0>         0.0000
     22 N1         -8.4689   -7.6488    2.8637 N.ar      1 <0>         0.0000
     23 N2         -6.8150   -5.9880    2.3410 N.ar      1 <0>         0.0000
     24 N3         -2.0202   -1.7849    0.3945 N.3       1 <0>         0.0000
     25 N4          0.1037   -7.9114    4.3645 N.pl3     1 <0>         0.0000
     26 N5         -6.4432   -7.6872    3.9172 N.pl3     1 <0>         0.0000
     27 N6         -7.1795   -4.3239    0.7795 N.pl3     1 <0>         0.0000
     28 O1         -0.3424   -5.6438    5.4021 O.2       1 <0>         0.0000
     29 O2         -0.5642   -7.7744    6.8300 O.2       1 <0>         0.0000
     30 O3          1.7093    0.1977    0.4280 O.3       1 <0>         0.0000
     31 S1         -0.7393   -7.0464    5.5682 S.o2      1 <0>         0.0000
     32 Br1       -10.1241   -5.2005   -0.0594 Br        1 <0>         0.0000
     33 H1         -5.1415   -9.1984    5.5811 H         1 <0>         0.0000
     34 H2         -4.7613   -5.6936    3.1074 H         1 <0>         0.0000
     35 H3         -2.7854   -8.9497    6.3032 H         1 <0>         0.0000
     36 H4         -2.3944   -5.4569    3.8275 H         1 <0>         0.0000
     37 H5        -10.2652   -7.5293    1.8367 H         1 <0>         0.0000
     38 H6         -3.1404   -3.9448    1.6637 H         1 <0>         0.0000
     39 H7         -2.6096   -4.5218    0.0859 H         1 <0>         0.0000
     40 H8         -4.4711   -0.6307    0.3918 H         1 <0>         0.0000
     41 H9         -4.2541   -1.6092    1.8312 H         1 <0>         0.0000
     42 H10        -4.9367   -4.5737   -0.7515 H         1 <0>         0.0000
     43 H11        -4.7556   -5.5714    0.6898 H         1 <0>         0.0000
     44 H12        -6.6063   -1.7064    1.0263 H         1 <0>         0.0000
     45 H13        -6.0704   -2.2674   -0.5606 H         1 <0>         0.0000
     46 H14         0.3168   -1.6082    1.8038 H         1 <0>         0.0000
     47 H15         1.2936   -2.5419    0.6563 H         1 <0>         0.0000
     48 H16        -0.5304    1.1109   -0.6706 H         1 <0>         0.0000
     49 H17        -0.7774    0.5988    1.0065 H         1 <0>         0.0000
     50 H18        -0.6826   -3.0093   -0.7426 H         1 <0>         0.0000
     51 H19        -0.9503   -3.5083    0.9350 H         1 <0>         0.0000
     52 H20        -2.7420    0.0325   -0.3739 H         1 <0>         0.0000
     53 H21        -1.7461   -0.8776   -1.5109 H         1 <0>         0.0000
     54 H22        -3.4737   -2.4785   -0.9932 H         1 <0>         0.0000
     55 H23        -5.6849   -3.7411    2.0861 H         1 <0>         0.0000
     56 H24         0.8287   -0.8824   -1.1167 H         1 <0>         0.0000
     57 H25         0.8239   -7.3039    3.9751 H         1 <0>         0.0000
     58 H26         0.5213   -8.7434    4.7800 H         1 <0>         0.0000
     59 H27        -6.8971   -8.4907    4.3354 H         1 <0>         0.0000
     60 H28        -7.7898   -3.9091    0.0870 H         1 <0>         0.0000
     61 H29         2.5081   -0.3528    0.4488 H         1 <0>         0.0000
@<TRIPOS>BOND
     1    1    3 ar
     2    1    6 ar
     3    1   33 1
     4    2    4 ar
     5    2    6 ar
     6    2   34 1
     7    3    7 ar
     8    3   35 1
     9    4    7 ar
    10    4   36 1
    11    5    8 ar
    12    5   22 ar
    13    5   37 1
    14    6   26 1
    15    7   31 1
    16    8    9 ar
    17    8   32 1
    18    9   23 ar
    19    9   27 1
    20   10   22 ar
    21   10   23 ar
    22   10   26 1
    23   11   13 1
    24   11   19 1
    25   11   38 1
    26   11   39 1
    27   12   14 1
    28   12   19 1
    29   12   40 1
    30   12   41 1
    31   13   20 1
    32   13   42 1
    33   13   43 1
    34   14   20 1
    35   14   44 1
    36   14   45 1
    37   15   17 1
    38   15   21 1
    39   15   46 1
    40   15   47 1
    41   16   18 1
    42   16   21 1
    43   16   48 1
    44   16   49 1
    45   17   24 1
    46   17   50 1
    47   17   51 1
    48   18   24 1
    49   18   52 1
    50   18   53 1
    51   19   24 1
    52   19   54 1
    53   20   27 1
    54   20   55 1
    55   21   30 1
    56   21   56 1
    57   25   31 1
    58   25   57 1
    59   25   58 1
    60   26   59 1
    61   27   60 1
    62   28   31 2
    63   29   31 2
    64   30   61 1
