@<TRIPOS>MOLECULE
*****
   45    47     0     0     0
SMALL
NO_CHARGES

@<TRIPOS>ATOM
      1 C1          1.2183    4.2554    0.1934 C.ar      1 <0>         0.0000
      2 C2         -1.0658    4.5118    0.9720 C.ar      1 <0>         0.0000
      3 C3          1.4079    5.6380    0.3163 C.ar      1 <0>         0.0000
      4 C4         -0.8805    5.8869    1.0951 C.ar      1 <0>         0.0000
      5 C5         -0.2533    0.7273   -4.0660 C.2       1 <0>         0.0000
      6 C6         -1.5972    1.5629   -2.6792 C.2       1 <0>         0.0000
      7 C7         -0.0198    3.6919    0.5230 C.ar      1 <0>         0.0000
      8 C8          0.3597    6.4293    0.7639 C.ar      1 <0>         0.0000
      9 C9         -0.8533    0.3555    2.3998 C.2       1 <0>         0.0000
     10 C10         1.1730   -1.1440    2.1062 C.3       1 <0>         0.0000
     11 C11        -0.0336   -1.9606    1.7228 C.3       1 <0>         0.0000
     12 C12        -0.0063   -0.4603    1.4542 C.3       1 <0>         0.0000
     13 C13        -4.1856    1.7442    1.9168 C.3       1 <0>         0.0000
     14 C14        -1.1654   -0.0709   -0.7786 C.3       1 <0>         0.0000
     15 C15        -2.9496    1.4223    2.7368 C.3       1 <0>         0.0000
     16 C16         0.7133    1.4663   -0.0200 C.3       1 <0>         0.0000
     17 C17         0.1614    0.0301    0.0047 C.3       1 <0>         0.0000
     18 N1         -1.1358    1.7528   -3.9110 N.2       1 <0>         0.0000
     19 N2         -0.1501   -0.0803   -3.0128 N.2       1 <0>         0.0000
     20 N3         -1.0325    0.4677   -2.1257 N.pl3     1 <0>         0.0000
     21 O1         -0.4923    0.7373    3.4968 O.2       1 <0>         0.0000
     22 O2          1.1502   -0.8011   -0.6007 O.3       1 <0>         0.0000
     23 O3         -0.3092    2.3529    0.4337 O.3       1 <0>         0.0000
     24 O4         -2.1053    0.5666    1.9264 O.3       1 <0>         0.0000
     25 F1          0.5443    7.7719    0.8827 F         1 <0>         0.0000
     26 H1          2.0388    3.6408   -0.1574 H         1 <0>         0.0000
     27 H2         -2.0194    4.0563    1.2208 H         1 <0>         0.0000
     28 H3          2.3601    6.0955    0.0664 H         1 <0>         0.0000
     29 H4         -1.6787    6.5358    1.4420 H         1 <0>         0.0000
     30 H5          0.3240    0.5639   -4.9668 H         1 <0>         0.0000
     31 H6         -2.3180    2.1790   -2.1578 H         1 <0>         0.0000
     32 H7          1.3308   -0.9196    3.1549 H         1 <0>         0.0000
     33 H8          2.0618   -1.2661    1.4998 H         1 <0>         0.0000
     34 H9          0.0545   -2.6072    0.8560 H         1 <0>         0.0000
     35 H10        -0.6937   -2.3158    2.5087 H         1 <0>         0.0000
     36 H11        -3.9168    2.2746    0.9975 H         1 <0>         0.0000
     37 H12        -4.7265    0.8329    1.6446 H         1 <0>         0.0000
     38 H13        -4.8595    2.3830    2.4964 H         1 <0>         0.0000
     39 H14        -1.4567   -1.1218   -0.8425 H         1 <0>         0.0000
     40 H15        -1.9498    0.4865   -0.2760 H         1 <0>         0.0000
     41 H16        -3.1963    0.8947    3.6628 H         1 <0>         0.0000
     42 H17        -2.3839    2.3187    3.0023 H         1 <0>         0.0000
     43 H18         1.5916    1.5143    0.6330 H         1 <0>         0.0000
     44 H19         1.0145    1.7267   -1.0417 H         1 <0>         0.0000
     45 H20         1.0216   -0.7633   -1.5724 H         1 <0>         0.0000
@<TRIPOS>BOND
     1    1    3 ar
     2    1    7 ar
     3    1   26 1
     4    2    4 ar
     5    2    7 ar
     6    2   27 1
     7    3    8 ar
     8    3   28 1
     9    4    8 ar
    10    4   29 1
    11    5   18 1
    12    5   19 2
    13    5   30 1
    14    6   18 2
    15    6   20 1
    16    6   31 1
    17    7   23 1
    18    8   25 1
    19    9   12 1
    20    9   21 2
    21    9   24 1
    22   10   11 1
    23   10   12 1
    24   10   32 1
    25   10   33 1
    26   11   12 1
    27   11   34 1
    28   11   35 1
    29   12   17 1
    30   13   15 1
    31   13   36 1
    32   13   37 1
    33   13   38 1
    34   14   17 1
    35   14   20 1
    36   14   39 1
    37   14   40 1
    38   15   24 1
    39   15   41 1
    40   15   42 1
    41   16   17 1
    42   16   23 1
    43   16   43 1
    44   16   44 1
    45   17   22 1
    46   19   20 1
    47   22   45 1
