@<TRIPOS>MOLECULE
*****
   50    54     0     0     0
SMALL
NO_CHARGES

@<TRIPOS>ATOM
      1 C1         -5.3594   -1.8436    6.1540 C.ar      1 <0>         0.0000
      2 C2         -5.9179   -2.5179    7.2328 C.ar      1 <0>         0.0000
      3 C3         -3.7129   -2.2433    4.1271 C.2       1 <0>         0.0000
      4 C4         -4.7506   -4.5836    6.6734 C.ar      1 <0>         0.0000
      5 C5         -4.4788   -2.5453    5.3093 C.ar      1 <0>         0.0000
      6 C6         -5.6274   -3.8782    7.5012 C.ar      1 <0>         0.0000
      7 C7         -4.1979   -3.8948    5.5976 C.ar      1 <0>         0.0000
      8 C8         -3.0462   -3.3917    3.7917 C.2       1 <0>         0.0000
      9 C9         -2.0854   -3.7223    2.7055 C.2       1 <0>         0.0000
     10 C10        -5.8168   -4.0316   10.0557 C.2       1 <0>         0.0000
     11 C11        -6.5725   -4.0667   12.5241 C.3       1 <0>         0.0000
     12 C12        -5.3544   -4.9260   12.4289 C.3       1 <0>         0.0000
     13 C13        -0.7084   -4.2547   -1.6074 C.3       1 <0>         0.0000
     14 C14        -3.0865   -3.6617   -1.0932 C.3       1 <0>         0.0000
     15 C15        -0.5769   -2.8787   -2.3314 C.3       1 <0>         0.0000
     16 C16        -2.8549   -2.3032   -1.8238 C.3       1 <0>         0.0000
     17 C17        -1.0945   -1.6961   -0.3117 C.3       1 <0>         0.0000
     18 C18        -6.2939   -4.8228   11.2268 C.3       1 <0>         0.0000
     19 C19        -1.7484   -4.1109   -0.4819 C.3       1 <0>         0.0000
     20 C20        -1.2331   -3.0269    0.4908 C.3       1 <0>         0.0000
     21 C21        -6.2571   -4.5613    8.6873 C.3       1 <0>         0.0000
     22 N1         -1.4530   -1.8604   -1.7245 N.3       1 <0>         0.0000
     23 N2         -2.0943   -2.8414    1.6558 N.am      1 <0>         0.0000
     24 O1         -1.3322   -4.6926    2.7689 O.2       1 <0>         0.0000
     25 O2         -5.1364   -3.0248   10.1892 O.2       1 <0>         0.0000
     26 O3         -3.3252   -4.4096    4.6765 O.3       1 <0>         0.0000
     27 H1         -5.5966   -0.7990    5.9718 H         1 <0>         0.0000
     28 H2         -6.5878   -1.9876    7.9035 H         1 <0>         0.0000
     29 H3         -3.6413   -1.2881    3.6226 H         1 <0>         0.0000
     30 H4         -4.5020   -5.6251    6.8564 H         1 <0>         0.0000
     31 H5         -7.4126   -4.4119   13.1189 H         1 <0>         0.0000
     32 H6         -6.4308   -2.9918   12.4775 H         1 <0>         0.0000
     33 H7         -4.3970   -4.4275   12.3171 H         1 <0>         0.0000
     34 H8         -5.3381   -5.8754   12.9550 H         1 <0>         0.0000
     35 H9         -1.0277   -5.0370   -2.3045 H         1 <0>         0.0000
     36 H10         0.2527   -4.5740   -1.1890 H         1 <0>         0.0000
     37 H11        -3.8500   -3.5710   -0.3128 H         1 <0>         0.0000
     38 H12        -3.4445   -4.4269   -1.7902 H         1 <0>         0.0000
     39 H13         0.4513   -2.5053   -2.2875 H         1 <0>         0.0000
     40 H14        -0.8438   -2.9603   -3.3898 H         1 <0>         0.0000
     41 H15        -3.1074   -2.3768   -2.8863 H         1 <0>         0.0000
     42 H16        -3.4853   -1.5123   -1.4020 H         1 <0>         0.0000
     43 H17        -1.7410   -0.9200    0.1155 H         1 <0>         0.0000
     44 H18        -0.0691   -1.3186   -0.2558 H         1 <0>         0.0000
     45 H19        -6.9163   -5.6863   11.0102 H         1 <0>         0.0000
     46 H20        -1.8614   -5.0515    0.0619 H         1 <0>         0.0000
     47 H21        -0.2636   -3.3490    0.8785 H         1 <0>         0.0000
     48 H22        -7.3522   -4.4633    8.6595 H         1 <0>         0.0000
     49 H23        -6.0615   -5.6395    8.6662 H         1 <0>         0.0000
     50 H24        -2.8682   -2.1944    1.5809 H         1 <0>         0.0000
@<TRIPOS>BOND
     1    1    2 ar
     2    1    5 ar
     3    1   27 1
     4    2    6 ar
     5    2   28 1
     6    3    5 1
     7    3    8 2
     8    3   29 1
     9    4    6 ar
    10    4    7 ar
    11    4   30 1
    12    5    7 ar
    13    6   21 1
    14    7   26 1
    15    8    9 1
    16    8   26 1
    17    9   23 am
    18    9   24 2
    19   10   18 1
    20   10   21 1
    21   10   25 2
    22   11   12 1
    23   11   18 1
    24   11   31 1
    25   11   32 1
    26   12   18 1
    27   12   33 1
    28   12   34 1
    29   13   15 1
    30   13   19 1
    31   13   35 1
    32   13   36 1
    33   14   16 1
    34   14   19 1
    35   14   37 1
    36   14   38 1
    37   15   22 1
    38   15   39 1
    39   15   40 1
    40   16   22 1
    41   16   41 1
    42   16   42 1
    43   17   20 1
    44   17   22 1
    45   17   43 1
    46   17   44 1
    47   18   45 1
    48   19   20 1
    49   19   46 1
    50   20   23 1
    51   20   47 1
    52   21   48 1
    53   21   49 1
    54   23   50 1
