@<TRIPOS>MOLECULE
*****
   53    57     0     0     0
SMALL
NO_CHARGES

@<TRIPOS>ATOM
      1 C1         -1.1453    1.7221    1.4594 C.ar      1 <0>         0.0000
      2 C2         -1.0136    0.5133    0.7329 C.ar      1 <0>         0.0000
      3 C3         -4.9641    2.3322    6.8371 C.ar      1 <0>         0.0000
      4 C4         -2.1251    1.8637    2.4321 C.ar      1 <0>         0.0000
      5 C5         -4.5399    1.3470    5.9481 C.ar      1 <0>         0.0000
      6 C6         -5.1436   -1.6040   -0.3646 C.ar      1 <0>         0.0000
      7 C7         -6.4623   -3.1167    0.9805 C.ar      1 <0>         0.0000
      8 C8         -1.8483   -0.5733    0.9681 C.ar      1 <0>         0.0000
      9 C9         -5.3933    3.5847    6.3823 C.ar      1 <0>         0.0000
     10 C10        -6.2075   -1.4488   -1.2549 C.ar      1 <0>         0.0000
     11 C11        -7.5377   -2.9783    0.0969 C.ar      1 <0>         0.0000
     12 C12        -4.9745    2.8586    4.1038 C.ar      1 <0>         0.0000
     13 C13        -2.9946    0.7823    2.6786 C.ar      1 <0>         0.0000
     14 C14        -4.5507    1.6051    4.5621 C.ar      1 <0>         0.0000
     15 C15        -4.0870    0.5932    3.5893 C.2       1 <0>         0.0000
     16 C16        -5.2571   -2.4391    0.7580 C.ar      1 <0>         0.0000
     17 C17        -2.8372   -0.4341    1.9577 C.ar      1 <0>         0.0000
     18 C18        -5.3956    3.8493    5.0044 C.ar      1 <0>         0.0000
     19 C19        -7.3872   -2.1455   -1.0055 C.ar      1 <0>         0.0000
     20 C20        -4.5524   -0.7060    3.3959 C.2       1 <0>         0.0000
     21 C21        -5.6627   -1.4202    4.0680 C.2       1 <0>         0.0000
     22 C22        -7.6985    8.2023    4.9667 C.3       1 <0>         0.0000
     23 C23        -7.9907    7.2853    3.7987 C.3       1 <0>         0.0000
     24 C24        -6.6319    7.2541    4.4589 C.3       1 <0>         0.0000
     25 C25        -4.0997   -2.5917    1.7264 C.3       1 <0>         0.0000
     26 C26        -6.2484    6.0762    5.3080 C.3       1 <0>         0.0000
     27 N1         -3.7743   -1.3375    2.4194 N.pl3     1 <0>         0.0000
     28 O1         -5.7892   -2.6322    4.0661 O.2       1 <0>         0.0000
     29 O2         -6.5851   -0.6583    4.7063 O.3       1 <0>         0.0000
     30 O3         -5.7948    5.0261    4.4403 O.3       1 <0>         0.0000
     31 F1         -8.4265   -2.0023   -1.8698 F         1 <0>         0.0000
     32 H1         -0.4675    2.5446    1.2485 H         1 <0>         0.0000
     33 H2         -0.2382    0.4306   -0.0240 H         1 <0>         0.0000
     34 H3         -4.9575    2.1306    7.9050 H         1 <0>         0.0000
     35 H4         -2.2272    2.7880    2.9938 H         1 <0>         0.0000
     36 H5         -4.1951    0.3851    6.3147 H         1 <0>         0.0000
     37 H6         -4.2206   -1.0597   -0.5446 H         1 <0>         0.0000
     38 H7         -6.5700   -3.7398    1.8629 H         1 <0>         0.0000
     39 H8         -1.7235   -1.4933    0.4054 H         1 <0>         0.0000
     40 H9         -5.7164    4.3305    7.0990 H         1 <0>         0.0000
     41 H10        -6.1340   -0.8065   -2.1272 H         1 <0>         0.0000
     42 H11        -8.4784   -3.4954    0.2595 H         1 <0>         0.0000
     43 H12        -4.9998    3.0783    3.0407 H         1 <0>         0.0000
     44 H13        -7.5683    9.2624    4.7724 H         1 <0>         0.0000
     45 H14        -8.1693    7.9773    5.9201 H         1 <0>         0.0000
     46 H15        -8.6497    6.4383    3.9681 H         1 <0>         0.0000
     47 H16        -8.0646    7.7214    2.8073 H         1 <0>         0.0000
     48 H17        -5.8085    7.6962    3.9037 H         1 <0>         0.0000
     49 H18        -4.3254   -3.3494    2.4725 H         1 <0>         0.0000
     50 H19        -3.1939   -2.8986    1.1995 H         1 <0>         0.0000
     51 H20        -7.1118    5.7265    5.8904 H         1 <0>         0.0000
     52 H21        -5.4457    6.3441    6.0082 H         1 <0>         0.0000
     53 H22        -6.3504    0.2879    4.6610 H         1 <0>         0.0000
@<TRIPOS>BOND
     1    1    2 ar
     2    1    4 ar
     3    1   32 1
     4    2    8 ar
     5    2   33 1
     6    3    5 ar
     7    3    9 ar
     8    3   34 1
     9    4   13 ar
    10    4   35 1
    11    5   14 ar
    12    5   36 1
    13    6   10 ar
    14    6   16 ar
    15    6   37 1
    16    7   11 ar
    17    7   16 ar
    18    7   38 1
    19    8   17 ar
    20    8   39 1
    21    9   18 ar
    22    9   40 1
    23   10   19 ar
    24   10   41 1
    25   11   19 ar
    26   11   42 1
    27   12   14 ar
    28   12   18 ar
    29   12   43 1
    30   13   15 1
    31   13   17 ar
    32   14   15 1
    33   15   20 2
    34   16   25 1
    35   17   27 1
    36   18   30 1
    37   19   31 1
    38   20   21 1
    39   20   27 1
    40   21   28 2
    41   21   29 1
    42   22   23 1
    43   22   24 1
    44   22   44 1
    45   22   45 1
    46   23   24 1
    47   23   46 1
    48   23   47 1
    49   24   26 1
    50   24   48 1
    51   25   27 1
    52   25   49 1
    53   25   50 1
    54   26   30 1
    55   26   51 1
    56   26   52 1
    57   29   53 1
