@<TRIPOS>MOLECULE
*****
   38    40     0     0     0
SMALL
NO_CHARGES

@<TRIPOS>ATOM
      1 C1          1.6417    2.5819    1.4744 C.ar      1 <0>         0.0000
      2 C2          1.0012    2.0301    2.5909 C.ar      1 <0>         0.0000
      3 C3          1.4842    1.9774    0.2270 C.ar      1 <0>         0.0000
      4 C4          0.1977    0.9031    2.4408 C.ar      1 <0>         0.0000
      5 C5          0.7034    0.8232    0.0496 C.ar      1 <0>         0.0000
      6 C6          0.0388    0.3089    1.1801 C.ar      1 <0>         0.0000
      7 C7         -0.2615    0.2998   -4.6802 C.3       1 <0>         0.0000
      8 C8          0.7202   -0.2949   -5.6696 C.3       1 <0>         0.0000
      9 C9         -0.1072   -1.2225   -1.1452 C.3       1 <0>         0.0000
     10 C10         0.5486    0.1535   -1.3072 C.3       1 <0>         0.0000
     11 C11         1.2223    0.3029   -4.3788 C.3       1 <0>         0.0000
     12 C12        -1.2779   -1.2031   -0.1627 C.3       1 <0>         0.0000
     13 C13        -2.3978   -0.2472   -0.5947 C.3       1 <0>         0.0000
     14 C14        -1.8245   -2.6097    0.0661 C.3       1 <0>         0.0000
     15 C15         1.8920    0.0136   -2.0494 C.3       1 <0>         0.0000
     16 N1          1.7288   -0.6011   -3.3742 N.3       1 <0>         0.0000
     17 O1         -0.7859   -0.7853    1.1417 O.3       1 <0>         0.0000
     18 H1          2.2551    3.4731    1.5748 H         1 <0>         0.0000
     19 H2          1.1159    2.4844    3.5718 H         1 <0>         0.0000
     20 H3          1.9810    2.4174   -0.6332 H         1 <0>         0.0000
     21 H4         -0.3292    0.4661    3.2845 H         1 <0>         0.0000
     22 H5         -0.7381    1.2447   -4.9254 H         1 <0>         0.0000
     23 H6         -0.8752   -0.3946   -4.1164 H         1 <0>         0.0000
     24 H7          0.7485   -1.3774   -5.7484 H         1 <0>         0.0000
     25 H8          0.9154    0.2407   -6.5939 H         1 <0>         0.0000
     26 H9         -0.4352   -1.5992   -2.1162 H         1 <0>         0.0000
     27 H10         0.6375   -1.9332   -0.7664 H         1 <0>         0.0000
     28 H11        -0.1013    0.7829   -1.9276 H         1 <0>         0.0000
     29 H12         1.7185    1.2765   -4.4579 H         1 <0>         0.0000
     30 H13        -3.2286   -0.2966    0.1154 H         1 <0>         0.0000
     31 H14        -2.7716   -0.5217   -1.5869 H         1 <0>         0.0000
     32 H15        -2.0499    0.7880   -0.6348 H         1 <0>         0.0000
     33 H16        -2.5982   -2.5966    0.8397 H         1 <0>         0.0000
     34 H17        -1.0256   -3.2836    0.3891 H         1 <0>         0.0000
     35 H18        -2.2619   -3.0029   -0.8569 H         1 <0>         0.0000
     36 H19         2.5520   -0.6282   -1.4550 H         1 <0>         0.0000
     37 H20         2.3821    0.9967   -2.1236 H         1 <0>         0.0000
     38 H21         2.6270   -0.9661   -3.6826 H         1 <0>         0.0000
@<TRIPOS>BOND
     1    1    2 ar
     2    1    3 ar
     3    1   18 1
     4    2    4 ar
     5    2   19 1
     6    3    5 ar
     7    3   20 1
     8    4    6 ar
     9    4   21 1
    10    5    6 ar
    11    5   10 1
    12    6   17 1
    13    7    8 1
    14    7   11 1
    15    7   22 1
    16    7   23 1
    17    8   11 1
    18    8   24 1
    19    8   25 1
    20    9   10 1
    21    9   12 1
    22    9   26 1
    23    9   27 1
    24   10   15 1
    25   10   28 1
    26   11   16 1
    27   11   29 1
    28   12   13 1
    29   12   14 1
    30   12   17 1
    31   13   30 1
    32   13   31 1
    33   13   32 1
    34   14   33 1
    35   14   34 1
    36   14   35 1
    37   15   16 1
    38   15   36 1
    39   15   37 1
    40   16   38 1
