@<TRIPOS>MOLECULE
*****
   51    55     0     0     0
SMALL
NO_CHARGES

@<TRIPOS>ATOM
      1 C1          1.8406   -8.5746    2.1801 C.ar      1 <0>         0.0000
      2 C2          0.6165   -9.2233    2.1412 C.ar      1 <0>         0.0000
      3 C3          2.8572   -6.1457    2.0525 C.2       1 <0>         0.0000
      4 C4         -0.6116   -7.1287    1.8892 C.ar      1 <0>         0.0000
      5 C5          1.8509   -7.1691    2.0711 C.ar      1 <0>         0.0000
      6 C6         -0.6086   -8.5198    1.9989 C.ar      1 <0>         0.0000
      7 C7          0.6244   -6.4892    1.9270 C.ar      1 <0>         0.0000
      8 C8          2.1943   -4.9513    1.9051 C.2       1 <0>         0.0000
      9 C9          2.6610   -3.5657    1.7843 C.2       1 <0>         0.0000
     10 C10        -2.0573  -10.1251    0.6473 C.2       1 <0>         0.0000
     11 C11        -3.3705  -12.1714   -0.2095 C.3       1 <0>         0.0000
     12 C12        -3.9097  -10.9807   -0.9280 C.3       1 <0>         0.0000
     13 C13         4.4495    0.3136    2.9883 C.3       1 <0>         0.0000
     14 C14         5.0279   -1.5905    4.5167 C.3       1 <0>         0.0000
     15 C15         5.8931    0.4254    2.4505 C.3       1 <0>         0.0000
     16 C16         6.4981   -1.2242    4.2184 C.3       1 <0>         0.0000
     17 C17         6.0389   -2.0037    1.8994 C.3       1 <0>         0.0000
     18 C18        -3.3670  -10.8118    0.4929 C.3       1 <0>         0.0000
     19 C19         4.1556   -1.1585    3.3271 C.3       1 <0>         0.0000
     20 C20         4.5049   -2.0075    2.0816 C.3       1 <0>         0.0000
     21 C21        -1.8996   -9.2906    1.9272 C.3       1 <0>         0.0000
     22 N1          4.0137   -3.3689    2.0942 N.am      1 <0>         0.0000
     23 N2          6.6143   -0.8819    2.7421 N.4       1 <0>         0.0000
     24 O1          1.9561   -2.6303    1.4195 O.2       1 <0>         0.0000
     25 O2         -1.1605  -10.2254   -0.1778 O.2       1 <0>         0.0000
     26 O3          0.8337   -5.1385    1.8270 O.3       1 <0>         0.0000
     27 H1          2.7643   -9.1368    2.2835 H         1 <0>         0.0000
     28 H2          0.5861  -10.3069    2.2052 H         1 <0>         0.0000
     29 H3          3.9296   -6.2901    2.0969 H         1 <0>         0.0000
     30 H4         -1.5314   -6.5646    1.7672 H         1 <0>         0.0000
     31 H5         -4.0646  -12.9124    0.1740 H         1 <0>         0.0000
     32 H6         -2.3974  -12.5427   -0.5141 H         1 <0>         0.0000
     33 H7         -3.2989  -10.5506   -1.7151 H         1 <0>         0.0000
     34 H8         -4.9835  -10.8829   -1.0511 H         1 <0>         0.0000
     35 H9          4.3251    0.9387    3.8762 H         1 <0>         0.0000
     36 H10         3.7491    0.6761    2.2330 H         1 <0>         0.0000
     37 H11         4.9298   -2.6648    4.6955 H         1 <0>         0.0000
     38 H12         4.7070   -1.0892    5.4324 H         1 <0>         0.0000
     39 H13         5.9349    0.5662    1.3688 H         1 <0>         0.0000
     40 H14         6.4696    1.2201    2.9269 H         1 <0>         0.0000
     41 H15         6.8358   -0.3429    4.7667 H         1 <0>         0.0000
     42 H16         7.1949   -2.0414    4.4142 H         1 <0>         0.0000
     43 H17         6.5041   -2.9281    2.2491 H         1 <0>         0.0000
     44 H18         6.3392   -1.8349    0.8640 H         1 <0>         0.0000
     45 H19        -4.0924  -10.6614    1.2870 H         1 <0>         0.0000
     46 H20         3.0966   -1.2886    3.5515 H         1 <0>         0.0000
     47 H21         4.0314   -1.5321    1.2208 H         1 <0>         0.0000
     48 H22        -1.9864   -9.9880    2.7716 H         1 <0>         0.0000
     49 H23        -2.7644   -8.6224    2.0044 H         1 <0>         0.0000
     50 H24         4.4448   -4.0370    2.7220 H         1 <0>         0.0000
     51 H25         7.6039   -0.7695    2.5073 H         1 <0>         0.0000
@<TRIPOS>BOND
     1    1    2 ar
     2    1    5 ar
     3    1   27 1
     4    2    6 ar
     5    2   28 1
     6    3    5 1
     7    3    8 2
     8    3   29 1
     9    4    6 ar
    10    4    7 ar
    11    4   30 1
    12    5    7 ar
    13    6   21 1
    14    7   26 1
    15    8    9 1
    16    8   26 1
    17    9   22 am
    18    9   24 2
    19   10   18 1
    20   10   21 1
    21   10   25 2
    22   11   12 1
    23   11   18 1
    24   11   31 1
    25   11   32 1
    26   12   18 1
    27   12   33 1
    28   12   34 1
    29   13   15 1
    30   13   19 1
    31   13   35 1
    32   13   36 1
    33   14   16 1
    34   14   19 1
    35   14   37 1
    36   14   38 1
    37   15   23 1
    38   15   39 1
    39   15   40 1
    40   16   23 1
    41   16   41 1
    42   16   42 1
    43   17   20 1
    44   17   23 1
    45   17   43 1
    46   17   44 1
    47   18   45 1
    48   19   20 1
    49   19   46 1
    50   20   22 1
    51   20   47 1
    52   21   48 1
    53   21   49 1
    54   22   50 1
    55   23   51 1
