@<TRIPOS>MOLECULE
*****
   51    55     0     0     0
SMALL
NO_CHARGES

@<TRIPOS>ATOM
      1 C1          2.4592   -8.3371    2.7279 C.ar      1 <0>         0.0000
      2 C2          1.3763   -9.2092    2.7048 C.ar      1 <0>         0.0000
      3 C3          3.0801   -5.8469    2.1421 C.2       1 <0>         0.0000
      4 C4         -0.1245   -7.4967    1.8284 C.ar      1 <0>         0.0000
      5 C5          2.2559   -7.0168    2.2886 C.ar      1 <0>         0.0000
      6 C6          0.0908   -8.8095    2.2651 C.ar      1 <0>         0.0000
      7 C7          0.9681   -6.6422    1.8514 C.ar      1 <0>         0.0000
      8 C8          2.2718   -4.8678    1.6417 C.2       1 <0>         0.0000
      9 C9          2.5657   -3.4831    1.2676 C.2       1 <0>         0.0000
     10 C10        -1.6735  -10.0621    0.8788 C.2       1 <0>         0.0000
     11 C11        -2.5144  -12.0446   -0.5334 C.3       1 <0>         0.0000
     12 C12        -3.7152  -11.2339   -0.1801 C.3       1 <0>         0.0000
     13 C13         2.7257    0.0888   -1.4149 C.3       1 <0>         0.0000
     14 C14         1.2256   -1.7780   -2.1751 C.3       1 <0>         0.0000
     15 C15         1.5328    1.0303   -1.1391 C.3       1 <0>         0.0000
     16 C16         0.0970   -0.7240   -2.1803 C.3       1 <0>         0.0000
     17 C17         0.3656   -0.6436    0.2948 C.3       1 <0>         0.0000
     18 C18        -2.5339  -11.2710    0.7895 C.3       1 <0>         0.0000
     19 C19         2.2907   -1.3625   -1.1492 C.3       1 <0>         0.0000
     20 C20         1.6949   -1.4311    0.2771 C.3       1 <0>         0.0000
     21 C21        -1.0360   -9.8095    2.2530 C.3       1 <0>         0.0000
     22 N1          1.4829   -2.7705    0.7743 N.am      1 <0>         0.0000
     23 N2          0.2814    0.1821   -0.9731 N.4       1 <0>         0.0000
     24 O1          3.6806   -2.9721    1.3733 O.2       1 <0>         0.0000
     25 O2         -1.5070   -9.3059   -0.0692 O.2       1 <0>         0.0000
     26 O3          0.9700   -5.3219    1.4518 O.3       1 <0>         0.0000
     27 H1          3.4340   -8.6692    3.0727 H         1 <0>         0.0000
     28 H2          1.5178  -10.2350    3.0347 H         1 <0>         0.0000
     29 H3          4.1318   -5.7298    2.3678 H         1 <0>         0.0000
     30 H4         -1.0934   -7.1719    1.4666 H         1 <0>         0.0000
     31 H5         -2.5692  -13.1260   -0.4615 H         1 <0>         0.0000
     32 H6         -1.8480  -11.6519   -1.2943 H         1 <0>         0.0000
     33 H7         -3.8587  -10.2956   -0.7058 H         1 <0>         0.0000
     34 H8         -4.6181  -11.7452    0.1382 H         1 <0>         0.0000
     35 H9          3.0638    0.1980   -2.4483 H         1 <0>         0.0000
     36 H10         3.5628    0.3592   -0.7675 H         1 <0>         0.0000
     37 H11         0.8277   -2.7654   -1.9280 H         1 <0>         0.0000
     38 H12         1.6604   -1.8510   -3.1743 H         1 <0>         0.0000
     39 H13         1.6444    1.5998   -0.2144 H         1 <0>         0.0000
     40 H14         1.3370    1.7279   -1.9551 H         1 <0>         0.0000
     41 H15         0.1239   -0.0754   -3.0578 H         1 <0>         0.0000
     42 H16        -0.9006   -1.1601   -2.1028 H         1 <0>         0.0000
     43 H17        -0.5087   -1.2984    0.2989 H         1 <0>         0.0000
     44 H18         0.2910    0.0387    1.1431 H         1 <0>         0.0000
     45 H19        -2.6528  -11.8531    1.6982 H         1 <0>         0.0000
     46 H20         3.1534   -2.0280   -1.1939 H         1 <0>         0.0000
     47 H21         2.4122   -0.9617    0.9546 H         1 <0>         0.0000
     48 H22        -0.7053  -10.7679    2.6649 H         1 <0>         0.0000
     49 H23        -1.8580   -9.4787    2.9044 H         1 <0>         0.0000
     50 H24         0.6248   -3.2772    0.5916 H         1 <0>         0.0000
     51 H25        -0.5279    0.8045   -0.9039 H         1 <0>         0.0000
@<TRIPOS>BOND
     1    1    2 ar
     2    1    5 ar
     3    1   27 1
     4    2    6 ar
     5    2   28 1
     6    3    5 1
     7    3    8 2
     8    3   29 1
     9    4    6 ar
    10    4    7 ar
    11    4   30 1
    12    5    7 ar
    13    6   21 1
    14    7   26 1
    15    8    9 1
    16    8   26 1
    17    9   22 am
    18    9   24 2
    19   10   18 1
    20   10   21 1
    21   10   25 2
    22   11   12 1
    23   11   18 1
    24   11   31 1
    25   11   32 1
    26   12   18 1
    27   12   33 1
    28   12   34 1
    29   13   15 1
    30   13   19 1
    31   13   35 1
    32   13   36 1
    33   14   16 1
    34   14   19 1
    35   14   37 1
    36   14   38 1
    37   15   23 1
    38   15   39 1
    39   15   40 1
    40   16   23 1
    41   16   41 1
    42   16   42 1
    43   17   20 1
    44   17   23 1
    45   17   43 1
    46   17   44 1
    47   18   45 1
    48   19   20 1
    49   19   46 1
    50   20   22 1
    51   20   47 1
    52   21   48 1
    53   21   49 1
    54   22   50 1
    55   23   51 1
