@<TRIPOS>MOLECULE
*****
   17    17     0     0     0
SMALL
NO_CHARGES

@<TRIPOS>ATOM
      1 C1          1.0062    1.7877    0.9345 C.2       1 <0>         0.0000
      2 C2         -0.0203    0.8889    0.6125 C.2       1 <0>         0.0000
      3 C3          2.3847    1.7868    0.5409 C.2       1 <0>         0.0000
      4 C4         -1.6786    3.1524    2.6326 C.3       1 <0>         0.0000
      5 C5          4.4322    0.5318    0.6144 C.3       1 <0>         0.0000
      6 N1          0.5318    2.7519    1.7282 N.2       1 <0>         0.0000
      7 N2         -1.1579    1.2716    1.1992 N.2       1 <0>         0.0000
      8 N3         -0.7534    2.3796    1.8406 N.pl3     1 <0>         0.0000
      9 O1          2.9528    2.6988   -0.0979 O.2       1 <0>         0.0000
     10 O2          3.0449    0.6500    0.9476 O.3       1 <0>         0.0000
     11 Br1         0.1505   -0.6278   -0.4730 Br        1 <0>         0.0000
     12 H1         -2.1334    3.9041    1.9821 H         1 <0>         0.0000
     13 H2         -2.4447    2.4908    3.0463 H         1 <0>         0.0000
     14 H3         -1.1384    3.6322    3.4536 H         1 <0>         0.0000
     15 H4          4.8206   -0.4145    0.9988 H         1 <0>         0.0000
     16 H5          4.9849    1.3683    1.0493 H         1 <0>         0.0000
     17 H6          4.5398    0.5524   -0.4726 H         1 <0>         0.0000
@<TRIPOS>BOND
     1    1    2 1
     2    1    3 1
     3    1    6 2
     4    2    7 2
     5    2   11 1
     6    3    9 2
     7    3   10 1
     8    4    8 1
     9    4   12 1
    10    4   13 1
    11    4   14 1
    12    5   10 1
    13    5   15 1
    14    5   16 1
    15    5   17 1
    16    6    8 1
    17    7    8 1
