@<TRIPOS>MOLECULE
*****
   22    22     0     0     0
SMALL
NO_CHARGES

@<TRIPOS>ATOM
      1 C1         -1.0300    1.1977    0.7874 C.2       1 <0>         0.0000
      2 C2         -1.4433   -0.6549   -0.9129 C.2       1 <0>         0.0000
      3 C3         -0.2568   -1.2844    1.2946 C.3       1 <0>         0.0000
      4 C4         -0.7036   -0.1982    0.3362 C.3       1 <0>         0.0000
      5 C5          0.7895   -0.6477    0.4260 C.3       1 <0>         0.0000
      6 C6          1.7734    0.3236    1.0565 C.3       1 <0>         0.0000
      7 C7          1.3820   -1.4322   -0.7319 C.3       1 <0>         0.0000
      8 N1         -1.2489    1.4046    2.1155 N.am      1 <0>         0.0000
      9 O1         -1.0780    2.1366   -0.0229 O.2       1 <0>         0.0000
     10 O2         -1.7390   -1.8184   -1.1015 O.2       1 <0>         0.0000
     11 O3         -1.7060    0.2958   -1.8235 O.3       1 <0>         0.0000
     12 H1         -0.2262   -1.0645    2.3584 H         1 <0>         0.0000
     13 H2         -0.5988   -2.2825    1.0412 H         1 <0>         0.0000
     14 H3          2.1090    1.0651    0.3238 H         1 <0>         0.0000
     15 H4          2.6541   -0.2273    1.4049 H         1 <0>         0.0000
     16 H5          1.3527    0.8581    1.9111 H         1 <0>         0.0000
     17 H6          1.7059   -0.7566   -1.5312 H         1 <0>         0.0000
     18 H7          0.6805   -2.1536   -1.1515 H         1 <0>         0.0000
     19 H8          2.2635   -1.9792   -0.3789 H         1 <0>         0.0000
     20 H9         -1.5768    2.3260    2.3820 H         1 <0>         0.0000
     21 H10        -1.4718    0.6296    2.7244 H         1 <0>         0.0000
     22 H11        -1.4212    1.1733   -1.4595 H         1 <0>         0.0000
@<TRIPOS>BOND
     1    1    4 1
     2    1    8 am
     3    1    9 2
     4    2    4 1
     5    2   10 2
     6    2   11 1
     7    3    4 1
     8    3    5 1
     9    3   12 1
    10    3   13 1
    11    4    5 1
    12    5    6 1
    13    5    7 1
    14    6   14 1
    15    6   15 1
    16    6   16 1
    17    7   17 1
    18    7   18 1
    19    7   19 1
    20    8   20 1
    21    8   21 1
    22   11   22 1
