@<TRIPOS>MOLECULE
*****
   24    24     0     0     0
SMALL
NO_CHARGES

@<TRIPOS>ATOM
      1 C1          1.2339    3.0824    4.0892 C.2       1 <0>         0.0000
      2 C2          2.9086    1.8418    3.3732 C.2       1 <0>         0.0000
      3 C3          2.3959    3.8115    3.9959 C.2       1 <0>         0.0000
      4 C4          1.9218   -0.8446    5.5690 C.3       1 <0>         0.0000
      5 C5         -0.1733    0.2585    6.2421 C.3       1 <0>         0.0000
      6 C6          2.6056    5.2332    4.3090 C.3       1 <0>         0.0000
      7 N1          3.4346    3.0335    3.5493 N.2       1 <0>         0.0000
      8 N2          1.5780    1.8228    3.6866 N.pl3     1 <0>         0.0000
      9 N3          0.5969   -0.3433    5.1249 N.pl3     1 <0>         0.0000
     10 O1         -0.7927    1.0246    3.3967 O.2       1 <0>         0.0000
     11 O2          1.1179   -0.3880    2.5728 O.2       1 <0>         0.0000
     12 O3          3.3026    5.3672    5.5497 O.3       1 <0>         0.0000
     13 S1          0.5231    0.4486    3.5974 S.o2      1 <0>         0.0000
     14 H1          0.2295    3.3412    4.3950 H         1 <0>         0.0000
     15 H2          3.4371    0.9647    3.0246 H         1 <0>         0.0000
     16 H3          2.4556   -1.2804    4.7117 H         1 <0>         0.0000
     17 H4          2.5095   -0.0113    5.9816 H         1 <0>         0.0000
     18 H5          1.7821   -1.6134    6.3432 H         1 <0>         0.0000
     19 H6         -1.1445    0.6151    5.8684 H         1 <0>         0.0000
     20 H7         -0.3367   -0.4978    7.0239 H         1 <0>         0.0000
     21 H8          0.3907    1.1043    6.6623 H         1 <0>         0.0000
     22 H9          3.1982    5.7528    3.5326 H         1 <0>         0.0000
     23 H10         1.6518    5.7868    4.3951 H         1 <0>         0.0000
     24 H11         3.4099    6.3180    5.7001 H         1 <0>         0.0000
@<TRIPOS>BOND
     1    1    3 2
     2    1    8 1
     3    1   14 1
     4    2    7 2
     5    2    8 1
     6    2   15 1
     7    3    6 1
     8    3    7 1
     9    4    9 1
    10    4   16 1
    11    4   17 1
    12    4   18 1
    13    5    9 1
    14    5   19 1
    15    5   20 1
    16    5   21 1
    17    6   12 1
    18    6   22 1
    19    6   23 1
    20    8   13 1
    21    9   13 1
    22   10   13 2
    23   11   13 2
    24   12   24 1
