@<TRIPOS>MOLECULE
*****
   41    46     0     0     0
SMALL
NO_CHARGES

@<TRIPOS>ATOM
      1 C1          3.3353   -0.7943   -0.8593 C.ar      1 <0>         0.0000
      2 C2         -4.0816    7.8956    2.3627 C.ar      1 <0>         0.0000
      3 C3          1.9430   -0.7362   -0.7480 C.ar      1 <0>         0.0000
      4 C4         -4.2840    6.5717    1.9622 C.ar      1 <0>         0.0000
      5 C5         -3.2024   -0.1454    0.3816 C.2       1 <0>         0.0000
      6 C6          2.1158    0.8932    1.0392 C.ar      1 <0>         0.0000
      7 C7         -2.1460    5.9203    2.9021 C.ar      1 <0>         0.0000
      8 C8         -4.4820    0.3094    0.6035 C.2       1 <0>         0.0000
      9 C9          5.9346    0.8922    0.9075 C.2       1 <0>         0.0000
     10 C10        -1.3868    9.4729    4.0869 C.2       1 <0>         0.0000
     11 C11        -2.3363    0.9390    0.6774 C.ar      1 <0>         0.0000
     12 C12         4.1394   -0.0003   -0.0131 C.ar      1 <0>         0.0000
     13 C13        -2.8964    8.2479    3.0441 C.ar      1 <0>         0.0000
     14 C14         1.3433    0.0973    0.1897 C.ar      1 <0>         0.0000
     15 C15        -3.3275    5.5985    2.2294 C.ar      1 <0>         0.0000
     16 C16        -3.1617    1.9869    1.0622 C.ar      1 <0>         0.0000
     17 C17         3.5136    0.8300    0.9218 C.ar      1 <0>         0.0000
     18 C18        -1.9493    7.2521    3.3016 C.ar      1 <0>         0.0000
     19 C19        -0.9620    1.1568    0.6656 C.ar      1 <0>         0.0000
     20 C20        -2.6881    3.2282    1.4316 C.ar      1 <0>         0.0000
     21 N1          5.5259    0.0466   -0.0093 N.2       1 <0>         0.0000
     22 N2         -2.5601    9.5142    3.5001 N.2       1 <0>         0.0000
     23 N3         -0.4959    2.3736    1.0275 N.ar      1 <0>         0.0000
     24 N4         -1.3515    3.4004    1.4072 N.ar      1 <0>         0.0000
     25 N5         -0.0656    0.1411    0.2866 N.pl3     1 <0>         0.0000
     26 N6         -3.5511    4.2656    1.8157 N.pl3     1 <0>         0.0000
     27 O1         -4.4674    1.6039    1.0173 O.3       1 <0>         0.0000
     28 S1          4.7181    1.6803    1.8157 S.3       1 <0>         0.0000
     29 S2         -0.6122    7.9487    4.1381 S.3       1 <0>         0.0000
     30 H1          3.7932   -1.4490   -1.5954 H         1 <0>         0.0000
     31 H2         -4.8355    8.6478    2.1486 H         1 <0>         0.0000
     32 H3          1.3351   -1.3530   -1.4057 H         1 <0>         0.0000
     33 H4         -5.2012    6.3136    1.4379 H         1 <0>         0.0000
     34 H5         -2.9302   -1.1371    0.0489 H         1 <0>         0.0000
     35 H6          1.6492    1.5456    1.7722 H         1 <0>         0.0000
     36 H7         -1.3975    5.1613    3.1125 H         1 <0>         0.0000
     37 H8         -5.4597   -0.1418    0.5181 H         1 <0>         0.0000
     38 H9          6.9840    1.0845    1.0837 H         1 <0>         0.0000
     39 H10        -0.9291   10.3531    4.5170 H         1 <0>         0.0000
     40 H11        -0.5155   -0.7324    0.0331 H         1 <0>         0.0000
     41 H12        -4.5379    4.0134    1.7931 H         1 <0>         0.0000
@<TRIPOS>BOND
     1    1    3 ar
     2    1   12 ar
     3    1   30 1
     4    2    4 ar
     5    2   13 ar
     6    2   31 1
     7    3   14 ar
     8    3   32 1
     9    4   15 ar
    10    4   33 1
    11    5    8 2
    12    5   11 1
    13    5   34 1
    14    6   14 ar
    15    6   17 ar
    16    6   35 1
    17    7   15 ar
    18    7   18 ar
    19    7   36 1
    20    8   27 1
    21    8   37 1
    22    9   21 2
    23    9   28 1
    24    9   38 1
    25   10   22 2
    26   10   29 1
    27   10   39 1
    28   11   16 ar
    29   11   19 ar
    30   12   17 ar
    31   12   21 1
    32   13   18 ar
    33   13   22 1
    34   14   25 1
    35   15   26 1
    36   16   20 ar
    37   16   27 1
    38   17   28 1
    39   18   29 1
    40   19   23 ar
    41   19   25 1
    42   20   24 ar
    43   20   26 1
    44   23   24 ar
    45   25   40 1
    46   26   41 1
