@<TRIPOS>MOLECULE
*****
   32    33     0     0     0
SMALL
NO_CHARGES

@<TRIPOS>ATOM
      1 C1          1.7310    2.7007   -1.2326 C.ar      1 <0>         0.0000
      2 C2          0.6771    2.4353   -2.1246 C.ar      1 <0>         0.0000
      3 C3          1.9818    1.8135   -0.1935 C.ar      1 <0>         0.0000
      4 C4         -0.1225    1.3055   -1.9697 C.ar      1 <0>         0.0000
      5 C5          1.1947    0.6601   -0.0252 C.ar      1 <0>         0.0000
      6 C6          0.1298    0.4154   -0.9158 C.ar      1 <0>         0.0000
      7 C7          1.5018   -0.3165    1.0425 C.2       1 <0>         0.0000
      8 C8         -3.9928   -0.8189    1.4618 C.2       1 <0>         0.0000
      9 C9          0.6920   -1.6004    0.9781 C.3       1 <0>         0.0000
     10 C10        -0.7333   -1.3794    0.4625 C.3       1 <0>         0.0000
     11 C11        -5.3014   -0.3784    0.8284 C.3       1 <0>         0.0000
     12 C12        -1.4320   -2.6975    0.1584 C.3       1 <0>         0.0000
     13 C13        -1.5368   -0.5225    1.4633 C.3       1 <0>         0.0000
     14 N1         -2.8677   -0.1926    0.9910 N.am      1 <0>         0.0000
     15 O1          2.3694   -0.1352    1.8891 O.2       1 <0>         0.0000
     16 O2         -3.9545   -1.6705    2.3489 O.2       1 <0>         0.0000
     17 O3         -0.6918   -0.6692   -0.8168 O.3       1 <0>         0.0000
     18 H1          2.3443    3.5878   -1.3600 H         1 <0>         0.0000
     19 H2          0.4754    3.1207   -2.9438 H         1 <0>         0.0000
     20 H3          2.7938    1.9766    0.5092 H         1 <0>         0.0000
     21 H4         -0.9427    1.0937   -2.6497 H         1 <0>         0.0000
     22 H5          1.2166   -2.2780    0.2921 H         1 <0>         0.0000
     23 H6          0.6840   -2.0707    1.9642 H         1 <0>         0.0000
     24 H7         -5.8325   -1.2635    0.4697 H         1 <0>         0.0000
     25 H8         -5.9227    0.0873    1.5985 H         1 <0>         0.0000
     26 H9         -5.1753    0.3263    0.0015 H         1 <0>         0.0000
     27 H10        -2.4270   -2.5180   -0.2541 H         1 <0>         0.0000
     28 H11        -1.5442   -3.2851    1.0728 H         1 <0>         0.0000
     29 H12        -0.8518   -3.2703   -0.5702 H         1 <0>         0.0000
     30 H13        -0.9966    0.4036    1.6849 H         1 <0>         0.0000
     31 H14        -1.6520   -1.0763    2.3967 H         1 <0>         0.0000
     32 H15        -2.9466    0.4328    0.2008 H         1 <0>         0.0000
@<TRIPOS>BOND
     1    1    2 ar
     2    1    3 ar
     3    1   18 1
     4    2    4 ar
     5    2   19 1
     6    3    5 ar
     7    3   20 1
     8    4    6 ar
     9    4   21 1
    10    5    6 ar
    11    5    7 1
    12    6   17 1
    13    7    9 1
    14    7   15 2
    15    8   11 1
    16    8   14 am
    17    8   16 2
    18    9   10 1
    19    9   22 1
    20    9   23 1
    21   10   12 1
    22   10   13 1
    23   10   17 1
    24   11   24 1
    25   11   25 1
    26   11   26 1
    27   12   27 1
    28   12   28 1
    29   12   29 1
    30   13   14 1
    31   13   30 1
    32   13   31 1
    33   14   32 1
