@<TRIPOS>MOLECULE
*****
   19    19     0     0     0
SMALL
NO_CHARGES

@<TRIPOS>ATOM
      1 C1          0.7843   -0.5196    0.5399 C.ar      1 <0>         0.0000
      2 C2          2.8804   -1.7065    0.5723 C.ar      1 <0>         0.0000
      3 C3          0.7101   -0.6752    1.9167 C.ar      1 <0>         0.0000
      4 C4          2.7532   -1.8320    1.9483 C.ar      1 <0>         0.0000
      5 C5          1.8830   -1.0424   -0.1354 C.ar      1 <0>         0.0000
      6 C6          1.9889   -0.8958   -1.5782 C.2       1 <0>         0.0000
      7 C7          1.5789   -1.4668    4.0221 C.3       1 <0>         0.0000
      8 N1          1.6847   -1.3190    2.5735 N.ar      1 <0>         0.0000
      9 N2          0.9640   -0.2237   -2.2381 N.am      1 <0>         0.0000
     10 O1          2.9514   -1.3674   -2.2090 O.2       1 <0>         0.0000
     11 H1         -0.0054    0.0038    0.0099 H         1 <0>         0.0000
     12 H2          3.7459   -2.1236    0.0668 H         1 <0>         0.0000
     13 H3         -0.1139   -0.2933    2.5069 H         1 <0>         0.0000
     14 H4          3.4894   -2.3363    2.5622 H         1 <0>         0.0000
     15 H5          1.0488   -2.3968    4.2453 H         1 <0>         0.0000
     16 H6          2.5732   -1.4964    4.4765 H         1 <0>         0.0000
     17 H7          1.0283   -0.6191    4.4399 H         1 <0>         0.0000
     18 H8          1.0143   -0.1081   -3.2444 H         1 <0>         0.0000
     19 H9          0.1676    0.1533   -1.7345 H         1 <0>         0.0000
@<TRIPOS>BOND
     1    1    3 ar
     2    1    5 ar
     3    1   11 1
     4    2    4 ar
     5    2    5 ar
     6    2   12 1
     7    3    8 ar
     8    3   13 1
     9    4    8 ar
    10    4   14 1
    11    5    6 1
    12    6    9 am
    13    6   10 2
    14    7    8 1
    15    7   15 1
    16    7   16 1
    17    7   17 1
    18    9   18 1
    19    9   19 1
