@<TRIPOS>MOLECULE
*****
   34    35     0     0     0
SMALL
NO_CHARGES

@<TRIPOS>ATOM
      1 C1          5.3653   -4.1606   -4.7863 C.ar      1 <0>         0.0000
      2 C2          4.7455   -2.9543   -5.0929 C.ar      1 <0>         0.0000
      3 C3          4.7744   -4.9683   -3.8282 C.ar      1 <0>         0.0000
      4 C4          3.5702   -2.5976   -4.4411 C.ar      1 <0>         0.0000
      5 C5          3.0595   -3.4754   -3.4985 C.ar      1 <0>         0.0000
      6 C6          2.8769   -1.6606    0.5350 C.3       1 <0>         0.0000
      7 C7          0.9733   -0.4226   -0.2775 C.3       1 <0>         0.0000
      8 C8          2.6493   -2.7208   -0.5481 C.3       1 <0>         0.0000
      9 C9          0.7469   -1.4824   -1.3611 C.3       1 <0>         0.0000
     10 C10         2.9013   -1.3068   -4.7653 C.3       1 <0>         0.0000
     11 C11         1.8318    0.0009    1.9360 C.3       1 <0>         0.0000
     12 C12         1.7938   -3.1419   -2.7630 C.3       1 <0>         0.0000
     13 N1          3.6333   -4.6557   -3.1740 N.ar      1 <0>         0.0000
     14 N2          1.6130   -1.0119    0.9052 N.3       1 <0>         0.0000
     15 N3          2.0113   -2.1302   -1.7310 N.3       1 <0>         0.0000
     16 H1          6.2817   -4.4608   -5.2815 H         1 <0>         0.0000
     17 H2          5.1851   -2.3000   -5.8408 H         1 <0>         0.0000
     18 H3          5.2185   -5.9192   -3.5528 H         1 <0>         0.0000
     19 H4          3.3116   -2.1531    1.4133 H         1 <0>         0.0000
     20 H5          3.6077   -0.9212    0.1801 H         1 <0>         0.0000
     21 H6          1.5814    0.3970   -0.6843 H         1 <0>         0.0000
     22 H7          0.0001    0.0003   -0.0003 H         1 <0>         0.0000
     23 H8          3.6222   -3.1448   -0.8248 H         1 <0>         0.0000
     24 H9          2.0399   -3.5394   -0.1414 H         1 <0>         0.0000
     25 H10         0.0163   -2.2224   -1.0069 H         1 <0>         0.0000
     26 H11         0.3122   -0.9898   -2.2394 H         1 <0>         0.0000
     27 H12         2.1805   -1.4426   -5.5817 H         1 <0>         0.0000
     28 H13         2.3668   -0.9032   -3.8948 H         1 <0>         0.0000
     29 H14         3.6304   -0.5437   -5.0702 H         1 <0>         0.0000
     30 H15         2.3081   -0.4499    2.8105 H         1 <0>         0.0000
     31 H16         0.8787    0.4408    2.2419 H         1 <0>         0.0000
     32 H17         2.4780    0.7957    1.5538 H         1 <0>         0.0000
     33 H18         1.0345   -2.7605   -3.4545 H         1 <0>         0.0000
     34 H19         1.3753   -4.0302   -2.2782 H         1 <0>         0.0000
@<TRIPOS>BOND
     1    1    2 ar
     2    1    3 ar
     3    1   16 1
     4    2    4 ar
     5    2   17 1
     6    3   13 ar
     7    3   18 1
     8    4    5 ar
     9    4   10 1
    10    5   12 1
    11    5   13 ar
    12    6    8 1
    13    6   14 1
    14    6   19 1
    15    6   20 1
    16    7    9 1
    17    7   14 1
    18    7   21 1
    19    7   22 1
    20    8   15 1
    21    8   23 1
    22    8   24 1
    23    9   15 1
    24    9   25 1
    25    9   26 1
    26   10   27 1
    27   10   28 1
    28   10   29 1
    29   11   14 1
    30   11   30 1
    31   11   31 1
    32   11   32 1
    33   12   15 1
    34   12   33 1
    35   12   34 1
