@<TRIPOS>MOLECULE
*****
   34    36     0     0     0
SMALL
NO_CHARGES

@<TRIPOS>ATOM
      1 C1         -2.5567   -3.0434   -1.7749 C.ar      1 <0>         0.0000
      2 C2         -2.5657   -2.9690    0.6216 C.ar      1 <0>         0.0000
      3 C3         -1.7983   -1.8624   -1.7628 C.ar      1 <0>         0.0000
      4 C4         -2.9484   -3.6086   -0.5678 C.ar      1 <0>         0.0000
      5 C5         -1.3822   -1.3324   -0.5253 C.ar      1 <0>         0.0000
      6 C6         -4.3769    0.2307   -1.8984 C.3       1 <0>         0.0000
      7 C7         -4.9120    0.7017   -3.2333 C.3       1 <0>         0.0000
      8 C8          0.8310   -0.4010    0.3550 C.3       1 <0>         0.0000
      9 C9          0.8636   -0.1410   -1.1335 C.3       1 <0>         0.0000
     10 C10        -3.4343    0.4815   -3.0408 C.3       1 <0>         0.0000
     11 C11        -0.4625   -0.1497   -0.3849 C.3       1 <0>         0.0000
     12 C12        -1.1661    1.1729   -0.1145 C.3       1 <0>         0.0000
     13 C13        -1.4977   -1.1929   -3.0748 C.3       1 <0>         0.0000
     14 N1         -1.7949   -1.8837    0.6302 N.ar      1 <0>         0.0000
     15 N2         -2.7913   -0.6766   -3.7240 N.4       1 <0>         0.0000
     16 Br1        -3.9742   -5.2082   -0.5197 Br        1 <0>         0.0000
     17 H1         -2.8319   -3.5286   -2.7104 H         1 <0>         0.0000
     18 H2         -2.8814   -3.3603    1.5864 H         1 <0>         0.0000
     19 H3         -4.3309    0.9286   -1.0696 H         1 <0>         0.0000
     20 H4         -4.5725   -0.7963   -1.6067 H         1 <0>         0.0000
     21 H5         -5.4702   -0.0122   -3.8339 H         1 <0>         0.0000
     22 H6         -5.2422    1.7293   -3.3420 H         1 <0>         0.0000
     23 H7          1.0319   -1.4114    0.6955 H         1 <0>         0.0000
     24 H8          1.1802    0.3778    1.0255 H         1 <0>         0.0000
     25 H9          1.2430    0.8151   -1.4849 H         1 <0>         0.0000
     26 H10         1.1172   -0.9861   -1.7690 H         1 <0>         0.0000
     27 H11        -2.7589    1.3292   -3.0155 H         1 <0>         0.0000
     28 H12        -0.4363    1.9653    0.0740 H         1 <0>         0.0000
     29 H13        -1.8082    1.0878    0.7676 H         1 <0>         0.0000
     30 H14        -1.7862    1.4902   -0.9601 H         1 <0>         0.0000
     31 H15        -0.8462   -0.3292   -2.9628 H         1 <0>         0.0000
     32 H16        -1.0622   -1.8812   -3.8050 H         1 <0>         0.0000
     33 H17        -3.4629   -1.4520   -3.7685 H         1 <0>         0.0000
     34 H18        -2.5943   -0.4154   -4.6984 H         1 <0>         0.0000
@<TRIPOS>BOND
     1    1    3 ar
     2    1    4 ar
     3    1   17 1
     4    2    4 ar
     5    2   14 ar
     6    2   18 1
     7    3    5 ar
     8    3   13 1
     9    4   16 1
    10    5   11 1
    11    5   14 ar
    12    6    7 1
    13    6   10 1
    14    6   19 1
    15    6   20 1
    16    7   10 1
    17    7   21 1
    18    7   22 1
    19    8    9 1
    20    8   11 1
    21    8   23 1
    22    8   24 1
    23    9   11 1
    24    9   25 1
    25    9   26 1
    26   10   15 1
    27   10   27 1
    28   11   12 1
    29   12   28 1
    30   12   29 1
    31   12   30 1
    32   13   15 1
    33   13   31 1
    34   13   32 1
    35   15   33 1
    36   15   34 1
