@<TRIPOS>MOLECULE
*****
   22    23     0     0     0
SMALL
NO_CHARGES

@<TRIPOS>ATOM
      1 C1          0.3146    1.3718    2.7599 C.ar      1 <0>         0.0000
      2 C2         -1.0186    1.6178    2.4180 C.ar      1 <0>         0.0000
      3 C3          1.0958    0.5186    1.9802 C.ar      1 <0>         0.0000
      4 C4         -1.5664    0.9865    1.2995 C.ar      1 <0>         0.0000
      5 C5          0.5574   -0.1205    0.8507 C.ar      1 <0>         0.0000
      6 C6         -0.7885    0.1169    0.5365 C.ar      1 <0>         0.0000
      7 C7          1.6289   -1.3151   -1.1913 C.2       1 <0>         0.0000
      8 C8          0.7315   -0.8507   -2.3355 C.3       1 <0>         0.0000
      9 C9         -0.4863    0.0407   -2.1165 C.3       1 <0>         0.0000
     10 N1          1.4012   -1.0115    0.1426 N.am      1 <0>         0.0000
     11 O1          2.5968   -2.0189   -1.4656 O.2       1 <0>         0.0000
     12 O2         -2.9722   -0.0274   -1.0016 O.2       1 <0>         0.0000
     13 S1         -1.6202   -0.6986   -0.8606 S.o       1 <0>         0.0000
     14 H1          0.7549    1.8518    3.6295 H         1 <0>         0.0000
     15 H2         -1.6268    2.2889    3.0174 H         1 <0>         0.0000
     16 H3          2.1390    0.3483    2.2369 H         1 <0>         0.0000
     17 H4         -2.5987    1.1439    0.9980 H         1 <0>         0.0000
     18 H5          1.4101   -0.3602   -3.0403 H         1 <0>         0.0000
     19 H6          0.4240   -1.7791   -2.8269 H         1 <0>         0.0000
     20 H7         -0.2439    1.0587   -1.8050 H         1 <0>         0.0000
     21 H8         -1.0827    0.0859   -3.0322 H         1 <0>         0.0000
     22 H9          2.1620   -1.3914    0.6993 H         1 <0>         0.0000
@<TRIPOS>BOND
     1    1    2 ar
     2    1    3 ar
     3    1   14 1
     4    2    4 ar
     5    2   15 1
     6    3    5 ar
     7    3   16 1
     8    4    6 ar
     9    4   17 1
    10    5    6 ar
    11    5   10 1
    12    6   13 1
    13    7    8 1
    14    7   10 am
    15    7   11 2
    16    8    9 1
    17    8   18 1
    18    8   19 1
    19    9   13 1
    20    9   20 1
    21    9   21 1
    22   10   22 1
    23   12   13 2
