@<TRIPOS>MOLECULE
*****
   29    30     0     0     0
SMALL
NO_CHARGES

@<TRIPOS>ATOM
      1 C1          0.0139   -1.7041    0.3358 C.ar      1 <0>         0.0000
      2 C2          4.3173   -4.3157   -0.2915 C.ar      1 <0>         0.0000
      3 C3          0.3633   -3.0109    0.5994 C.ar      1 <0>         0.0000
      4 C4          3.9482   -3.0153   -0.5647 C.ar      1 <0>         0.0000
      5 C5          0.9409   -0.8023   -0.2403 C.ar      1 <0>         0.0000
      6 C6          3.3813   -5.2255    0.2582 C.ar      1 <0>         0.0000
      7 C7          2.6300   -2.5696   -0.2808 C.ar      1 <0>         0.0000
      8 C8          1.6734   -3.4704    0.2890 C.ar      1 <0>         0.0000
      9 C9          2.2218   -1.2254   -0.5381 C.ar      1 <0>         0.0000
     10 C10         2.0962   -4.8113    0.5287 C.ar      1 <0>         0.0000
     11 C11        -1.0319   -6.6155    0.9312 C.2       1 <0>         0.0000
     12 C12         0.8343   -7.5686   -0.4896 C.3       1 <0>         0.0000
     13 C13         0.2582   -6.3134    0.1564 C.3       1 <0>         0.0000
     14 O1         -1.9808   -7.1556    0.4093 O.2       1 <0>         0.0000
     15 O2          3.1688   -0.3986   -1.0880 O.3       1 <0>         0.0000
     16 O3         -1.0378   -6.2232    2.2223 O.3       1 <0>         0.0000
     17 O4          1.1960   -5.7148    1.0851 O.3       1 <0>         0.0000
     18 H1         -0.9853   -1.3506    0.5747 H         1 <0>         0.0000
     19 H2          5.3285   -4.6531   -0.5007 H         1 <0>         0.0000
     20 H3         -0.3548   -3.6829    1.0556 H         1 <0>         0.0000
     21 H4          4.6572   -2.3153   -0.9926 H         1 <0>         0.0000
     22 H5          0.6427    0.2252   -0.4416 H         1 <0>         0.0000
     23 H6          3.6615   -6.2518    0.4761 H         1 <0>         0.0000
     24 H7          1.1315   -8.2898    0.2771 H         1 <0>         0.0000
     25 H8          1.7084   -7.3106   -1.0933 H         1 <0>         0.0000
     26 H9          0.0806   -8.0271   -1.1338 H         1 <0>         0.0000
     27 H10        -0.0041   -5.5786   -0.6121 H         1 <0>         0.0000
     28 H11         2.7841    0.4839   -1.2111 H         1 <0>         0.0000
     29 H12        -0.1588   -5.8289    2.4071 H         1 <0>         0.0000
@<TRIPOS>BOND
     1    1    3 ar
     2    1    5 ar
     3    1   18 1
     4    2    4 ar
     5    2    6 ar
     6    2   19 1
     7    3    8 ar
     8    3   20 1
     9    4    7 ar
    10    4   21 1
    11    5    9 ar
    12    5   22 1
    13    6   10 ar
    14    6   23 1
    15    7    8 ar
    16    7    9 ar
    17    8   10 ar
    18    9   15 1
    19   10   17 1
    20   11   13 1
    21   11   14 2
    22   11   16 1
    23   12   13 1
    24   12   24 1
    25   12   25 1
    26   12   26 1
    27   13   17 1
    28   13   27 1
    29   15   28 1
    30   16   29 1
