@<TRIPOS>MOLECULE
*****
   43    44     0     0     0
SMALL
NO_CHARGES

@<TRIPOS>ATOM
      1 C1          7.0138    1.9680    1.8662 C.2       1 <0>         0.0000
      2 C2          5.3494    3.4537    2.2128 C.2       1 <0>         0.0000
      3 C3          3.6734    2.1429    0.8144 C.2       1 <0>         0.0000
      4 C4          0.7429    5.9121    0.0576 C.3       1 <0>         0.0000
      5 C5          1.7128    5.1359   -0.8462 C.3       1 <0>         0.0000
      6 C6          0.7409    5.3534    1.4887 C.3       1 <0>         0.0000
      7 C7          1.4027    3.6330   -0.8395 C.3       1 <0>         0.0000
      8 C8          0.4521    3.8429    1.5002 C.3       1 <0>         0.0000
      9 C9          1.4019    3.0534    0.5875 C.3       1 <0>         0.0000
     10 C10         8.3581    1.3379    1.9587 C.3       1 <0>         0.0000
     11 C11         8.7367    4.9972    1.3605 C.3       1 <0>         0.0000
     12 C12         8.6075    6.1021    3.6377 C.3       1 <0>         0.0000
     13 C13         7.8786    5.2521    2.5980 C.3       1 <0>         0.0000
     14 N1          5.9991    1.4789    1.2158 N.2       1 <0>         0.0000
     15 N2          6.6839    3.1672    2.4800 N.am      1 <0>         0.0000
     16 N3          4.9616    2.3854    1.4203 N.am      1 <0>         0.0000
     17 N4          2.7487    3.0653    1.1706 N.am      1 <0>         0.0000
     18 N5          7.5404    3.9578    3.2550 N.3       1 <0>         0.0000
     19 O1          4.7046    4.4255    2.6209 O.2       1 <0>         0.0000
     20 O2          3.5019    1.1885    0.0768 O.2       1 <0>         0.0000
     21 H1         -0.2720    5.8396   -0.3578 H         1 <0>         0.0000
     22 H2          1.0023    6.9772    0.0695 H         1 <0>         0.0000
     23 H3          1.6676    5.5211   -1.8713 H         1 <0>         0.0000
     24 H4          2.7420    5.2966   -0.4988 H         1 <0>         0.0000
     25 H5          1.7112    5.5585    1.9606 H         1 <0>         0.0000
     26 H6         -0.0062    5.8729    2.0996 H         1 <0>         0.0000
     27 H7          0.4102    3.4599   -1.2766 H         1 <0>         0.0000
     28 H8          2.1209    3.0777   -1.4502 H         1 <0>         0.0000
     29 H9          0.5040    3.4442    2.5198 H         1 <0>         0.0000
     30 H10        -0.5705    3.6722    1.1419 H         1 <0>         0.0000
     31 H11         1.0875    2.0072    0.5450 H         1 <0>         0.0000
     32 H12         9.1184    1.9658    1.4857 H         1 <0>         0.0000
     33 H13         8.3258    0.3700    1.4567 H         1 <0>         0.0000
     34 H14         8.6479    1.2028    3.0045 H         1 <0>         0.0000
     35 H15         9.6733    4.5007    1.6358 H         1 <0>         0.0000
     36 H16         8.2131    4.3737    0.6292 H         1 <0>         0.0000
     37 H17         8.9780    5.9456    0.8707 H         1 <0>         0.0000
     38 H18         9.5206    5.6014    3.9763 H         1 <0>         0.0000
     39 H19         7.9742    6.2960    4.5111 H         1 <0>         0.0000
     40 H20         8.8821    7.0694    3.2075 H         1 <0>         0.0000
     41 H21         6.9561    5.7661    2.2984 H         1 <0>         0.0000
     42 H22         3.0473    3.8377    1.7617 H         1 <0>         0.0000
     43 H23         7.0449    4.1512    4.1261 H         1 <0>         0.0000
@<TRIPOS>BOND
     1    1   10 1
     2    1   14 2
     3    1   15 1
     4    2   15 am
     5    2   16 am
     6    2   19 2
     7    3   16 am
     8    3   17 am
     9    3   20 2
    10    4    6 1
    11    4    5 1
    12    4   21 1
    13    4   22 1
    14    5    7 1
    15    5   23 1
    16    5   24 1
    17    6    8 1
    18    6   25 1
    19    6   26 1
    20    7    9 1
    21    7   27 1
    22    7   28 1
    23    8    9 1
    24    8   29 1
    25    8   30 1
    26    9   17 1
    27    9   31 1
    28   10   32 1
    29   10   33 1
    30   10   34 1
    31   11   13 1
    32   11   35 1
    33   11   36 1
    34   11   37 1
    35   12   13 1
    36   12   38 1
    37   12   39 1
    38   12   40 1
    39   13   18 1
    40   13   41 1
    41   14   16 1
    42   15   18 1
    43   17   42 1
    44   18   43 1
