@<TRIPOS>MOLECULE
*****
   37    37     0     0     0
SMALL
NO_CHARGES

@<TRIPOS>ATOM
      1 C1          8.6742   -1.1005   -1.1533 C.2       1 <0>         0.0000
      2 C2          7.1377   -0.6237    0.5773 C.2       1 <0>         0.0000
      3 C3          9.7511   -1.1721   -2.2092 C.2       1 <0>         0.0000
      4 C4          7.1418   -1.5605    8.2891 C.3       1 <0>         0.0000
      5 C5          9.0515   -0.0083   -5.8971 C.3       1 <0>         0.0000
      6 C6          6.4560   -0.8290    7.1301 C.3       1 <0>         0.0000
      7 C7         10.3333   -0.6379   -5.3426 C.3       1 <0>         0.0000
      8 C8          7.0254   -1.2194    5.7608 C.3       1 <0>         0.0000
      9 C9          6.3436   -0.4803    4.6011 C.3       1 <0>         0.0000
     10 C10        10.8419    0.0356   -4.0610 C.3       1 <0>         0.0000
     11 C11         6.9299   -0.8878    3.2523 C.3       1 <0>         0.0000
     12 N1          7.9086   -2.1220   -0.8682 N.2       1 <0>         0.0000
     13 N2          7.0122   -1.8379    0.1292 N.2       1 <0>         0.0000
     14 N3          9.8921   -0.0304   -2.9476 N.am      1 <0>         0.0000
     15 O1         10.4465   -2.1706   -2.3416 O.2       1 <0>         0.0000
     16 O2          6.6084    1.5228    2.0419 O.2       1 <0>         0.0000
     17 S1          8.3710    0.3346   -0.1924 S.3       1 <0>         0.0000
     18 S2          6.1232    0.0920    1.9058 S.o       1 <0>         0.0000
     19 H1          7.0288   -2.6465    8.1940 H         1 <0>         0.0000
     20 H2          8.2151   -1.3400    8.3158 H         1 <0>         0.0000
     21 H3          6.7166   -1.2641    9.2536 H         1 <0>         0.0000
     22 H4          8.2172   -0.1117   -5.1943 H         1 <0>         0.0000
     23 H5          9.1879    1.0598   -6.1068 H         1 <0>         0.0000
     24 H6          8.7488   -0.4929   -6.8305 H         1 <0>         0.0000
     25 H7          6.5579    0.2551    7.2671 H         1 <0>         0.0000
     26 H8          5.3790   -1.0408    7.1477 H         1 <0>         0.0000
     27 H9         11.1335   -0.5736   -6.0901 H         1 <0>         0.0000
     28 H10        10.1767   -1.7018   -5.1386 H         1 <0>         0.0000
     29 H11         6.9217   -2.3035    5.6185 H         1 <0>         0.0000
     30 H12         8.1028   -1.0078    5.7420 H         1 <0>         0.0000
     31 H13         6.4621    0.6009    4.7326 H         1 <0>         0.0000
     32 H14         5.2666   -0.6900    4.6144 H         1 <0>         0.0000
     33 H15        11.7642   -0.4442   -3.7266 H         1 <0>         0.0000
     34 H16        11.0572    1.0941   -4.2411 H         1 <0>         0.0000
     35 H17         6.7529   -1.9410    3.0122 H         1 <0>         0.0000
     36 H18         8.0011   -0.6722    3.1902 H         1 <0>         0.0000
     37 H19         9.1509    0.6576   -2.9118 H         1 <0>         0.0000
@<TRIPOS>BOND
     1    1    3 1
     2    1   12 2
     3    1   17 1
     4    2   13 2
     5    2   17 1
     6    2   18 1
     7    3   14 am
     8    3   15 2
     9    4    6 1
    10    4   19 1
    11    4   20 1
    12    4   21 1
    13    5    7 1
    14    5   22 1
    15    5   23 1
    16    5   24 1
    17    6    8 1
    18    6   25 1
    19    6   26 1
    20    7   10 1
    21    7   27 1
    22    7   28 1
    23    8    9 1
    24    8   29 1
    25    8   30 1
    26    9   11 1
    27    9   31 1
    28    9   32 1
    29   10   14 1
    30   10   33 1
    31   10   34 1
    32   11   18 1
    33   11   35 1
    34   11   36 1
    35   12   13 1
    36   14   37 1
    37   16   18 2
