@<TRIPOS>MOLECULE
*****
   23    22     0     0     0
SMALL
NO_CHARGES

@<TRIPOS>ATOM
      1 C1         -1.5934    2.4726    2.0132 C.2       1 <0>         0.0000
      2 C2          0.9281    1.5086    0.5294 C.3       1 <0>         0.0000
      3 C3          1.3703    2.6273    2.7295 C.3       1 <0>         0.0000
      4 C4         -2.4434    4.6588    2.8471 C.3       1 <0>         0.0000
      5 C5         -0.7553    1.2738    2.4527 C.3       1 <0>         0.0000
      6 C6          0.7266    1.4171    2.0457 C.3       1 <0>         0.0000
      7 N1         -1.3725    0.0817    1.9288 N.3       1 <0>         0.0000
      8 N2         -1.6765    3.4440    3.0005 N.am      1 <0>         0.0000
      9 O1         -2.1506    2.5333    0.9191 O.2       1 <0>         0.0000
     10 H1          0.4128    2.3793    0.1123 H         1 <0>         0.0000
     11 H2          1.9880    1.5785    0.2642 H         1 <0>         0.0000
     12 H3          0.5209    0.6199    0.0348 H         1 <0>         0.0000
     13 H4          0.8737    3.5550    2.4265 H         1 <0>         0.0000
     14 H5          1.2857    2.5457    3.8185 H         1 <0>         0.0000
     15 H6          2.4336    2.7130    2.4823 H         1 <0>         0.0000
     16 H7         -1.8117    5.4532    2.4410 H         1 <0>         0.0000
     17 H8         -2.8370    4.9821    3.8146 H         1 <0>         0.0000
     18 H9         -3.2819    4.4929    2.1654 H         1 <0>         0.0000
     19 H10        -0.8322    1.1971    3.5447 H         1 <0>         0.0000
     20 H11         1.2680    0.5263    2.3905 H         1 <0>         0.0000
     21 H12        -2.3727    0.0563    1.8215 H         1 <0>         0.0000
     22 H13        -0.8307   -0.7643    1.8724 H         1 <0>         0.0000
     23 H14        -1.2015    3.2964    3.8860 H         1 <0>         0.0000
@<TRIPOS>BOND
     1    1    5 1
     2    1    8 am
     3    1    9 2
     4    2    6 1
     5    2   10 1
     6    2   11 1
     7    2   12 1
     8    3    6 1
     9    3   13 1
    10    3   14 1
    11    3   15 1
    12    4    8 1
    13    4   16 1
    14    4   17 1
    15    4   18 1
    16    5    6 1
    17    5    7 1
    18    5   19 1
    19    6   20 1
    20    7   21 1
    21    7   22 1
    22    8   23 1
