@<TRIPOS>MOLECULE
*****
   49    52     0     0     0
SMALL
NO_CHARGES

@<TRIPOS>ATOM
      1 C1         -4.9905    4.6347   -0.2722 C.2       1 <0>         0.0000
      2 C2         -4.1635    2.8660   -1.6892 C.2       1 <0>         0.0000
      3 C3         -3.1253    0.2351    0.0456 C.2       1 <0>         0.0000
      4 C4         -4.5376   -0.3230   -3.6159 C.3       1 <0>         0.0000
      5 C5         -3.1476   -1.5601   -1.7922 C.3       1 <0>         0.0000
      6 C6         -5.0336    0.8200   -2.7251 C.3       1 <0>         0.0000
      7 C7         -3.2597    2.0725    1.6499 C.3       1 <0>         0.0000
      8 C8         -1.0986    1.6404    0.6187 C.3       1 <0>         0.0000
      9 C9         -2.6169    1.9521    3.0301 C.3       1 <0>         0.0000
     10 C10        -0.4768    1.5430    2.0127 C.3       1 <0>         0.0000
     11 C11        -2.7049    1.6443   -3.2135 C.3       1 <0>         0.0000
     12 C12        -2.2814   -0.6488   -0.9117 C.3       1 <0>         0.0000
     13 C13        -3.1729   -0.8819   -3.1852 C.3       1 <0>         0.0000
     14 C14        -2.1063    0.2431   -3.0847 C.3       1 <0>         0.0000
     15 C15        -5.7326    5.5722    0.6281 C.3       1 <0>         0.0000
     16 C16        -0.5919    2.3080    4.2982 C.3       1 <0>         0.0000
     17 N1         -3.7568    4.8015   -0.6445 N.2       1 <0>         0.0000
     18 N2         -3.2718    3.8076   -1.4573 N.2       1 <0>         0.0000
     19 N3         -3.9402    1.7556   -2.4414 N.pl3     1 <0>         0.0000
     20 N4         -2.5136    1.2698    0.6785 N.am      1 <0>         0.0000
     21 N5         -1.2111    2.3559    2.9804 N.3       1 <0>         0.0000
     22 O1         -4.3125   -0.0573    0.2555 O.2       1 <0>         0.0000
     23 O2         -1.4460    0.0796   -1.8210 O.3       1 <0>         0.0000
     24 S1         -5.7187    3.1564   -0.9072 S.3       1 <0>         0.0000
     25 H1         -5.2901   -1.1178   -3.6085 H         1 <0>         0.0000
     26 H2         -4.4646    0.0240   -4.6533 H         1 <0>         0.0000
     27 H3         -2.6797   -2.5446   -1.8650 H         1 <0>         0.0000
     28 H4         -4.1403   -1.6839   -1.3600 H         1 <0>         0.0000
     29 H5         -5.8645    1.3418   -3.2226 H         1 <0>         0.0000
     30 H6         -5.4007    0.4248   -1.7726 H         1 <0>         0.0000
     31 H7         -4.2898    1.7217    1.6665 H         1 <0>         0.0000
     32 H8         -3.2335    3.1183    1.3277 H         1 <0>         0.0000
     33 H9         -1.0352    2.6713    0.2514 H         1 <0>         0.0000
     34 H10        -0.5636    1.0056   -0.0806 H         1 <0>         0.0000
     35 H11        -3.1454    2.6086    3.7305 H         1 <0>         0.0000
     36 H12        -2.7301    0.9119    3.3945 H         1 <0>         0.0000
     37 H13        -0.4465    0.4773    2.3196 H         1 <0>         0.0000
     38 H14         0.5575    1.9021    1.9653 H         1 <0>         0.0000
     39 H15        -1.9995    2.3806   -2.8321 H         1 <0>         0.0000
     40 H16        -2.8902    1.8751   -4.2735 H         1 <0>         0.0000
     41 H17        -1.6059   -1.2357   -0.2783 H         1 <0>         0.0000
     42 H18        -2.8583   -1.6064   -3.9408 H         1 <0>         0.0000
     43 H19        -1.3278    0.1365   -3.8473 H         1 <0>         0.0000
     44 H20        -6.6297    5.9715    0.1429 H         1 <0>         0.0000
     45 H21        -6.0454    5.0753    1.5530 H         1 <0>         0.0000
     46 H22        -5.0704    6.4027    0.8817 H         1 <0>         0.0000
     47 H23        -1.1357    2.9647    4.9851 H         1 <0>         0.0000
     48 H24         0.4412    2.6650    4.2344 H         1 <0>         0.0000
     49 H25        -0.5783    1.2902    4.7336 H         1 <0>         0.0000
@<TRIPOS>BOND
     1    1   15 1
     2    1   17 2
     3    1   24 1
     4    2   18 2
     5    2   19 1
     6    2   24 1
     7    3   12 1
     8    3   20 am
     9    3   22 2
    10    4    6 1
    11    4   13 1
    12    4   25 1
    13    4   26 1
    14    5   12 1
    15    5   13 1
    16    5   27 1
    17    5   28 1
    18    6   19 1
    19    6   29 1
    20    6   30 1
    21    7    9 1
    22    7   20 1
    23    7   31 1
    24    7   32 1
    25    8   10 1
    26    8   20 1
    27    8   33 1
    28    8   34 1
    29    9   21 1
    30    9   35 1
    31    9   36 1
    32   10   21 1
    33   10   37 1
    34   10   38 1
    35   11   14 1
    36   11   19 1
    37   11   39 1
    38   11   40 1
    39   12   23 1
    40   12   41 1
    41   13   14 1
    42   13   42 1
    43   14   23 1
    44   14   43 1
    45   15   44 1
    46   15   45 1
    47   15   46 1
    48   16   21 1
    49   16   47 1
    50   16   48 1
    51   16   49 1
    52   17   18 1
