@<TRIPOS>MOLECULE
*****
   31    33     0     0     0
SMALL
NO_CHARGES

@<TRIPOS>ATOM
      1 C1         -5.6178    3.1589    0.2065 C.1       1 <0>         0.0000
      2 C2         -8.0966   -0.1479    2.5193 C.ar      1 <0>         0.0000
      3 C3         -9.3446    0.0660    3.0982 C.ar      1 <0>         0.0000
      4 C4         -8.4981    1.9710    4.3977 C.ar      1 <0>         0.0000
      5 C5         -5.0995    1.8261    3.0598 C.2       1 <0>         0.0000
      6 C6         -6.7325    3.6763    0.9249 C.2       1 <0>         0.0000
      7 C7         -7.2332    1.7640    3.8185 C.ar      1 <0>         0.0000
      8 C8         -5.9798    2.4747    3.9010 C.2       1 <0>         0.0000
      9 C9         -7.0507    0.7062    2.8841 C.ar      1 <0>         0.0000
     10 C10        -9.5241    1.1152    4.0236 C.ar      1 <0>         0.0000
     11 C11        -6.6897    4.4647    2.0435 C.2       1 <0>         0.0000
     12 C12        -8.7593    3.9353    1.5482 C.2       1 <0>         0.0000
     13 C13        -5.7029    3.7209    4.6400 C.2       1 <0>         0.0000
     14 C14       -10.2319    3.9251    1.7414 C.3       1 <0>         0.0000
     15 N1         -4.6958    2.7072   -0.3451 N.1       1 <0>         0.0000
     16 N2         -8.0563    3.3502    0.6234 N.2       1 <0>         0.0000
     17 N3         -5.5365    4.8961    4.1446 N.2       1 <0>         0.0000
     18 N4         -5.7346    0.7600    2.4589 N.pl3     1 <0>         0.0000
     19 N5         -5.6491    5.0657    2.7492 N.pl3     1 <0>         0.0000
     20 O1         -7.9989    4.6478    2.4435 O.3       1 <0>         0.0000
     21 Br1       -11.2789    1.3866    4.7656 Br        1 <0>         0.0000
     22 H1         -7.9552   -0.9457    1.7952 H         1 <0>         0.0000
     23 H2        -10.1834   -0.5693    2.8351 H         1 <0>         0.0000
     24 H3         -8.6691    2.7829    5.0971 H         1 <0>         0.0000
     25 H4         -4.0768    2.0745    2.8122 H         1 <0>         0.0000
     26 H5         -5.6088    3.6893    5.7259 H         1 <0>         0.0000
     27 H6        -10.4887    3.5486    2.7348 H         1 <0>         0.0000
     28 H7        -10.6434    4.9348    1.6428 H         1 <0>         0.0000
     29 H8        -10.6802    3.2778    0.9874 H         1 <0>         0.0000
     30 H9         -5.3341    0.2068    1.7133 H         1 <0>         0.0000
     31 H10        -5.5651    6.0593    2.5586 H         1 <0>         0.0000
@<TRIPOS>BOND
     1    1    6 1
     2    1   15 3
     3    2    3 ar
     4    2    9 ar
     5    2   22 1
     6    3   10 ar
     7    3   23 1
     8    4    7 ar
     9    4   10 ar
    10    4   24 1
    11    5    8 2
    12    5   18 1
    13    5   25 1
    14    6   11 2
    15    6   16 1
    16    7    8 1
    17    7    9 ar
    18    8   13 1
    19    9   18 1
    20   10   21 1
    21   11   19 1
    22   11   20 1
    23   12   14 1
    24   12   16 2
    25   12   20 1
    26   13   17 2
    27   13   26 1
    28   14   27 1
    29   14   28 1
    30   14   29 1
    31   17   19 1
    32   18   30 1
    33   19   31 1
