@<TRIPOS>MOLECULE
*****
   32    33     0     0     0
SMALL
NO_CHARGES

@<TRIPOS>ATOM
      1 C1         -2.7235   -1.6216    1.4744 C.1       1 <0>         0.0000
      2 C2          3.9578   -1.5910   -5.3954 C.ar      1 <0>         0.0000
      3 C3          3.6758   -2.9101   -5.7527 C.ar      1 <0>         0.0000
      4 C4          3.2471   -0.9761   -4.3625 C.ar      1 <0>         0.0000
      5 C5          1.9680   -3.0259   -4.0522 C.ar      1 <0>         0.0000
      6 C6         -1.6882   -0.9851    0.7197 C.2       1 <0>         0.0000
      7 C7          2.6752   -3.6427   -5.0837 C.ar      1 <0>         0.0000
      8 C8         -1.0212   -1.6516   -0.2950 C.2       1 <0>         0.0000
      9 C9          2.2499   -1.6954   -3.6892 C.ar      1 <0>         0.0000
     10 C10         0.0092   -0.9787   -1.0272 C.2       1 <0>         0.0000
     11 C11        -1.3813    0.3984    1.0825 C.2       1 <0>         0.0000
     12 C12         0.3232    0.3623   -0.6926 C.2       1 <0>         0.0000
     13 C13         2.3770   -5.0676   -5.4897 C.3       1 <0>         0.0000
     14 C14        -1.3470   -3.0744   -0.6573 C.3       1 <0>         0.0000
     15 N1         -3.5638   -2.1643    2.0729 N.1       1 <0>         0.0000
     16 N2          1.5740   -1.0126   -2.6571 N.2       1 <0>         0.0000
     17 N3          0.6606   -1.6586   -2.0322 N.2       1 <0>         0.0000
     18 N4         -0.3477    0.9791    0.3019 N.am      1 <0>         0.0000
     19 O1         -1.9135    1.0648    1.9584 O.2       1 <0>         0.0000
     20 O2          1.2507    1.0526   -1.3098 O.3       1 <0>         0.0000
     21 H1          4.7328   -1.0396   -5.9207 H         1 <0>         0.0000
     22 H2          4.2346   -3.3820   -6.5578 H         1 <0>         0.0000
     23 H3          3.4554    0.0500   -4.0719 H         1 <0>         0.0000
     24 H4          1.1923   -3.5622   -3.5159 H         1 <0>         0.0000
     25 H5          3.2832   -5.6822   -5.4659 H         1 <0>         0.0000
     26 H6          1.6397   -5.5273   -4.8267 H         1 <0>         0.0000
     27 H7          1.9824   -5.1092   -6.5112 H         1 <0>         0.0000
     28 H8         -1.6486   -3.1348   -1.7071 H         1 <0>         0.0000
     29 H9         -2.1448   -3.4734   -0.0317 H         1 <0>         0.0000
     30 H10        -0.4576   -3.7021   -0.5499 H         1 <0>         0.0000
     31 H11        -0.1072    1.9422    0.5270 H         1 <0>         0.0000
     32 H12         1.6311    0.3817   -2.0311 H         1 <0>         0.0000
@<TRIPOS>BOND
     1    1    6 1
     2    1   15 3
     3    2    3 ar
     4    2    4 ar
     5    2   21 1
     6    3    7 ar
     7    3   22 1
     8    4    9 ar
     9    4   23 1
    10    5    7 ar
    11    5    9 ar
    12    5   24 1
    13    6    8 2
    14    6   11 1
    15    7   13 1
    16    8   10 1
    17    8   14 1
    18    9   16 1
    19   10   12 2
    20   10   17 1
    21   11   18 am
    22   11   19 2
    23   12   18 1
    24   12   20 1
    25   13   25 1
    26   13   26 1
    27   13   27 1
    28   14   28 1
    29   14   29 1
    30   14   30 1
    31   16   17 2
    32   18   31 1
    33   20   32 1
