@<TRIPOS>MOLECULE
*****
   49    52     0     0     0
SMALL
NO_CHARGES

@<TRIPOS>ATOM
      1 C1          2.6934   -5.2160   -3.9899 C.2       1 <0>         0.0000
      2 C2          1.7197   -3.0135   -3.8044 C.2       1 <0>         0.0000
      3 C3         -3.2143   -0.3552   -1.4052 C.2       1 <0>         0.0000
      4 C4          0.8308    0.5337   -3.2400 C.3       1 <0>         0.0000
      5 C5         -1.6284    1.1472   -2.7030 C.3       1 <0>         0.0000
      6 C6          1.6244   -0.5951   -3.8960 C.3       1 <0>         0.0000
      7 C7         -4.2853   -0.0571    0.7760 C.3       1 <0>         0.0000
      8 C8         -4.4152    1.7861   -0.8097 C.3       1 <0>         0.0000
      9 C9         -3.5994    0.8715    1.7772 C.3       1 <0>         0.0000
     10 C10        -3.7290    2.6961    0.2128 C.3       1 <0>         0.0000
     11 C11        -0.4167   -1.9111   -3.1860 C.3       1 <0>         0.0000
     12 C12        -2.8736    0.2242   -2.7926 C.3       1 <0>         0.0000
     13 C13        -0.6292    0.5676   -3.7276 C.3       1 <0>         0.0000
     14 C14        -1.1695   -0.8513   -3.9985 C.3       1 <0>         0.0000
     15 C15         3.0448   -6.6711   -4.0102 C.3       1 <0>         0.0000
     16 C16        -3.4412    3.1525    2.5645 C.3       1 <0>         0.0000
     17 N1          3.4777   -4.2663   -4.3953 N.2       1 <0>         0.0000
     18 N2          2.9402   -3.0048   -4.2991 N.2       1 <0>         0.0000
     19 N3          0.9909   -1.8873   -3.5934 N.pl3     1 <0>         0.0000
     20 N4         -4.0270    0.3937   -0.5933 N.am      1 <0>         0.0000
     21 N5         -4.0283    2.2576    1.5737 N.3       1 <0>         0.0000
     22 O1         -2.7471   -1.4384   -1.0529 O.2       1 <0>         0.0000
     23 O2         -2.5626   -0.8233   -3.7023 O.3       1 <0>         0.0000
     24 S1          1.1273   -4.6315   -3.4035 S.3       1 <0>         0.0000
     25 H1          0.8563    0.3904   -2.1539 H         1 <0>         0.0000
     26 H2          1.3297    1.4863   -3.4433 H         1 <0>         0.0000
     27 H3         -1.8816    2.1881   -2.9190 H         1 <0>         0.0000
     28 H4         -1.2029    1.1187   -1.6959 H         1 <0>         0.0000
     29 H5          1.6896   -0.4515   -4.9838 H         1 <0>         0.0000
     30 H6          2.6511   -0.6201   -3.5227 H         1 <0>         0.0000
     31 H7         -3.9169   -1.0772    0.8736 H         1 <0>         0.0000
     32 H8         -5.3684   -0.0453    0.9472 H         1 <0>         0.0000
     33 H9         -5.5026    1.8698   -0.6911 H         1 <0>         0.0000
     34 H10        -4.1619    2.1111   -1.8170 H         1 <0>         0.0000
     35 H11        -3.8673    0.5678    2.7948 H         1 <0>         0.0000
     36 H12        -2.5021    0.7656    1.6738 H         1 <0>         0.0000
     37 H13        -2.6382    2.7017    0.0148 H         1 <0>         0.0000
     38 H14        -4.0944    3.7211    0.0836 H         1 <0>         0.0000
     39 H15        -0.5408   -1.7395   -2.1119 H         1 <0>         0.0000
     40 H16        -0.8501   -2.8886   -3.4062 H         1 <0>         0.0000
     41 H17        -3.7388    0.7434   -3.2141 H         1 <0>         0.0000
     42 H18        -0.6904    1.1397   -4.6590 H         1 <0>         0.0000
     43 H19        -1.0804   -1.1141   -5.0577 H         1 <0>         0.0000
     44 H20         3.0112   -7.1065   -3.0057 H         1 <0>         0.0000
     45 H21         2.3578   -7.2406   -4.6454 H         1 <0>         0.0000
     46 H22         4.0575   -6.7751   -4.4056 H         1 <0>         0.0000
     47 H23        -3.7261    2.8258    3.5694 H         1 <0>         0.0000
     48 H24        -3.8224    4.1681    2.4171 H         1 <0>         0.0000
     49 H25        -2.3366    3.1873    2.5139 H         1 <0>         0.0000
@<TRIPOS>BOND
     1    1   15 1
     2    1   17 2
     3    1   24 1
     4    2   18 2
     5    2   19 1
     6    2   24 1
     7    3   12 1
     8    3   20 am
     9    3   22 2
    10    4    6 1
    11    4   13 1
    12    4   25 1
    13    4   26 1
    14    5   12 1
    15    5   13 1
    16    5   27 1
    17    5   28 1
    18    6   19 1
    19    6   29 1
    20    6   30 1
    21    7    9 1
    22    7   20 1
    23    7   31 1
    24    7   32 1
    25    8   10 1
    26    8   20 1
    27    8   33 1
    28    8   34 1
    29    9   21 1
    30    9   35 1
    31    9   36 1
    32   10   21 1
    33   10   37 1
    34   10   38 1
    35   11   14 1
    36   11   19 1
    37   11   39 1
    38   11   40 1
    39   12   23 1
    40   12   41 1
    41   13   14 1
    42   13   42 1
    43   14   23 1
    44   14   43 1
    45   15   44 1
    46   15   45 1
    47   15   46 1
    48   16   21 1
    49   16   47 1
    50   16   48 1
    51   16   49 1
    52   17   18 1
