@<TRIPOS>MOLECULE
*****
   15    15     0     0     0
SMALL
NO_CHARGES

@<TRIPOS>ATOM
      1 C1         -0.3481    0.7488   -2.1181 C.2       1 <0>         0.0000
      2 C2         -1.2568    0.5504   -3.1191 C.2       1 <0>         0.0000
      3 C3         -0.3751   -0.3157   -1.1664 C.2       1 <0>         0.0000
      4 C4         -1.3050   -1.3174   -1.4562 C.2       1 <0>         0.0000
      5 C5         -1.7934   -2.6366   -0.9037 C.2       1 <0>         0.0000
      6 N1         -1.2507   -3.1196    0.2343 N.am      1 <0>         0.0000
      7 N2          0.5411   -0.2398   -0.0368 N.pl3     1 <0>         0.0000
      8 O1          1.3376    0.7014   -0.0230 O.3       1 <0>         0.0000
      9 O2         -2.6757   -3.2254   -1.5348 O.2       1 <0>         0.0000
     10 O3          0.4918   -1.0977    0.8619 O.2       1 <0>         0.0000
     11 S1         -2.1404   -0.9173   -2.9224 S.3       1 <0>         0.0000
     12 H1          0.3164    1.5984   -2.0349 H         1 <0>         0.0000
     13 H2         -1.4526    1.1958   -3.9663 H         1 <0>         0.0000
     14 H3         -1.6181   -3.9979    0.5775 H         1 <0>         0.0000
     15 H4         -0.5577   -2.5934    0.7548 H         1 <0>         0.0000
@<TRIPOS>BOND
     1    1    2 2
     2    1    3 1
     3    1   12 1
     4    2   11 1
     5    2   13 1
     6    3    4 2
     7    3    7 1
     8    4    5 1
     9    4   11 1
    10    5    6 am
    11    5    9 2
    12    6   14 1
    13    6   15 1
    14    7    8 1
    15    7   10 2
