@<TRIPOS>MOLECULE
*****
   49    52     0     0     0
SMALL
NO_CHARGES

@<TRIPOS>ATOM
      1 C1         -0.4864    5.4056    1.3019 C.2       1 <0>         0.0000
      2 C2         -0.7960    3.7638   -0.4413 C.2       1 <0>         0.0000
      3 C3         -3.0461   -0.8893    0.2475 C.2       1 <0>         0.0000
      4 C4         -2.8741    1.8466   -2.8609 C.3       1 <0>         0.0000
      5 C5         -2.8605   -0.6867   -2.2892 C.3       1 <0>         0.0000
      6 C6         -2.6476    2.5797   -1.5378 C.3       1 <0>         0.0000
      7 C7         -4.6494   -2.0248    1.7040 C.3       1 <0>         0.0000
      8 C8         -3.7099   -3.2956   -0.1461 C.3       1 <0>         0.0000
      9 C9         -6.0487   -2.2525    1.1338 C.3       1 <0>         0.0000
     10 C10        -5.1224   -3.5123   -0.6965 C.3       1 <0>         0.0000
     11 C11        -0.2338    1.9728   -1.9726 C.3       1 <0>         0.0000
     12 C12        -2.0970   -0.9529   -0.9591 C.3       1 <0>         0.0000
     13 C13        -2.1186    0.5049   -2.9390 C.3       1 <0>         0.0000
     14 C14        -0.8045    0.5719   -2.1314 C.3       1 <0>         0.0000
     15 C15        -0.5752    6.4294    2.3906 C.3       1 <0>         0.0000
     16 C16        -7.4467   -3.7848   -0.1091 C.3       1 <0>         0.0000
     17 N1          0.6257    4.9742    0.7913 N.2       1 <0>         0.0000
     18 N2          0.4688    4.0420   -0.2048 N.2       1 <0>         0.0000
     19 N3         -1.2210    2.8839   -1.3869 N.pl3     1 <0>         0.0000
     20 N4         -3.6511   -2.0598    0.6326 N.am      1 <0>         0.0000
     21 N5         -6.1027   -3.5117    0.3865 N.3       1 <0>         0.0000
     22 O1         -3.2619    0.1814    0.8136 O.2       1 <0>         0.0000
     23 O2         -1.1299    0.0745   -0.8305 O.3       1 <0>         0.0000
     24 S1         -1.9221    4.6598    0.5851 S.3       1 <0>         0.0000
     25 H1         -3.9479    1.6880   -3.0034 H         1 <0>         0.0000
     26 H2         -2.5394    2.4981   -3.6765 H         1 <0>         0.0000
     27 H3         -2.8347   -1.5710   -2.9320 H         1 <0>         0.0000
     28 H4         -3.9112   -0.4477   -2.1058 H         1 <0>         0.0000
     29 H5         -3.2024    3.5244   -1.5582 H         1 <0>         0.0000
     30 H6         -3.0042    1.9858   -0.6872 H         1 <0>         0.0000
     31 H7         -4.5833   -1.0578    2.2003 H         1 <0>         0.0000
     32 H8         -4.4125   -2.8183    2.4225 H         1 <0>         0.0000
     33 H9         -3.4470   -4.1353    0.5087 H         1 <0>         0.0000
     34 H10        -2.9964   -3.2751   -0.9677 H         1 <0>         0.0000
     35 H11        -6.7712   -2.3018    1.9554 H         1 <0>         0.0000
     36 H12        -6.3233   -1.3891    0.4973 H         1 <0>         0.0000
     37 H13        -5.3404   -2.7255   -1.4468 H         1 <0>         0.0000
     38 H14        -5.1636   -4.4798   -1.2095 H         1 <0>         0.0000
     39 H15         0.6389    1.9489   -1.3185 H         1 <0>         0.0000
     40 H16         0.1027    2.3365   -2.9534 H         1 <0>         0.0000
     41 H17        -1.5757   -1.9171   -0.9981 H         1 <0>         0.0000
     42 H18        -1.9025    0.2838   -3.9883 H         1 <0>         0.0000
     43 H19        -0.0361   -0.0664   -2.5952 H         1 <0>         0.0000
     44 H20        -1.1312    7.3154    2.0649 H         1 <0>         0.0000
     45 H21        -1.0744    6.0280    3.2792 H         1 <0>         0.0000
     46 H22         0.4385    6.7309    2.6628 H         1 <0>         0.0000
     47 H23        -8.1466   -3.8277    0.7312 H         1 <0>         0.0000
     48 H24        -7.4641   -4.7554   -0.6152 H         1 <0>         0.0000
     49 H25        -7.8087   -3.0180   -0.8199 H         1 <0>         0.0000
@<TRIPOS>BOND
     1    1   15 1
     2    1   17 2
     3    1   24 1
     4    2   18 2
     5    2   19 1
     6    2   24 1
     7    3   12 1
     8    3   20 am
     9    3   22 2
    10    4    6 1
    11    4   13 1
    12    4   25 1
    13    4   26 1
    14    5   12 1
    15    5   13 1
    16    5   27 1
    17    5   28 1
    18    6   19 1
    19    6   29 1
    20    6   30 1
    21    7    9 1
    22    7   20 1
    23    7   31 1
    24    7   32 1
    25    8   10 1
    26    8   20 1
    27    8   33 1
    28    8   34 1
    29    9   21 1
    30    9   35 1
    31    9   36 1
    32   10   21 1
    33   10   37 1
    34   10   38 1
    35   11   14 1
    36   11   19 1
    37   11   39 1
    38   11   40 1
    39   12   23 1
    40   12   41 1
    41   13   14 1
    42   13   42 1
    43   14   23 1
    44   14   43 1
    45   15   44 1
    46   15   45 1
    47   15   46 1
    48   16   21 1
    49   16   47 1
    50   16   48 1
    51   16   49 1
    52   17   18 1
