@<TRIPOS>MOLECULE
*****
   31    33     0     0     0
SMALL
NO_CHARGES

@<TRIPOS>ATOM
      1 C1         -6.3159    2.0166    0.5309 C.1       1 <0>         0.0000
      2 C2         -1.7768    0.6778    0.6206 C.ar      1 <0>         0.0000
      3 C3         -0.7070    1.5451    0.8255 C.ar      1 <0>         0.0000
      4 C4         -1.6904    2.3832    2.9147 C.ar      1 <0>         0.0000
      5 C5         -4.7144    0.3389    2.7245 C.2       1 <0>         0.0000
      6 C6         -5.4278    3.0223    1.0067 C.2       1 <0>         0.0000
      7 C7         -2.7760    1.5111    2.7171 C.ar      1 <0>         0.0000
      8 C8         -4.0126    1.2950    3.4293 C.2       1 <0>         0.0000
      9 C9         -2.8046    0.6701    1.5694 C.ar      1 <0>         0.0000
     10 C10        -0.6805    2.3782    1.9633 C.ar      1 <0>         0.0000
     11 C11        -5.3420    3.4977    2.2878 C.2       1 <0>         0.0000
     12 C12        -3.7853    4.3881    1.0257 C.2       1 <0>         0.0000
     13 C13        -4.5048    2.0249    4.6129 C.2       1 <0>         0.0000
     14 C14        -2.6135    5.2544    0.7388 C.3       1 <0>         0.0000
     15 N1         -7.0203    1.1622    0.1672 N.1       1 <0>         0.0000
     16 N2         -4.4312    3.5997    0.2176 N.2       1 <0>         0.0000
     17 N3         -5.4423    2.9048    4.6483 N.2       1 <0>         0.0000
     18 N4         -3.9888   -0.0447    1.6167 N.pl3     1 <0>         0.0000
     19 N5         -6.0829    3.2645    3.4449 N.pl3     1 <0>         0.0000
     20 O1         -4.2903    4.3927    2.3034 O.3       1 <0>         0.0000
     21 Br1         0.8055    3.5821    2.1778 Br        1 <0>         0.0000
     22 H1         -1.8098    0.0436   -0.2611 H         1 <0>         0.0000
     23 H2          0.1055    1.5868    0.1084 H         1 <0>         0.0000
     24 H3         -1.6542    3.0494    3.7705 H         1 <0>         0.0000
     25 H4         -5.7007   -0.0638    2.9088 H         1 <0>         0.0000
     26 H5         -4.0637    1.8204    5.5889 H         1 <0>         0.0000
     27 H6         -2.8777    6.3118    0.8437 H         1 <0>         0.0000
     28 H7         -1.7943    5.0379    1.4289 H         1 <0>         0.0000
     29 H8         -2.2800    5.0669   -0.2820 H         1 <0>         0.0000
     30 H9         -4.3425   -0.6470    0.8857 H         1 <0>         0.0000
     31 H10        -6.7269    4.0190    3.6600 H         1 <0>         0.0000
@<TRIPOS>BOND
     1    1    6 1
     2    1   15 3
     3    2    3 ar
     4    2    9 ar
     5    2   22 1
     6    3   10 ar
     7    3   23 1
     8    4    7 ar
     9    4   10 ar
    10    4   24 1
    11    5    8 2
    12    5   18 1
    13    5   25 1
    14    6   11 2
    15    6   16 1
    16    7    8 1
    17    7    9 ar
    18    8   13 1
    19    9   18 1
    20   10   21 1
    21   11   19 1
    22   11   20 1
    23   12   14 1
    24   12   16 2
    25   12   20 1
    26   13   17 2
    27   13   26 1
    28   14   27 1
    29   14   28 1
    30   14   29 1
    31   17   19 1
    32   18   30 1
    33   19   31 1
