@<TRIPOS>MOLECULE
*****
   25    26     0     0     0
SMALL
NO_CHARGES

@<TRIPOS>ATOM
      1 C1         -2.1882   -1.4832   -2.2456 C.ar      1 <0>         0.0000
      2 C2         -2.9878   -1.8998   -1.1801 C.ar      1 <0>         0.0000
      3 C3         -3.8212    0.3648   -0.9504 C.ar      1 <0>         0.0000
      4 C4         -2.1759   -0.1527   -2.6836 C.ar      1 <0>         0.0000
      5 C5         -3.0297    0.7452   -2.0261 C.ar      1 <0>         0.0000
      6 C6         -3.7933   -0.9655   -0.5294 C.ar      1 <0>         0.0000
      7 C7          0.6940    0.4763   -0.8094 C.3       1 <0>         0.0000
      8 C8          1.2863   -0.4008   -1.9114 C.3       1 <0>         0.0000
      9 C9          0.4568    1.5239   -2.8623 C.3       1 <0>         0.0000
     10 C10        -0.6856    1.3820   -3.8666 C.3       1 <0>         0.0000
     11 O1         -0.0552    1.4579   -1.5367 O.3       1 <0>         0.0000
     12 O2          1.4504    0.5192   -2.9969 O.3       1 <0>         0.0000
     13 O3         -1.3877    0.1335   -3.7656 O.3       1 <0>         0.0000
     14 F1         -3.1011    2.0378   -2.4345 F         1 <0>         0.0000
     15 Cl1        -4.7921   -1.4604    0.8268 Cl        1 <0>         0.0000
     16 H1         -1.5546   -2.1932   -2.7683 H         1 <0>         0.0000
     17 H2         -2.9797   -2.9360   -0.8588 H         1 <0>         0.0000
     18 H3         -4.4512    1.1046   -0.4682 H         1 <0>         0.0000
     19 H4          0.0051   -0.0584   -0.1509 H         1 <0>         0.0000
     20 H5          1.4740    0.9670   -0.2139 H         1 <0>         0.0000
     21 H6          2.2676   -0.8113   -1.6631 H         1 <0>         0.0000
     22 H7          0.6068   -1.2116   -2.1942 H         1 <0>         0.0000
     23 H8          0.9473    2.4939   -3.0346 H         1 <0>         0.0000
     24 H9         -0.2618    1.3766   -4.8730 H         1 <0>         0.0000
     25 H10        -1.3613    2.2331   -3.7661 H         1 <0>         0.0000
@<TRIPOS>BOND
     1    1    2 ar
     2    1    4 ar
     3    1   16 1
     4    2    6 ar
     5    2   17 1
     6    3    5 ar
     7    3    6 ar
     8    3   18 1
     9    4    5 ar
    10    4   13 1
    11    5   14 1
    12    6   15 1
    13    7    8 1
    14    7   11 1
    15    7   19 1
    16    7   20 1
    17    8   12 1
    18    8   21 1
    19    8   22 1
    20    9   10 1
    21    9   12 1
    22    9   11 1
    23    9   23 1
    24   10   13 1
    25   10   24 1
    26   10   25 1
