@<TRIPOS>MOLECULE
*****
   66    70     0     0     0
SMALL
NO_CHARGES

@<TRIPOS>ATOM
      1 C1          1.5791   -1.2278  -11.9293 C.ar      1 <0>         0.0000
      2 C2         -0.9046   -0.4864   -5.6376 C.ar      1 <0>         0.0000
      3 C3          0.9206   -0.3171  -11.1035 C.ar      1 <0>         0.0000
      4 C4         -0.7163   -0.8964   -4.3180 C.ar      1 <0>         0.0000
      5 C5          1.3987    0.2180   -5.7751 C.ar      1 <0>         0.0000
      6 C6          0.8533   -2.2984  -12.4646 C.ar      1 <0>         0.0000
      7 C7         -1.0720   -1.6071  -11.4432 C.ar      1 <0>         0.0000
      8 C8          0.1485    0.0617   -6.3829 C.ar      1 <0>         0.0000
      9 C9         -0.4442   -0.5062  -10.8459 C.ar      1 <0>         0.0000
     10 C10         0.5415   -0.7726   -3.7156 C.ar      1 <0>         0.0000
     11 C11         1.5892   -0.2024   -4.4661 C.ar      1 <0>         0.0000
     12 C12         1.7951   -0.6547   -1.6338 C.2       1 <0>         0.0000
     13 C13         0.0206    0.5535   -7.7993 C.2       1 <0>         0.0000
     14 C14         4.0105   -0.4239   -4.3018 C.2       1 <0>         0.0000
     15 C15         2.6394    0.3786   -2.3800 C.3       1 <0>         0.0000
     16 C16         7.4368   -5.1711   -4.1229 C.3       1 <0>         0.0000
     17 C17         8.5606   -4.1279   -4.0920 C.3       1 <0>         0.0000
     18 C18         6.2315   -4.7155   -3.2912 C.3       1 <0>         0.0000
     19 C19         0.4335   -3.4286   -1.1863 C.3       1 <0>         0.0000
     20 C20        -0.4215   -3.4645   -2.4284 C.3       1 <0>         0.0000
     21 C21         8.0556   -2.7476   -4.5456 C.3       1 <0>         0.0000
     22 C22         5.7171   -3.3397   -3.7495 C.3       1 <0>         0.0000
     23 C23        -0.1244   -2.1469   -1.7481 C.3       1 <0>         0.0000
     24 C24         6.8558   -2.3193   -3.6990 C.3       1 <0>         0.0000
     25 C25        -1.2155    0.4221   -9.9328 C.3       1 <0>         0.0000
     26 C26         5.2749   -0.3074   -3.4178 C.3       1 <0>         0.0000
     27 N1         -0.4514   -2.4944  -12.2322 N.ar      1 <0>         0.0000
     28 N2          0.7881   -1.2215   -2.3938 N.am      1 <0>         0.0000
     29 N3          2.8337   -0.0355   -3.7714 N.am      1 <0>         0.0000
     30 N4         -1.0500    0.0916   -8.5106 N.am      1 <0>         0.0000
     31 N5          6.3761   -0.9578   -4.1995 N.4       1 <0>         0.0000
     32 O1          2.0195   -0.9271   -0.4651 O.2       1 <0>         0.0000
     33 O2          0.8431    1.3462   -8.2638 O.2       1 <0>         0.0000
     34 O3          4.1640   -0.8527   -5.4514 O.2       1 <0>         0.0000
     35 H1          2.6337   -1.1129  -12.1638 H         1 <0>         0.0000
     36 H2         -1.9011   -0.5639   -6.0621 H         1 <0>         0.0000
     37 H3          1.4436    0.5252  -10.6591 H         1 <0>         0.0000
     38 H4         -1.5449   -1.3079   -3.7547 H         1 <0>         0.0000
     39 H5          2.2022    0.6712   -6.3428 H         1 <0>         0.0000
     40 H6          1.3396   -3.0262  -13.1124 H         1 <0>         0.0000
     41 H7         -2.1377   -1.7790  -11.2828 H         1 <0>         0.0000
     42 H8          2.1262    1.3467   -2.3704 H         1 <0>         0.0000
     43 H9          3.5765    0.4918   -1.8420 H         1 <0>         0.0000
     44 H10         7.8083   -6.1291   -3.7473 H         1 <0>         0.0000
     45 H11         7.1223   -5.3406   -5.1607 H         1 <0>         0.0000
     46 H12         8.9656   -4.0486   -3.0752 H         1 <0>         0.0000
     47 H13         9.3899   -4.4327   -4.7365 H         1 <0>         0.0000
     48 H14         5.4157   -5.4403   -3.3662 H         1 <0>         0.0000
     49 H15         6.5102   -4.6655   -2.2309 H         1 <0>         0.0000
     50 H16         0.0197   -3.7741   -0.2451 H         1 <0>         0.0000
     51 H17         1.4990   -3.5943   -1.2995 H         1 <0>         0.0000
     52 H18         0.0704   -3.6565   -3.3769 H         1 <0>         0.0000
     53 H19        -1.4368   -3.8422   -2.3595 H         1 <0>         0.0000
     54 H20         8.8617   -2.0067   -4.4693 H         1 <0>         0.0000
     55 H21         7.7530   -2.7982   -5.6000 H         1 <0>         0.0000
     56 H22         5.3379   -3.4067   -4.7760 H         1 <0>         0.0000
     57 H23         4.8794   -3.0275   -3.1161 H         1 <0>         0.0000
     58 H24        -0.9223   -1.6619   -1.1917 H         1 <0>         0.0000
     59 H25         7.1707   -2.1523   -2.6633 H         1 <0>         0.0000
     60 H26        -0.8844    1.4535  -10.0596 H         1 <0>         0.0000
     61 H27        -2.2845    0.3787  -10.1583 H         1 <0>         0.0000
     62 H28         5.1752   -0.8138   -2.4588 H         1 <0>         0.0000
     63 H29         5.5316    0.7386   -3.2385 H         1 <0>         0.0000
     64 H30        -1.5163   -0.7444   -8.1826 H         1 <0>         0.0000
     65 H31         7.1821   -0.3317   -4.2831 H         1 <0>         0.0000
     66 H32         5.9534   -1.0746   -5.1519 H         1 <0>         0.0000
@<TRIPOS>BOND
     1    1    3 ar
     2    1    6 ar
     3    1   35 1
     4    2    4 ar
     5    2    8 ar
     6    2   36 1
     7    3    9 ar
     8    3   37 1
     9    4   10 ar
    10    4   38 1
    11    5    8 ar
    12    5   11 ar
    13    5   39 1
    14    6   27 ar
    15    6   40 1
    16    7    9 ar
    17    7   27 ar
    18    7   41 1
    19    8   13 1
    20    9   25 1
    21   10   11 ar
    22   10   28 1
    23   11   29 1
    24   12   15 1
    25   12   28 am
    26   12   32 2
    27   13   30 am
    28   13   33 2
    29   14   26 1
    30   14   29 am
    31   14   34 2
    32   15   29 1
    33   15   42 1
    34   15   43 1
    35   16   18 1
    36   16   17 1
    37   16   44 1
    38   16   45 1
    39   17   21 1
    40   17   46 1
    41   17   47 1
    42   18   22 1
    43   18   48 1
    44   18   49 1
    45   19   20 1
    46   19   23 1
    47   19   50 1
    48   19   51 1
    49   20   23 1
    50   20   52 1
    51   20   53 1
    52   21   24 1
    53   21   54 1
    54   21   55 1
    55   22   24 1
    56   22   56 1
    57   22   57 1
    58   23   28 1
    59   23   58 1
    60   24   31 1
    61   24   59 1
    62   25   30 1
    63   25   60 1
    64   25   61 1
    65   26   31 1
    66   26   62 1
    67   26   63 1
    68   30   64 1
    69   31   65 1
    70   31   66 1
