@<TRIPOS>MOLECULE
*****
   17    17     0     0     0
SMALL
NO_CHARGES

@<TRIPOS>ATOM
      1 C1          5.8890    0.1230   -0.8200 C.2       1 <0>         0.0000
      2 C2          4.7220   -0.6640   -1.0260 C.2       1 <0>         0.0000
      3 C3          5.8850    1.0970    0.1360 C.2       1 <0>         0.0000
      4 C4          3.5870   -0.4540   -0.2700 C.2       1 <0>         0.0000
      5 C5          4.7200    1.3350    0.9320 C.2       1 <0>         0.0000
      6 C6          2.3290   -1.1920   -0.3830 C.2       1 <0>         0.0000
      7 C7          2.1570   -2.3080   -1.3880 C.3       1 <0>         0.0000
      8 N1          3.6260    0.5540    0.6970 N.am      1 <0>         0.0000
      9 O1          4.6090    2.1820    1.8160 O.2       1 <0>         0.0000
     10 O2          1.3880   -0.9250    0.3340 O.2       1 <0>         0.0000
     11 H1          6.7530   -0.0530   -1.4100 H         1 <0>         0.0000
     12 H2          4.7440   -1.4160   -1.7730 H         1 <0>         0.0000
     13 H3          6.7340    1.7020    0.3180 H         1 <0>         0.0000
     14 H4          2.8950   -3.0610   -1.1550 H         1 <0>         0.0000
     15 H5          2.3150   -1.8800   -2.3670 H         1 <0>         0.0000
     16 H6          1.1520   -2.6910   -1.2800 H         1 <0>         0.0000
     17 H7          2.7900    0.7320    1.2770 H         1 <0>         0.0000
@<TRIPOS>BOND
     1    1    2 1
     2    1    3 2
     3    1   11 1
     4    2    4 2
     5    2   12 1
     6    3    5 1
     7    3   13 1
     8    4    6 1
     9    4    8 1
    10    5    8 am
    11    5    9 2
    12    6    7 1
    13    6   10 2
    14    7   14 1
    15    7   15 1
    16    7   16 1
    17    8   17 1
