@<TRIPOS>MOLECULE
*****
   50    51     0     0     0
SMALL
NO_CHARGES

@<TRIPOS>ATOM
      1 C1          4.9359   -0.7674    3.2188 C.ar      1 <0>         0.0000
      2 C2          6.3227   -2.7236    2.9241 C.ar      1 <0>         0.0000
      3 C3          4.3171   -1.3709    4.3135 C.ar      1 <0>         0.0000
      4 C4          5.7039   -3.3272    4.0188 C.ar      1 <0>         0.0000
      5 C5          5.9387   -1.4437    2.5240 C.ar      1 <0>         0.0000
      6 C6          4.7011   -2.6508    4.7135 C.ar      1 <0>         0.0000
      7 C7          4.0277   -3.0071   -3.2145 C.2       1 <0>         0.0000
      8 C8          5.7593   -1.8287   -0.7516 C.2       1 <0>         0.0000
      9 C9          3.4640   -2.4243   -1.9062 C.3       1 <0>         0.0000
     10 C10         4.7805   -1.6232   -1.9101 C.3       1 <0>         0.0000
     11 C11         1.8270   -1.4176    0.4915 C.3       1 <0>         0.0000
     12 C12         0.9826   -2.5867   -2.1883 C.3       1 <0>         0.0000
     13 C13         2.5049   -3.4491    5.6543 C.3       1 <0>         0.0000
     14 C14         4.2382   -2.4497    7.1817 C.3       1 <0>         0.0000
     15 C15         4.5539   -4.7294    6.2411 C.3       1 <0>         0.0000
     16 C16         6.6053   -0.7948    1.3456 C.3       1 <0>         0.0000
     17 C17         1.9289   -0.6897   -0.8413 C.3       1 <0>         0.0000
     18 C18         2.1655   -1.6272   -2.0382 C.3       1 <0>         0.0000
     19 C19         4.0402   -3.2948    5.8852 C.3       1 <0>         0.0000
     20 N1          5.7592   -0.8024    0.1738 N.am      1 <0>         0.0000
     21 O1          3.6724   -3.7875   -4.0688 O.2       1 <0>         0.0000
     22 O2          6.4487   -2.8412   -0.7153 O.2       1 <0>         0.0000
     23 O3          5.1911   -2.3105   -3.1326 O.3       1 <0>         0.0000
     24 H1          4.6299    0.2299    2.9138 H         1 <0>         0.0000
     25 H2          7.1040   -3.2572    2.3891 H         1 <0>         0.0000
     26 H3          3.5379   -0.8360    4.8498 H         1 <0>         0.0000
     27 H4          6.0090   -4.3248    4.3237 H         1 <0>         0.0000
     28 H5          3.4035   -3.1811   -1.1149 H         1 <0>         0.0000
     29 H6          4.6463   -0.5539   -2.1200 H         1 <0>         0.0000
     30 H7          2.7305   -2.0116    0.6639 H         1 <0>         0.0000
     31 H8          0.9682   -2.0962    0.5047 H         1 <0>         0.0000
     32 H9          1.7295   -0.7171    1.3257 H         1 <0>         0.0000
     33 H10         0.8700   -3.2208   -1.3023 H         1 <0>         0.0000
     34 H11         1.1182   -3.2392   -3.0573 H         1 <0>         0.0000
     35 H12         0.0481   -2.0336   -2.3306 H         1 <0>         0.0000
     36 H13         1.9942   -3.9206    6.5021 H         1 <0>         0.0000
     37 H14         2.0241   -2.4784    5.4909 H         1 <0>         0.0000
     38 H15         2.3148   -4.0639    4.7665 H         1 <0>         0.0000
     39 H16         3.7541   -2.9195    8.0448 H         1 <0>         0.0000
     40 H17         5.2946   -2.3141    7.4418 H         1 <0>         0.0000
     41 H18         3.7949   -1.4547    7.0572 H         1 <0>         0.0000
     42 H19         4.0383   -5.1599    7.1081 H         1 <0>         0.0000
     43 H20         4.4011   -5.4178    5.4017 H         1 <0>         0.0000
     44 H21         5.6239   -4.7126    6.4788 H         1 <0>         0.0000
     45 H22         6.8597    0.2466    1.5711 H         1 <0>         0.0000
     46 H23         7.5373   -1.3091    1.0889 H         1 <0>         0.0000
     47 H24         1.0172   -0.1004   -0.9981 H         1 <0>         0.0000
     48 H25         2.7587    0.0252   -0.7765 H         1 <0>         0.0000
     49 H26         2.2257   -1.0226   -2.9521 H         1 <0>         0.0000
     50 H27         5.1348   -0.0158    0.0232 H         1 <0>         0.0000
@<TRIPOS>BOND
     1    1    3 ar
     2    1    5 ar
     3    1   24 1
     4    2    4 ar
     5    2    5 ar
     6    2   25 1
     7    3    6 ar
     8    3   26 1
     9    4    6 ar
    10    4   27 1
    11    5   16 1
    12    6   19 1
    13    7    9 1
    14    7   21 2
    15    7   23 1
    16    8   10 1
    17    8   20 am
    18    8   22 2
    19    9   10 1
    20    9   18 1
    21    9   28 1
    22   10   23 1
    23   10   29 1
    24   11   17 1
    25   11   30 1
    26   11   31 1
    27   11   32 1
    28   12   18 1
    29   12   33 1
    30   12   34 1
    31   12   35 1
    32   13   19 1
    33   13   36 1
    34   13   37 1
    35   13   38 1
    36   14   19 1
    37   14   39 1
    38   14   40 1
    39   14   41 1
    40   15   19 1
    41   15   42 1
    42   15   43 1
    43   15   44 1
    44   16   20 1
    45   16   45 1
    46   16   46 1
    47   17   18 1
    48   17   47 1
    49   17   48 1
    50   18   49 1
    51   20   50 1
