@<TRIPOS>MOLECULE
*****
   21    22     0     0     0
SMALL
NO_CHARGES

@<TRIPOS>ATOM
      1 C1         -6.7890   -1.4037   -2.4146 C.ar      1 <0>         0.0000
      2 C2         -5.6187   -1.9760   -2.9241 C.ar      1 <0>         0.0000
      3 C3         -6.7086   -0.2434   -1.6387 C.ar      1 <0>         0.0000
      4 C4         -0.4741    1.3270   -1.3585 C.2       1 <0>         0.0000
      5 C5         -4.3780   -1.3950   -2.6582 C.ar      1 <0>         0.0000
      6 C6         -5.4726    0.3469   -1.3646 C.ar      1 <0>         0.0000
      7 C7         -1.3110    1.3913   -0.2894 C.2       1 <0>         0.0000
      8 C8         -0.9632    0.7488   -2.5701 C.2       1 <0>         0.0000
      9 C9         -4.3078   -0.2340   -1.8789 C.ar      1 <0>         0.0000
     10 C10        -2.6741    0.8890   -0.3674 C.2       1 <0>         0.0000
     11 N1         -2.1762    0.2850   -2.7022 N.2       1 <0>         0.0000
     12 N2         -3.0160    0.3580   -1.6439 N.am      1 <0>         0.0000
     13 O1         -3.4713    0.9077    0.5691 O.2       1 <0>         0.0000
     14 H1         -7.7543   -1.8589   -2.6194 H         1 <0>         0.0000
     15 H2         -5.6687   -2.8787   -3.5269 H         1 <0>         0.0000
     16 H3         -7.6124    0.2099   -1.2407 H         1 <0>         0.0000
     17 H4          0.5458    1.6995   -1.3090 H         1 <0>         0.0000
     18 H5         -3.4663   -1.8264   -3.0561 H         1 <0>         0.0000
     19 H6         -5.4147    1.2375   -0.7531 H         1 <0>         0.0000
     20 H7         -1.0148    1.8042    0.6695 H         1 <0>         0.0000
     21 H8         -0.3402    0.6692   -3.4565 H         1 <0>         0.0000
@<TRIPOS>BOND
     1    1    3 ar
     2    1    2 ar
     3    1   14 1
     4    2    5 ar
     5    2   15 1
     6    3    6 ar
     7    3   16 1
     8    4    7 2
     9    4    8 1
    10    4   17 1
    11    5    9 ar
    12    5   18 1
    13    6    9 ar
    14    6   19 1
    15    7   10 1
    16    7   20 1
    17    8   11 2
    18    8   21 1
    19    9   12 1
    20   10   12 am
    21   10   13 2
    22   11   12 1
