@<TRIPOS>MOLECULE
*****
   25    25     0     0     0
SMALL
NO_CHARGES

@<TRIPOS>ATOM
      1 C1          4.8287    2.1174   -5.4576 C.2       1 <0>         0.0000
      2 C2          4.0913    1.4609   -4.5146 C.2       1 <0>         0.0000
      3 C3          5.8974    0.1776   -4.4387 C.2       1 <0>         0.0000
      4 C4          1.8874    0.4388   -4.1093 C.2       1 <0>         0.0000
      5 C5          1.3345   -1.4257   -5.4567 C.3       1 <0>         0.0000
      6 C6          5.1815   -2.3963   -2.3414 C.3       1 <0>         0.0000
      7 C7          2.6743    1.7452   -4.0953 C.3       1 <0>         0.0000
      8 N1          4.7190    0.3783   -3.9272 N.2       1 <0>         0.0000
      9 N2          6.6940   -0.9014   -4.0540 N.pl3     1 <0>         0.0000
     10 O1          1.3846   -0.0802   -3.1328 O.2       1 <0>         0.0000
     11 O2          4.9136   -2.6164   -4.9720 O.2       1 <0>         0.0000
     12 O3          7.1125   -3.3751   -3.9290 O.2       1 <0>         0.0000
     13 O4          1.8591   -0.0838   -5.3514 O.3       1 <0>         0.0000
     14 S1          6.3690    1.3259   -5.6812 S.3       1 <0>         0.0000
     15 S2          5.9576   -2.4757   -3.9582 S.o2      1 <0>         0.0000
     16 H1          4.5682    2.9943   -6.0351 H         1 <0>         0.0000
     17 H2          1.3200   -1.6474   -6.5233 H         1 <0>         0.0000
     18 H3          0.3297   -1.4799   -5.0327 H         1 <0>         0.0000
     19 H4          2.0006   -2.1177   -4.9363 H         1 <0>         0.0000
     20 H5          4.6922   -3.3609   -2.1932 H         1 <0>         0.0000
     21 H6          5.9632   -2.2325   -1.6000 H         1 <0>         0.0000
     22 H7          4.4591   -1.5803   -2.3618 H         1 <0>         0.0000
     23 H8          2.6330    2.1393   -3.0773 H         1 <0>         0.0000
     24 H9          2.2150    2.4655   -4.7772 H         1 <0>         0.0000
     25 H10         7.6071   -0.9883   -4.4957 H         1 <0>         0.0000
@<TRIPOS>BOND
     1    1    2 2
     2    1   14 1
     3    1   16 1
     4    2    7 1
     5    2    8 1
     6    3    8 2
     7    3    9 1
     8    3   14 1
     9    4    7 1
    10    4   10 2
    11    4   13 1
    12    5   13 1
    13    5   17 1
    14    5   18 1
    15    5   19 1
    16    6   15 1
    17    6   20 1
    18    6   21 1
    19    6   22 1
    20    7   23 1
    21    7   24 1
    22    9   15 1
    23    9   25 1
    24   11   15 2
    25   12   15 2
