@<TRIPOS>MOLECULE
*****
   48    51     0     0     0
SMALL
NO_CHARGES

@<TRIPOS>ATOM
      1 C1          5.3090   -1.0023   -1.3427 C.ar      1 <0>         0.0000
      2 C2          5.4924   -2.0321    0.8284 C.ar      1 <0>         0.0000
      3 C3          3.6397    0.1860    1.7538 C.ar      1 <0>         0.0000
      4 C4          2.5752   -0.0925   -0.3903 C.ar      1 <0>         0.0000
      5 C5          6.4007   -1.7446   -1.7921 C.ar      1 <0>         0.0000
      6 C6          6.5813   -2.7891    0.3931 C.ar      1 <0>         0.0000
      7 C7          2.5501    0.9313    2.2031 C.ar      1 <0>         0.0000
      8 C8          1.4727    0.6444    0.0454 C.ar      1 <0>         0.0000
      9 C9          8.6262   -6.5775   -1.4423 C.ar      1 <0>         0.0000
     10 C10         9.3514   -7.3307    0.7529 C.ar      1 <0>         0.0000
     11 C11        -3.7835    1.4952   -0.2377 C.ar      1 <0>         0.0000
     12 C12        -2.7707    1.1683    1.9485 C.ar      1 <0>         0.0000
     13 C13         8.6523   -7.8988   -1.8969 C.ar      1 <0>         0.0000
     14 C14         9.3678   -8.6512    0.3002 C.ar      1 <0>         0.0000
     15 C15        -5.0043    1.0275    0.2523 C.ar      1 <0>         0.0000
     16 C16        -3.9958    0.7093    2.4402 C.ar      1 <0>         0.0000
     17 C17         4.8355   -1.1287   -0.0247 C.ar      1 <0>         0.0000
     18 C18         3.6755   -0.3376    0.4492 C.ar      1 <0>         0.0000
     19 C19         7.0308   -2.6326   -0.9191 C.ar      1 <0>         0.0000
     20 C20         1.4738    1.1569    1.3439 C.ar      1 <0>         0.0000
     21 C21         8.9834   -6.3051   -0.1200 C.ar      1 <0>         0.0000
     22 C22        -2.6781    1.5640    0.6125 C.ar      1 <0>         0.0000
     23 C23         9.0209   -8.9246   -1.0249 C.ar      1 <0>         0.0000
     24 C24        -5.1015    0.6410    1.5909 C.ar      1 <0>         0.0000
     25 O1          8.0833   -3.3848   -1.4591 O.3       1 <0>         0.0000
     26 O2          0.3915    1.8648    1.8847 O.3       1 <0>         0.0000
     27 O3          8.9393   -5.0191    0.4304 O.3       1 <0>         0.0000
     28 O4         -1.4807    1.9902    0.0266 O.3       1 <0>         0.0000
     29 S1          9.4270   -3.7106   -0.5070 S.3       1 <0>         0.0000
     30 S2         -0.4340    2.9601    0.9167 S.3       1 <0>         0.0000
     31 Cl1         9.0446  -10.5840   -1.6005 Cl        1 <0>         0.0000
     32 Cl2        -6.6367    0.0565    2.2132 Cl        1 <0>         0.0000
     33 H1          4.8419   -0.2895   -2.0163 H         1 <0>         0.0000
     34 H2          5.1245   -2.1777    1.8402 H         1 <0>         0.0000
     35 H3          4.4886    0.0400    2.4157 H         1 <0>         0.0000
     36 H4          2.5593   -0.5167   -1.3903 H         1 <0>         0.0000
     37 H5          6.7785   -1.6363   -2.8044 H         1 <0>         0.0000
     38 H6          7.0576   -3.5030    1.0562 H         1 <0>         0.0000
     39 H7          2.5277    1.3507    3.2045 H         1 <0>         0.0000
     40 H8          0.6196    0.7988   -0.6061 H         1 <0>         0.0000
     41 H9          8.3222   -5.7771   -2.1076 H         1 <0>         0.0000
     42 H10         9.6229   -7.0879    1.7758 H         1 <0>         0.0000
     43 H11        -3.6804    1.8089   -1.2719 H         1 <0>         0.0000
     44 H12        -1.9019    1.2059    2.5964 H         1 <0>         0.0000
     45 H13         8.3766   -8.1283   -2.9213 H         1 <0>         0.0000
     46 H14         9.6547   -9.4575    0.9675 H         1 <0>         0.0000
     47 H15        -5.8720    0.9717   -0.3971 H         1 <0>         0.0000
     48 H16        -4.0849    0.3968    3.4757 H         1 <0>         0.0000
@<TRIPOS>BOND
     1    1    5 ar
     2    1   17 ar
     3    1   33 1
     4    2    6 ar
     5    2   17 ar
     6    2   34 1
     7    3    7 ar
     8    3   18 ar
     9    3   35 1
    10    4    8 ar
    11    4   18 ar
    12    4   36 1
    13    5   19 ar
    14    5   37 1
    15    6   19 ar
    16    6   38 1
    17    7   20 ar
    18    7   39 1
    19    8   20 ar
    20    8   40 1
    21    9   13 ar
    22    9   21 ar
    23    9   41 1
    24   10   14 ar
    25   10   21 ar
    26   10   42 1
    27   11   15 ar
    28   11   22 ar
    29   11   43 1
    30   12   16 ar
    31   12   22 ar
    32   12   44 1
    33   13   23 ar
    34   13   45 1
    35   14   23 ar
    36   14   46 1
    37   15   24 ar
    38   15   47 1
    39   16   24 ar
    40   16   48 1
    41   17   18 1
    42   19   25 1
    43   20   26 1
    44   21   27 1
    45   22   28 1
    46   23   31 1
    47   24   32 1
    48   25   29 1
    49   26   30 1
    50   27   29 1
    51   28   30 1
