@<TRIPOS>MOLECULE
*****
   48    51     0     0     0
SMALL
NO_CHARGES

@<TRIPOS>ATOM
      1 C1          5.1000   -1.9356   -0.0468 C.ar      1 <0>         0.0000
      2 C2          4.7664   -3.2422    1.9505 C.ar      1 <0>         0.0000
      3 C3          2.8409   -1.0349    2.7539 C.ar      1 <0>         0.0000
      4 C4          2.2523   -0.9884    0.4159 C.ar      1 <0>         0.0000
      5 C5          6.2372   -2.6811   -0.3619 C.ar      1 <0>         0.0000
      6 C6          5.9053   -3.9911    1.6560 C.ar      1 <0>         0.0000
      7 C7          1.7074   -0.2845    3.0658 C.ar      1 <0>         0.0000
      8 C8          1.1104   -0.2440    0.7144 C.ar      1 <0>         0.0000
      9 C9          9.5279   -4.6716   -4.1031 C.ar      1 <0>         0.0000
     10 C10         8.6120   -6.1689   -2.4203 C.ar      1 <0>         0.0000
     11 C11        -2.5853   -1.3351    0.4564 C.ar      1 <0>         0.0000
     12 C12        -4.1122    0.0082    1.7863 C.ar      1 <0>         0.0000
     13 C13         9.6893   -5.7467   -4.9791 C.ar      1 <0>         0.0000
     14 C14         8.7828   -7.2457   -3.2946 C.ar      1 <0>         0.0000
     15 C15        -3.4328   -1.2115   -0.6476 C.ar      1 <0>         0.0000
     16 C16        -4.9570    0.1402    0.6827 C.ar      1 <0>         0.0000
     17 C17         4.3440   -2.1983    1.1085 C.ar      1 <0>         0.0000
     18 C18         3.1358   -1.4012    1.4280 C.ar      1 <0>         0.0000
     19 C19         6.6347   -3.7033    0.5015 C.ar      1 <0>         0.0000
     20 C20         0.8482    0.1059    2.0385 C.ar      1 <0>         0.0000
     21 C21         8.9939   -4.8902   -2.8319 C.ar      1 <0>         0.0000
     22 C22        -2.9339   -0.7293    1.6631 C.ar      1 <0>         0.0000
     23 C23         9.3185   -7.0281   -4.5653 C.ar      1 <0>         0.0000
     24 C24        -4.6102   -0.4713   -0.5253 C.ar      1 <0>         0.0000
     25 O1          7.7349   -4.5331    0.2436 O.3       1 <0>         0.0000
     26 O2         -0.2834    0.9039    2.2606 O.3       1 <0>         0.0000
     27 O3          8.8161   -3.7527   -2.0360 O.3       1 <0>         0.0000
     28 O4         -2.0781   -0.9388    2.7508 O.3       1 <0>         0.0000
     29 S1          9.1352   -3.8553   -0.3875 S.3       1 <0>         0.0000
     30 S2         -1.3692    0.4216    3.4471 S.3       1 <0>         0.0000
     31 Cl1         9.5267   -8.3850   -5.6613 Cl        1 <0>         0.0000
     32 Cl2        -5.6744   -0.3051   -1.9126 Cl        1 <0>         0.0000
     33 H1          4.8089   -1.1210   -0.7041 H         1 <0>         0.0000
     34 H2          4.1877   -3.4869    2.8367 H         1 <0>         0.0000
     35 H3          3.5251   -1.3121    3.5510 H         1 <0>         0.0000
     36 H4          2.4393   -1.2810   -0.6136 H         1 <0>         0.0000
     37 H5          6.8051   -2.4689   -1.2613 H         1 <0>         0.0000
     38 H6          6.2318   -4.7998    2.3030 H         1 <0>         0.0000
     39 H7          1.4934   -0.0028    4.0922 H         1 <0>         0.0000
     40 H8          0.4173    0.0673   -0.0614 H         1 <0>         0.0000
     41 H9          9.8147   -3.6659   -4.3948 H         1 <0>         0.0000
     42 H10         8.1803   -6.3256   -1.4379 H         1 <0>         0.0000
     43 H11        -1.6602   -1.9000    0.3943 H         1 <0>         0.0000
     44 H12        -4.3636    0.4784    2.7322 H         1 <0>         0.0000
     45 H13        10.1066   -5.5914   -5.9688 H         1 <0>         0.0000
     46 H14         8.4912   -8.2461   -2.9911 H         1 <0>         0.0000
     47 H15        -3.1782   -1.6795   -1.5931 H         1 <0>         0.0000
     48 H16        -5.8788    0.7078    0.7604 H         1 <0>         0.0000
@<TRIPOS>BOND
     1    1    5 ar
     2    1   17 ar
     3    1   33 1
     4    2    6 ar
     5    2   17 ar
     6    2   34 1
     7    3    7 ar
     8    3   18 ar
     9    3   35 1
    10    4    8 ar
    11    4   18 ar
    12    4   36 1
    13    5   19 ar
    14    5   37 1
    15    6   19 ar
    16    6   38 1
    17    7   20 ar
    18    7   39 1
    19    8   20 ar
    20    8   40 1
    21    9   13 ar
    22    9   21 ar
    23    9   41 1
    24   10   14 ar
    25   10   21 ar
    26   10   42 1
    27   11   15 ar
    28   11   22 ar
    29   11   43 1
    30   12   16 ar
    31   12   22 ar
    32   12   44 1
    33   13   23 ar
    34   13   45 1
    35   14   23 ar
    36   14   46 1
    37   15   24 ar
    38   15   47 1
    39   16   24 ar
    40   16   48 1
    41   17   18 1
    42   19   25 1
    43   20   26 1
    44   21   27 1
    45   22   28 1
    46   23   31 1
    47   24   32 1
    48   25   29 1
    49   26   30 1
    50   27   29 1
    51   28   30 1
