@<TRIPOS>MOLECULE
*****
   48    51     0     0     0
SMALL
NO_CHARGES

@<TRIPOS>ATOM
      1 C1          3.6411   -3.0312   -1.1646 C.ar      1 <0>         0.0000
      2 C2          4.9284   -2.5935    0.8253 C.ar      1 <0>         0.0000
      3 C3          2.2404   -2.1103    2.1459 C.ar      1 <0>         0.0000
      4 C4          1.6170   -1.1155    0.0393 C.ar      1 <0>         0.0000
      5 C5          4.7582   -3.6108   -1.7652 C.ar      1 <0>         0.0000
      6 C6          6.0587   -3.1626    0.2365 C.ar      1 <0>         0.0000
      7 C7          1.1210   -1.5455    2.7564 C.ar      1 <0>         0.0000
      8 C8          0.4968   -0.5382    0.6390 C.ar      1 <0>         0.0000
      9 C9         10.0596   -3.1203   -2.2215 C.ar      1 <0>         0.0000
     10 C10        11.3883   -3.2990   -0.1931 C.ar      1 <0>         0.0000
     11 C11        -0.3405    3.2316    1.2558 C.ar      1 <0>         0.0000
     12 C12        -1.9826    3.5831    3.0116 C.ar      1 <0>         0.0000
     13 C13        11.1392   -2.5118   -2.8674 C.ar      1 <0>         0.0000
     14 C14        12.4629   -2.6824   -0.8366 C.ar      1 <0>         0.0000
     15 C15        -1.0309    4.1203    0.4275 C.ar      1 <0>         0.0000
     16 C16        -2.6791    4.4652    2.1835 C.ar      1 <0>         0.0000
     17 C17         3.7025   -2.5158    0.1422 C.ar      1 <0>         0.0000
     18 C18         2.5107   -1.9079    0.7801 C.ar      1 <0>         0.0000
     19 C19         5.9597   -3.6751   -1.0582 C.ar      1 <0>         0.0000
     20 C20         0.2551   -0.7610    1.9941 C.ar      1 <0>         0.0000
     21 C21        10.1975   -3.5152   -0.8892 C.ar      1 <0>         0.0000
     22 C22        -0.8187    2.9742    2.5402 C.ar      1 <0>         0.0000
     23 C23        12.3306   -2.2965   -2.1725 C.ar      1 <0>         0.0000
     24 C24        -2.1971    4.7268    0.8979 C.ar      1 <0>         0.0000
     25 O1          7.0512   -4.2240   -1.7456 O.3       1 <0>         0.0000
     26 O2         -0.9193   -0.2059    2.5220 O.3       1 <0>         0.0000
     27 O3          9.1536   -4.0890   -0.1543 O.3       1 <0>         0.0000
     28 O4         -0.0521    2.1243    3.3461 O.3       1 <0>         0.0000
     29 S1          8.1362   -5.1949   -0.9093 S.3       1 <0>         0.0000
     30 S2         -0.7940    0.7233    3.9150 S.3       1 <0>         0.0000
     31 Cl1        13.6817   -1.5256   -2.9883 Cl        1 <0>         0.0000
     32 Cl2        -3.0741    5.8376   -0.1422 Cl        1 <0>         0.0000
     33 H1          2.6997   -3.0140   -1.7065 H         1 <0>         0.0000
     34 H2          5.0144   -2.1690    1.8216 H         1 <0>         0.0000
     35 H3          2.8965   -2.7467    2.7331 H         1 <0>         0.0000
     36 H4          1.8162   -0.9182   -1.0103 H         1 <0>         0.0000
     37 H5          4.7084   -4.0263   -2.7673 H         1 <0>         0.0000
     38 H6          7.0038   -3.1895    0.7678 H         1 <0>         0.0000
     39 H7          0.9186   -1.7144    3.8096 H         1 <0>         0.0000
     40 H8         -0.1914    0.0841    0.0747 H         1 <0>         0.0000
     41 H9          9.1243   -3.2739   -2.7484 H         1 <0>         0.0000
     42 H10        11.4652   -3.6160    0.8424 H         1 <0>         0.0000
     43 H11         0.5676    2.7405    0.9197 H         1 <0>         0.0000
     44 H12        -2.3435    3.3660    4.0123 H         1 <0>         0.0000
     45 H13        11.0489   -2.1982   -3.9025 H         1 <0>         0.0000
     46 H14        13.3952   -2.5113   -0.3081 H         1 <0>         0.0000
     47 H15        -0.6704    4.3342   -0.5736 H         1 <0>         0.0000
     48 H16        -3.5847    4.9497    2.5342 H         1 <0>         0.0000
@<TRIPOS>BOND
     1    1    5 ar
     2    1   17 ar
     3    1   33 1
     4    2    6 ar
     5    2   17 ar
     6    2   34 1
     7    3    7 ar
     8    3   18 ar
     9    3   35 1
    10    4    8 ar
    11    4   18 ar
    12    4   36 1
    13    5   19 ar
    14    5   37 1
    15    6   19 ar
    16    6   38 1
    17    7   20 ar
    18    7   39 1
    19    8   20 ar
    20    8   40 1
    21    9   13 ar
    22    9   21 ar
    23    9   41 1
    24   10   14 ar
    25   10   21 ar
    26   10   42 1
    27   11   15 ar
    28   11   22 ar
    29   11   43 1
    30   12   16 ar
    31   12   22 ar
    32   12   44 1
    33   13   23 ar
    34   13   45 1
    35   14   23 ar
    36   14   46 1
    37   15   24 ar
    38   15   47 1
    39   16   24 ar
    40   16   48 1
    41   17   18 1
    42   19   25 1
    43   20   26 1
    44   21   27 1
    45   22   28 1
    46   23   31 1
    47   24   32 1
    48   25   29 1
    49   26   30 1
    50   27   29 1
    51   28   30 1
