@<TRIPOS>MOLECULE
*****
   43    43     0     0     0
SMALL
NO_CHARGES

@<TRIPOS>ATOM
      1 C1          0.2517   -6.4900    0.0608 C.2       1 <0>         0.0000
      2 C2          1.0142   -5.4042    0.5394 C.2       1 <0>         0.0000
      3 C3         -0.8656   -5.9496   -0.5661 C.2       1 <0>         0.0000
      4 C4          0.3515   -4.2173    0.2047 C.2       1 <0>         0.0000
      5 C5          0.7753   -2.8481    0.5003 C.2       1 <0>         0.0000
      6 C6         -1.8451   -3.7285   -1.0521 C.3       1 <0>         0.0000
      7 C7         -2.4056   -0.0434   -0.4787 C.3       1 <0>         0.0000
      8 C8         -0.9008    1.6691   -1.3611 C.3       1 <0>         0.0000
      9 C9          0.1636   -0.5197    3.0179 C.3       1 <0>         0.0000
     10 C10        -0.0960    1.7387    2.0603 C.3       1 <0>         0.0000
     11 C11         1.9232   -0.2040   -1.7450 C.3       1 <0>         0.0000
     12 C12         2.7204    0.7235    0.3809 C.3       1 <0>         0.0000
     13 N1         -0.1295   -1.8829    0.2227 N.2       1 <0>         0.0000
     14 N2         -0.8129   -4.5845   -0.4817 N.pl3     1 <0>         0.0000
     15 N3         -1.0208    0.3735   -0.6990 N.pl3     1 <0>         0.0000
     16 N4          0.0220    0.3040    1.8162 N.pl3     1 <0>         0.0000
     17 N5          1.5631    0.3154   -0.4187 N.pl3     1 <0>         0.0000
     18 P1          0.1716   -0.3011    0.2735 P.3       1 <0>         0.0000
     19 S1          2.3260   -2.5879    1.1640 S.2       1 <0>         0.0000
     20 H1          0.4787   -7.5443    0.1524 H         1 <0>         0.0000
     21 H2          1.9515   -5.4358    1.0762 H         1 <0>         0.0000
     22 H3         -1.6907   -6.4364   -1.0700 H         1 <0>         0.0000
     23 H4         -2.4379   -3.2557   -0.2662 H         1 <0>         0.0000
     24 H5         -1.4031   -2.9420   -1.6629 H         1 <0>         0.0000
     25 H6         -2.4966   -4.3524   -1.6690 H         1 <0>         0.0000
     26 H7         -2.4270   -1.0185    0.0041 H         1 <0>         0.0000
     27 H8         -2.9265   -0.1209   -1.4408 H         1 <0>         0.0000
     28 H9         -2.9457    0.6795    0.1507 H         1 <0>         0.0000
     29 H10         0.1458    1.9642   -1.4298 H         1 <0>         0.0000
     30 H11        -1.4568    2.4534   -0.8251 H         1 <0>         0.0000
     31 H12        -1.3119    1.6017   -2.3763 H         1 <0>         0.0000
     32 H13         0.0787   -1.5742    2.7654 H         1 <0>         0.0000
     33 H14        -0.6357   -0.2574    3.7222 H         1 <0>         0.0000
     34 H15         1.1360   -0.3626    3.5005 H         1 <0>         0.0000
     35 H16        -0.1381    2.2924    1.1220 H         1 <0>         0.0000
     36 H17         0.7622    2.1155    2.6332 H         1 <0>         0.0000
     37 H18        -1.0097    1.9545    2.6291 H         1 <0>         0.0000
     38 H19         1.0235   -0.4562   -2.3097 H         1 <0>         0.0000
     39 H20         2.5486   -1.1009   -1.6552 H         1 <0>         0.0000
     40 H21         2.4729    0.5661   -2.2984 H         1 <0>         0.0000
     41 H22         2.4208    0.9299    1.4073 H         1 <0>         0.0000
     42 H23         3.1502    1.6355   -0.0529 H         1 <0>         0.0000
     43 H24         3.4746   -0.0692    0.4088 H         1 <0>         0.0000
@<TRIPOS>BOND
     1    1    2 1
     2    1    3 2
     3    1   20 1
     4    2    4 2
     5    2   21 1
     6    3   14 1
     7    3   22 1
     8    4    5 1
     9    4   14 1
    10    5   13 1
    11    5   19 2
    12    6   14 1
    13    6   23 1
    14    6   24 1
    15    6   25 1
    16    7   15 1
    17    7   26 1
    18    7   27 1
    19    7   28 1
    20    8   15 1
    21    8   29 1
    22    8   30 1
    23    8   31 1
    24    9   16 1
    25    9   32 1
    26    9   33 1
    27    9   34 1
    28   10   16 1
    29   10   35 1
    30   10   36 1
    31   10   37 1
    32   11   17 1
    33   11   38 1
    34   11   39 1
    35   11   40 1
    36   12   17 1
    37   12   41 1
    38   12   42 1
    39   12   43 1
    40   13   18 2
    41   15   18 1
    42   16   18 1
    43   17   18 1
