@<TRIPOS>MOLECULE
*****
   25    25     0     0     0
SMALL
NO_CHARGES

@<TRIPOS>ATOM
      1 C1          4.6089    1.2352   -5.1898 C.2       1 <0>         0.0000
      2 C2          4.0142    0.4423   -4.2471 C.2       1 <0>         0.0000
      3 C3          5.6183   -0.9565   -4.8607 C.2       1 <0>         0.0000
      4 C4          1.5826    0.0359   -4.0499 C.2       1 <0>         0.0000
      5 C5          0.4860   -2.0519   -4.1627 C.3       1 <0>         0.0000
      6 C6          4.9152   -3.9520   -3.4466 C.3       1 <0>         0.0000
      7 C7          2.7744    0.7833   -3.4635 C.3       1 <0>         0.0000
      8 N1          4.6073   -0.7910   -4.0574 N.2       1 <0>         0.0000
      9 N2          6.3531   -2.1445   -4.8953 N.pl3     1 <0>         0.0000
     10 O1          0.8270    0.4952   -4.8830 O.2       1 <0>         0.0000
     11 O2          4.3243   -3.4285   -5.9791 O.2       1 <0>         0.0000
     12 O3          6.5441   -4.5820   -5.4854 O.2       1 <0>         0.0000
     13 O4          1.4972   -1.2169   -3.5558 O.3       1 <0>         0.0000
     14 S1          5.9453    0.3986   -5.9288 S.3       1 <0>         0.0000
     15 S2          5.4875   -3.6370   -5.1190 S.o2      1 <0>         0.0000
     16 H1          4.3460    2.2409   -5.4893 H         1 <0>         0.0000
     17 H2          0.5481   -3.0067   -3.6412 H         1 <0>         0.0000
     18 H3          0.6984   -2.1812   -5.2260 H         1 <0>         0.0000
     19 H4         -0.5029   -1.6055   -4.0380 H         1 <0>         0.0000
     20 H5          4.3522   -4.8864   -3.4906 H         1 <0>         0.0000
     21 H6          5.7894   -4.0475   -2.8031 H         1 <0>         0.0000
     22 H7          4.2834   -3.1133   -3.1536 H         1 <0>         0.0000
     23 H8          2.9126    0.4975   -2.4178 H         1 <0>         0.0000
     24 H9          2.5630    1.8508   -3.5315 H         1 <0>         0.0000
     25 H10         7.1813   -2.1561   -5.4877 H         1 <0>         0.0000
@<TRIPOS>BOND
     1    1    2 2
     2    1   14 1
     3    1   16 1
     4    2    7 1
     5    2    8 1
     6    3    8 2
     7    3    9 1
     8    3   14 1
     9    4    7 1
    10    4   10 2
    11    4   13 1
    12    5   13 1
    13    5   17 1
    14    5   18 1
    15    5   19 1
    16    6   15 1
    17    6   20 1
    18    6   21 1
    19    6   22 1
    20    7   23 1
    21    7   24 1
    22    9   15 1
    23    9   25 1
    24   11   15 2
    25   12   15 2
