@<TRIPOS>MOLECULE
*****
   24    24     0     0     0
SMALL
NO_CHARGES

@<TRIPOS>ATOM
      1 C1          0.9547   -0.7706   -2.6962 C.2       1 <0>         0.0000
      2 C2          0.5330   -1.7644   -3.5325 C.2       1 <0>         0.0000
      3 C3          2.7177   -2.2778   -3.6275 C.2       1 <0>         0.0000
      4 C4         -1.1121   -3.5662   -3.6621 C.2       1 <0>         0.0000
      5 C5         -0.3888   -5.6382   -4.5646 C.3       1 <0>         0.0000
      6 C6          3.1721   -3.9041   -6.3460 C.3       1 <0>         0.0000
      7 C7         -0.9060   -2.0772   -3.8878 C.3       1 <0>         0.0000
      8 N1          1.5024   -2.5847   -4.0593 N.2       1 <0>         0.0000
      9 N2          3.9056   -2.8366   -3.8967 N.2       1 <0>         0.0000
     10 O1         -1.4534   -4.0662   -2.6050 O.2       1 <0>         0.0000
     11 O2          3.0647   -5.3106   -4.1121 O.2       1 <0>         0.0000
     12 O3          5.3243   -4.5953   -4.9766 O.2       1 <0>         0.0000
     13 O4         -0.8032   -4.2690   -4.7741 O.3       1 <0>         0.0000
     14 S1          2.7017   -0.8482   -2.5232 S.3       1 <0>         0.0000
     15 S2          3.9100   -4.2513   -4.7195 S.o2      1 <0>         0.0000
     16 H1          0.3578   -0.0424   -2.1622 H         1 <0>         0.0000
     17 H2         -0.4356   -6.1135   -5.5462 H         1 <0>         0.0000
     18 H3         -1.0558   -6.1415   -3.8611 H         1 <0>         0.0000
     19 H4          0.6421   -5.6309   -4.1981 H         1 <0>         0.0000
     20 H5          3.2081   -4.8371   -6.9133 H         1 <0>         0.0000
     21 H6          2.1462   -3.5710   -6.1880 H         1 <0>         0.0000
     22 H7          3.7753   -3.1348   -6.8323 H         1 <0>         0.0000
     23 H8         -1.5899   -1.5152   -3.2489 H         1 <0>         0.0000
     24 H9         -1.0975   -1.8404   -4.9399 H         1 <0>         0.0000
@<TRIPOS>BOND
     1    1    2 2
     2    1   14 1
     3    1   16 1
     4    2    7 1
     5    2    8 1
     6    3    8 2
     7    3    9 1
     8    3   14 1
     9    4    7 1
    10    4   10 2
    11    4   13 1
    12    5   13 1
    13    5   17 1
    14    5   18 1
    15    5   19 1
    16    6   15 1
    17    6   20 1
    18    6   21 1
    19    6   22 1
    20    7   23 1
    21    7   24 1
    22    9   15 1
    23   11   15 2
    24   12   15 2
