@<TRIPOS>MOLECULE
*****
   48    51     0     0     0
SMALL
NO_CHARGES

@<TRIPOS>ATOM
      1 C1          3.8902   -3.0428   -1.3137 C.ar      1 <0>         0.0000
      2 C2          4.6390   -0.7892   -0.9033 C.ar      1 <0>         0.0000
      3 C3          2.3808   -0.6891    1.1233 C.ar      1 <0>         0.0000
      4 C4          1.1585   -2.0041   -0.4863 C.ar      1 <0>         0.0000
      5 C5          5.0743   -3.3164   -1.9975 C.ar      1 <0>         0.0000
      6 C6          5.8341   -1.0486   -1.5763 C.ar      1 <0>         0.0000
      7 C7          1.1962   -0.4228    1.8109 C.ar      1 <0>         0.0000
      8 C8         -0.0343   -1.7399    0.1867 C.ar      1 <0>         0.0000
      9 C9         10.3319   -2.3491   -1.9001 C.ar      1 <0>         0.0000
     10 C10        11.0684   -0.0453   -2.1496 C.ar      1 <0>         0.0000
     11 C11         0.1231   -1.6848    5.2961 C.ar      1 <0>         0.0000
     12 C12        -2.2691   -1.6146    5.7169 C.ar      1 <0>         0.0000
     13 C13        11.5921   -2.6915   -1.4026 C.ar      1 <0>         0.0000
     14 C14        12.3240   -0.3866   -1.6435 C.ar      1 <0>         0.0000
     15 C15         0.3615   -1.0750    6.5305 C.ar      1 <0>         0.0000
     16 C16        -2.0346   -0.9981    6.9473 C.ar      1 <0>         0.0000
     17 C17         3.6475   -1.7745   -0.7571 C.ar      1 <0>         0.0000
     18 C18         2.3860   -1.4868   -0.0339 C.ar      1 <0>         0.0000
     19 C19         6.0384   -2.3155   -2.1256 C.ar      1 <0>         0.0000
     20 C20        -0.0047   -0.9481    1.3348 C.ar      1 <0>         0.0000
     21 C21        10.0841   -1.0272   -2.2762 C.ar      1 <0>         0.0000
     22 C22        -1.1876   -1.9532    4.9026 C.ar      1 <0>         0.0000
     23 C23        12.5774   -1.7104   -1.2773 C.ar      1 <0>         0.0000
     24 C24        -0.7206   -0.7338    7.3439 C.ar      1 <0>         0.0000
     25 O1          7.2248   -2.6818   -2.7765 O.3       1 <0>         0.0000
     26 O2         -1.1629   -0.5926    2.0409 O.3       1 <0>         0.0000
     27 O3          8.8379   -0.5913   -2.7409 O.3       1 <0>         0.0000
     28 O4         -1.3639   -2.6208    3.6851 O.3       1 <0>         0.0000
     29 S1          7.9715   -1.5755   -3.7946 S.3       1 <0>         0.0000
     30 S2         -2.2264   -1.8141    2.4834 S.3       1 <0>         0.0000
     31 Cl1        14.1581   -2.1459   -0.6469 Cl        1 <0>         0.0000
     32 Cl2        -0.4269    0.0409    8.8926 Cl        1 <0>         0.0000
     33 H1          3.1545   -3.8330   -1.1942 H         1 <0>         0.0000
     34 H2          4.4692    0.2060   -0.5021 H         1 <0>         0.0000
     35 H3          3.3175   -0.2997    1.5123 H         1 <0>         0.0000
     36 H4          1.1296   -2.5956   -1.3971 H         1 <0>         0.0000
     37 H5          5.2655   -4.2961   -2.4252 H         1 <0>         0.0000
     38 H6          6.5915   -0.2783   -1.6732 H         1 <0>         0.0000
     39 H7          1.1873    0.1824    2.7124 H         1 <0>         0.0000
     40 H8         -0.9761   -2.1404   -0.1755 H         1 <0>         0.0000
     41 H9          9.5548   -3.1008   -1.9841 H         1 <0>         0.0000
     42 H10        10.8458    0.9742   -2.4495 H         1 <0>         0.0000
     43 H11         0.9414   -1.9595    4.6377 H         1 <0>         0.0000
     44 H12        -3.2829   -1.8257    5.3904 H         1 <0>         0.0000
     45 H13        11.8016   -3.7141   -1.1053 H         1 <0>         0.0000
     46 H14        13.0993    0.3661   -1.5431 H         1 <0>         0.0000
     47 H15         1.3755   -0.8622    6.8537 H         1 <0>         0.0000
     48 H16        -2.8630   -0.7299    7.5952 H         1 <0>         0.0000
@<TRIPOS>BOND
     1    1    5 ar
     2    1   17 ar
     3    1   33 1
     4    2    6 ar
     5    2   17 ar
     6    2   34 1
     7    3    7 ar
     8    3   18 ar
     9    3   35 1
    10    4    8 ar
    11    4   18 ar
    12    4   36 1
    13    5   19 ar
    14    5   37 1
    15    6   19 ar
    16    6   38 1
    17    7   20 ar
    18    7   39 1
    19    8   20 ar
    20    8   40 1
    21    9   13 ar
    22    9   21 ar
    23    9   41 1
    24   10   14 ar
    25   10   21 ar
    26   10   42 1
    27   11   15 ar
    28   11   22 ar
    29   11   43 1
    30   12   16 ar
    31   12   22 ar
    32   12   44 1
    33   13   23 ar
    34   13   45 1
    35   14   23 ar
    36   14   46 1
    37   15   24 ar
    38   15   47 1
    39   16   24 ar
    40   16   48 1
    41   17   18 1
    42   19   25 1
    43   20   26 1
    44   21   27 1
    45   22   28 1
    46   23   31 1
    47   24   32 1
    48   25   29 1
    49   26   30 1
    50   27   29 1
    51   28   30 1
