@<TRIPOS>MOLECULE
*****
   48    51     0     0     0
SMALL
NO_CHARGES

@<TRIPOS>ATOM
      1 C1          5.2189    0.1140   -0.3352 C.ar      1 <0>         0.0000
      2 C2          5.4814   -1.9737    0.8398 C.ar      1 <0>         0.0000
      3 C3          3.1173   -1.0372    2.4972 C.ar      1 <0>         0.0000
      4 C4          2.2891   -0.1319    0.4210 C.ar      1 <0>         0.0000
      5 C5          6.4813   -0.0434   -0.9061 C.ar      1 <0>         0.0000
      6 C6          6.7434   -2.1519    0.2705 C.ar      1 <0>         0.0000
      7 C7          1.8613   -0.8758    3.0813 C.ar      1 <0>         0.0000
      8 C8          1.0251    0.0282    0.9905 C.ar      1 <0>         0.0000
      9 C9          9.7415   -3.6951   -3.0025 C.ar      1 <0>         0.0000
     10 C10        10.4723   -5.5255   -1.5787 C.ar      1 <0>         0.0000
     11 C11        -2.3345   -1.7560    0.1024 C.ar      1 <0>         0.0000
     12 C12        -3.9642   -1.6492    1.9013 C.ar      1 <0>         0.0000
     13 C13        10.1166   -4.4308   -4.1299 C.ar      1 <0>         0.0000
     14 C14        10.8379   -6.2633   -2.7061 C.ar      1 <0>         0.0000
     15 C15        -3.3141   -1.3627   -0.8132 C.ar      1 <0>         0.0000
     16 C16        -4.9431   -1.2480    0.9902 C.ar      1 <0>         0.0000
     17 C17         4.6961   -0.8444    0.5511 C.ar      1 <0>         0.0000
     18 C18         3.3564   -0.6701    1.1603 C.ar      1 <0>         0.0000
     19 C19         7.2365   -1.1755   -0.5967 C.ar      1 <0>         0.0000
     20 C20         0.8217   -0.3420    2.3193 C.ar      1 <0>         0.0000
     21 C21         9.9298   -4.2485   -1.7342 C.ar      1 <0>         0.0000
     22 C22        -2.6681   -1.9002    1.4488 C.ar      1 <0>         0.0000
     23 C23        10.6602   -5.7072   -3.9750 C.ar      1 <0>         0.0000
     24 C24        -4.6099   -1.1086   -0.3600 C.ar      1 <0>         0.0000
     25 O1          8.4714   -1.2881   -1.2505 O.3       1 <0>         0.0000
     26 O2         -0.4526   -0.0983    2.8514 O.3       1 <0>         0.0000
     27 O3          9.5403   -3.5999   -0.5566 O.3       1 <0>         0.0000
     28 O4         -1.6611   -2.3574    2.3068 O.3       1 <0>         0.0000
     29 S1          9.7781   -1.9404   -0.4230 S.3       1 <0>         0.0000
     30 S2         -1.2455   -1.3713    3.6071 S.3       1 <0>         0.0000
     31 Cl1        11.1239   -6.6292   -5.3964 Cl        1 <0>         0.0000
     32 Cl2        -5.8431   -0.6052   -1.5048 Cl        1 <0>         0.0000
     33 H1          4.6490    1.0128   -0.5534 H         1 <0>         0.0000
     34 H2          5.0867   -2.7482    1.4914 H         1 <0>         0.0000
     35 H3          3.9339   -1.4237    3.1007 H         1 <0>         0.0000
     36 H4          2.4372    0.1331   -0.6222 H         1 <0>         0.0000
     37 H5          6.8948    0.7043   -1.5764 H         1 <0>         0.0000
     38 H6          7.3234   -3.0435    0.4823 H         1 <0>         0.0000
     39 H7          1.6898   -1.1559    4.1162 H         1 <0>         0.0000
     40 H8          0.1934    0.4325    0.4213 H         1 <0>         0.0000
     41 H9          9.3009   -2.7107   -3.1148 H         1 <0>         0.0000
     42 H10        10.6058   -5.9296   -0.5798 H         1 <0>         0.0000
     43 H11        -1.3165   -1.9582   -0.2162 H         1 <0>         0.0000
     44 H12        -4.2045   -1.7602    2.9542 H         1 <0>         0.0000
     45 H13         9.9765   -4.0160   -5.1230 H         1 <0>         0.0000
     46 H14        11.2637   -7.2558   -2.5991 H         1 <0>         0.0000
     47 H15        -3.0718   -1.2493   -1.8650 H         1 <0>         0.0000
     48 H16        -5.9568   -1.0508    1.3237 H         1 <0>         0.0000
@<TRIPOS>BOND
     1    1    5 ar
     2    1   17 ar
     3    1   33 1
     4    2    6 ar
     5    2   17 ar
     6    2   34 1
     7    3    7 ar
     8    3   18 ar
     9    3   35 1
    10    4    8 ar
    11    4   18 ar
    12    4   36 1
    13    5   19 ar
    14    5   37 1
    15    6   19 ar
    16    6   38 1
    17    7   20 ar
    18    7   39 1
    19    8   20 ar
    20    8   40 1
    21    9   13 ar
    22    9   21 ar
    23    9   41 1
    24   10   14 ar
    25   10   21 ar
    26   10   42 1
    27   11   15 ar
    28   11   22 ar
    29   11   43 1
    30   12   16 ar
    31   12   22 ar
    32   12   44 1
    33   13   23 ar
    34   13   45 1
    35   14   23 ar
    36   14   46 1
    37   15   24 ar
    38   15   47 1
    39   16   24 ar
    40   16   48 1
    41   17   18 1
    42   19   25 1
    43   20   26 1
    44   21   27 1
    45   22   28 1
    46   23   31 1
    47   24   32 1
    48   25   29 1
    49   26   30 1
    50   27   29 1
    51   28   30 1
