@<TRIPOS>MOLECULE
*****
   48    51     0     0     0
SMALL
NO_CHARGES

@<TRIPOS>ATOM
      1 C1          4.5473   -3.1718   -1.4604 C.ar      1 <0>         0.0000
      2 C2          5.8093   -4.0461    0.4013 C.ar      1 <0>         0.0000
      3 C3          3.6726   -2.7689    2.1355 C.ar      1 <0>         0.0000
      4 C4          3.7214   -1.0068    0.4917 C.ar      1 <0>         0.0000
      5 C5          5.3315   -3.9079   -2.3486 C.ar      1 <0>         0.0000
      6 C6          6.5968   -4.7895   -0.4760 C.ar      1 <0>         0.0000
      7 C7          2.9979   -1.9280    3.0206 C.ar      1 <0>         0.0000
      8 C8          3.0547   -0.1521    1.3686 C.ar      1 <0>         0.0000
      9 C9          9.5422   -3.0700   -0.1909 C.ar      1 <0>         0.0000
     10 C10         8.0480   -1.8679   -1.6777 C.ar      1 <0>         0.0000
     11 C11        -0.7247   -1.9880    4.1752 C.ar      1 <0>         0.0000
     12 C12        -1.7241    0.0856    4.9543 C.ar      1 <0>         0.0000
     13 C13         9.1255   -2.2742    0.8784 C.ar      1 <0>         0.0000
     14 C14         7.6190   -1.0834   -0.6068 C.ar      1 <0>         0.0000
     15 C15        -1.2760   -2.6665    5.2652 C.ar      1 <0>         0.0000
     16 C16        -2.2709   -0.5879    6.0480 C.ar      1 <0>         0.0000
     17 C17         4.7931   -3.2012   -0.0756 C.ar      1 <0>         0.0000
     18 C18         4.0440   -2.3263    0.8549 C.ar      1 <0>         0.0000
     19 C19         6.3766   -4.6834   -1.8477 C.ar      1 <0>         0.0000
     20 C20         2.6987   -0.6220    2.6326 C.ar      1 <0>         0.0000
     21 C21         8.9810   -2.8813   -1.4545 C.ar      1 <0>         0.0000
     22 C22        -0.9571   -0.6210    4.0270 C.ar      1 <0>         0.0000
     23 C23         8.1457   -1.3023    0.6674 C.ar      1 <0>         0.0000
     24 C24        -2.0420   -1.9591    6.1937 C.ar      1 <0>         0.0000
     25 O1          7.2798   -5.3361   -2.7064 O.3       1 <0>         0.0000
     26 O2          2.0786    0.1811    3.6005 O.3       1 <0>         0.0000
     27 O3          9.3996   -3.7861   -2.4447 O.3       1 <0>         0.0000
     28 O4         -0.4351    0.0033    2.8883 O.3       1 <0>         0.0000
     29 S1          8.2731   -4.2960   -3.5889 S.3       1 <0>         0.0000
     30 S2          0.7833    1.1416    3.1370 S.3       1 <0>         0.0000
     31 Cl1         7.5427   -0.3629    2.0217 Cl        1 <0>         0.0000
     32 Cl2        -2.7309   -2.8060    7.5694 Cl        1 <0>         0.0000
     33 H1          3.7324   -2.5667   -1.8478 H         1 <0>         0.0000
     34 H2          6.0370   -4.0671    1.4629 H         1 <0>         0.0000
     35 H3          3.8872   -3.7909    2.4350 H         1 <0>         0.0000
     36 H4          4.0272   -0.6296   -0.4802 H         1 <0>         0.0000
     37 H5          5.1588   -3.8585   -3.4197 H         1 <0>         0.0000
     38 H6          7.4230   -5.3940   -0.1164 H         1 <0>         0.0000
     39 H7          2.7004   -2.2663    4.0087 H         1 <0>         0.0000
     40 H8          2.8199    0.8671    1.0784 H         1 <0>         0.0000
     41 H9         10.2721   -3.8608   -0.0476 H         1 <0>         0.0000
     42 H10         7.6152   -1.7267   -2.6615 H         1 <0>         0.0000
     43 H11        -0.1214   -2.5073    3.4369 H         1 <0>         0.0000
     44 H12        -1.8886    1.1509    4.8231 H         1 <0>         0.0000
     45 H13         9.5374   -2.4283    1.8707 H         1 <0>         0.0000
     46 H14         6.8655   -0.3176   -0.7583 H         1 <0>         0.0000
     47 H15        -1.1081   -3.7309    5.3947 H         1 <0>         0.0000
     48 H16        -2.8728   -0.0559    6.7777 H         1 <0>         0.0000
@<TRIPOS>BOND
     1    1    5 ar
     2    1   17 ar
     3    1   33 1
     4    2    6 ar
     5    2   17 ar
     6    2   34 1
     7    3    7 ar
     8    3   18 ar
     9    3   35 1
    10    4    8 ar
    11    4   18 ar
    12    4   36 1
    13    5   19 ar
    14    5   37 1
    15    6   19 ar
    16    6   38 1
    17    7   20 ar
    18    7   39 1
    19    8   20 ar
    20    8   40 1
    21    9   13 ar
    22    9   21 ar
    23    9   41 1
    24   10   14 ar
    25   10   21 ar
    26   10   42 1
    27   11   15 ar
    28   11   22 ar
    29   11   43 1
    30   12   16 ar
    31   12   22 ar
    32   12   44 1
    33   13   23 ar
    34   13   45 1
    35   14   23 ar
    36   14   46 1
    37   15   24 ar
    38   15   47 1
    39   16   24 ar
    40   16   48 1
    41   17   18 1
    42   19   25 1
    43   20   26 1
    44   21   27 1
    45   22   28 1
    46   23   31 1
    47   24   32 1
    48   25   29 1
    49   26   30 1
    50   27   29 1
    51   28   30 1
