@<TRIPOS>MOLECULE
*****
   30    31     0     0     0
SMALL
NO_CHARGES

@<TRIPOS>ATOM
      1 C1         -1.9413   -2.7788    9.8950 C.ar      1 <0>         0.0000
      2 C2          6.7365   -0.1456   11.1020 C.ar      1 <0>         0.0000
      3 C3         -1.6844   -1.6907    9.0517 C.ar      1 <0>         0.0000
      4 C4         -1.0879   -3.8875    9.9083 C.ar      1 <0>         0.0000
      5 C5          5.7247    0.7091   10.6483 C.ar      1 <0>         0.0000
      6 C6          7.0076   -1.3457   10.4349 C.ar      1 <0>         0.0000
      7 C7         -0.5665   -1.7020    8.2163 C.ar      1 <0>         0.0000
      8 C8          0.0346   -3.9157    9.0773 C.ar      1 <0>         0.0000
      9 C9          4.9735    0.3682    9.5223 C.ar      1 <0>         0.0000
     10 C10         6.2642   -1.7038    9.3086 C.ar      1 <0>         0.0000
     11 C11         0.2723   -2.8192    8.2460 C.ar      1 <0>         0.0000
     12 C12         5.2607   -0.8354    8.8738 C.ar      1 <0>         0.0000
     13 N1          2.8323   -1.9160    8.2704 N.pl3     1 <0>         0.0000
     14 O1          2.1733   -4.2104    7.0294 O.2       1 <0>         0.0000
     15 O2          1.5034   -1.9334    6.0551 O.2       1 <0>         0.0000
     16 O3          3.8227   -0.0586    6.7705 O.2       1 <0>         0.0000
     17 O4          5.0003   -2.3338    6.6987 O.2       1 <0>         0.0000
     18 F1          3.3229   -2.9031    9.1762 F         1 <0>         0.0000
     19 S1          1.6980   -2.8425    7.1764 S.o2      1 <0>         0.0000
     20 S2          4.3234   -1.2621    7.4190 S.o2      1 <0>         0.0000
     21 H1         -2.8139   -2.7635   10.5425 H         1 <0>         0.0000
     22 H2          7.3186    0.1268   11.9783 H         1 <0>         0.0000
     23 H3         -2.3550   -0.8363    9.0424 H         1 <0>         0.0000
     24 H4         -1.2960   -4.7303   10.5611 H         1 <0>         0.0000
     25 H5          5.5235    1.6416   11.1677 H         1 <0>         0.0000
     26 H6          7.7963   -2.0024   10.7903 H         1 <0>         0.0000
     27 H7         -0.3496   -0.8749    7.5476 H         1 <0>         0.0000
     28 H8          0.7075   -4.7667    9.0610 H         1 <0>         0.0000
     29 H9          4.1918    1.0193    9.1442 H         1 <0>         0.0000
     30 H10         6.4546   -2.6266    8.7707 H         1 <0>         0.0000
@<TRIPOS>BOND
     1    1    4 ar
     2    1    3 ar
     3    1   21 1
     4    2    6 ar
     5    2    5 ar
     6    2   22 1
     7    3    7 ar
     8    3   23 1
     9    4    8 ar
    10    4   24 1
    11    5    9 ar
    12    5   25 1
    13    6   10 ar
    14    6   26 1
    15    7   11 ar
    16    7   27 1
    17    8   11 ar
    18    8   28 1
    19    9   12 ar
    20    9   29 1
    21   10   12 ar
    22   10   30 1
    23   11   19 1
    24   12   20 1
    25   13   18 1
    26   13   19 1
    27   13   20 1
    28   14   19 2
    29   15   19 2
    30   16   20 2
    31   17   20 2
