@<TRIPOS>MOLECULE
*****
   48    51     0     0     0
SMALL
NO_CHARGES

@<TRIPOS>ATOM
      1 C1          4.2942   -2.4928   -3.3860 C.ar      1 <0>         0.0000
      2 C2          4.2047   -4.0343   -1.5289 C.ar      1 <0>         0.0000
      3 C3          3.3400   -1.5929    0.0552 C.ar      1 <0>         0.0000
      4 C4          2.0293   -1.0738   -1.8995 C.ar      1 <0>         0.0000
      5 C5          5.1014   -3.3839   -4.0917 C.ar      1 <0>         0.0000
      6 C6          5.0099   -4.9343   -2.2267 C.ar      1 <0>         0.0000
      7 C7          2.5856   -0.7016    0.8143 C.ar      1 <0>         0.0000
      8 C8          1.2516   -0.1932   -1.1472 C.ar      1 <0>         0.0000
      9 C9          8.1225   -1.7241   -3.9403 C.ar      1 <0>         0.0000
     10 C10         7.7514   -2.8901   -1.8449 C.ar      1 <0>         0.0000
     11 C11        -0.1186   -2.8306    0.7177 C.ar      1 <0>         0.0000
     12 C12         0.6616   -2.7934    3.0174 C.ar      1 <0>         0.0000
     13 C13         7.6125   -0.5499   -3.3822 C.ar      1 <0>         0.0000
     14 C14         7.2263   -1.7221   -1.2917 C.ar      1 <0>         0.0000
     15 C15         0.6086   -3.9993    0.4854 C.ar      1 <0>         0.0000
     16 C16         1.3882   -3.9643    2.7910 C.ar      1 <0>         0.0000
     17 C17         3.8567   -2.7902   -2.0850 C.ar      1 <0>         0.0000
     18 C18         3.0672   -1.8101   -1.3064 C.ar      1 <0>         0.0000
     19 C19         5.4789   -4.5840   -3.4923 C.ar      1 <0>         0.0000
     20 C20         1.5209   -0.0310    0.2114 C.ar      1 <0>         0.0000
     21 C21         8.1651   -2.8918   -3.1776 C.ar      1 <0>         0.0000
     22 C22        -0.0717   -2.2277    1.9741 C.ar      1 <0>         0.0000
     23 C23         7.1453   -0.5639   -2.0667 C.ar      1 <0>         0.0000
     24 C24         1.3629   -4.5497    1.5233 C.ar      1 <0>         0.0000
     25 O1          6.3895   -5.4002   -4.1888 O.3       1 <0>         0.0000
     26 O2          0.6372    0.8084    0.9111 O.3       1 <0>         0.0000
     27 O3          8.6212   -4.0382   -3.8491 O.3       1 <0>         0.0000
     28 O4         -0.7796   -1.0292    2.1540 O.3       1 <0>         0.0000
     29 S1          7.9109   -5.5189   -3.4720 S.3       1 <0>         0.0000
     30 S2          0.1693    0.3355    2.4550 S.3       1 <0>         0.0000
     31 Cl1         6.4232    0.8817   -1.3812 Cl        1 <0>         0.0000
     32 Cl2         2.3048   -6.0061    1.2295 Cl        1 <0>         0.0000
     33 H1          4.0572   -1.5281   -3.8253 H         1 <0>         0.0000
     34 H2          3.8360   -4.3065   -0.5447 H         1 <0>         0.0000
     35 H3          4.1612   -2.1246    0.5271 H         1 <0>         0.0000
     36 H4          1.7914   -1.2289   -2.9484 H         1 <0>         0.0000
     37 H5          5.4923   -3.1350   -5.0729 H         1 <0>         0.0000
     38 H6          5.2953   -5.8844   -1.7847 H         1 <0>         0.0000
     39 H7          2.7949   -0.5616    1.8692 H         1 <0>         0.0000
     40 H8          0.4142    0.3400   -1.5872 H         1 <0>         0.0000
     41 H9          8.4568   -1.7529   -4.9728 H         1 <0>         0.0000
     42 H10         7.7845   -3.8010   -1.2582 H         1 <0>         0.0000
     43 H11        -0.6880   -2.3628   -0.0781 H         1 <0>         0.0000
     44 H12         0.6796   -2.3138    3.9914 H         1 <0>         0.0000
     45 H13         7.5544    0.3586   -3.9731 H         1 <0>         0.0000
     46 H14         6.8684   -1.7167   -0.2675 H         1 <0>         0.0000
     47 H15         0.6061   -4.4626   -0.4957 H         1 <0>         0.0000
     48 H16         1.9690   -4.4153    3.5892 H         1 <0>         0.0000
@<TRIPOS>BOND
     1    1    5 ar
     2    1   17 ar
     3    1   33 1
     4    2    6 ar
     5    2   17 ar
     6    2   34 1
     7    3    7 ar
     8    3   18 ar
     9    3   35 1
    10    4    8 ar
    11    4   18 ar
    12    4   36 1
    13    5   19 ar
    14    5   37 1
    15    6   19 ar
    16    6   38 1
    17    7   20 ar
    18    7   39 1
    19    8   20 ar
    20    8   40 1
    21    9   13 ar
    22    9   21 ar
    23    9   41 1
    24   10   14 ar
    25   10   21 ar
    26   10   42 1
    27   11   15 ar
    28   11   22 ar
    29   11   43 1
    30   12   16 ar
    31   12   22 ar
    32   12   44 1
    33   13   23 ar
    34   13   45 1
    35   14   23 ar
    36   14   46 1
    37   15   24 ar
    38   15   47 1
    39   16   24 ar
    40   16   48 1
    41   17   18 1
    42   19   25 1
    43   20   26 1
    44   21   27 1
    45   22   28 1
    46   23   31 1
    47   24   32 1
    48   25   29 1
    49   26   30 1
    50   27   29 1
    51   28   30 1
