@<TRIPOS>MOLECULE
*****
   47    49     0     0     0
SMALL
NO_CHARGES

@<TRIPOS>ATOM
      1 C1         -0.3636    6.4739   -7.3857 C.ar      1 <0>         0.0000
      2 C2          1.6261    5.1380   -7.1865 C.ar      1 <0>         0.0000
      3 C3         -0.1962    6.5370   -8.7717 C.ar      1 <0>         0.0000
      4 C4          1.8130    5.1884   -8.5700 C.ar      1 <0>         0.0000
      5 C5          0.5397    5.7768   -6.5708 C.ar      1 <0>         0.0000
      6 C6          0.8963    5.8920   -9.3529 C.ar      1 <0>         0.0000
      7 C7          1.4920    1.5986   -0.4960 C.2       1 <0>         0.0000
      8 C8          2.7079    3.3463   -1.2527 C.2       1 <0>         0.0000
      9 C9          0.6504    4.7225   -1.8415 C.2       1 <0>         0.0000
     10 C10        -0.2127   -0.2195    0.1320 C.3       1 <0>         0.0000
     11 C11         0.4095    0.2484    1.4182 C.3       1 <0>         0.0000
     12 C12         1.2121    0.2930    0.1163 C.3       1 <0>         0.0000
     13 C13         1.7575    8.1269   -2.2528 C.3       1 <0>         0.0000
     14 C14         4.5970    1.9157    0.8152 C.3       1 <0>         0.0000
     15 C15         0.3806    5.7579   -5.0686 C.3       1 <0>         0.0000
     16 C16         1.1581    6.9043   -4.3981 C.3       1 <0>         0.0000
     17 C17         1.0141    6.9372   -2.8677 C.3       1 <0>         0.0000
     18 N1          0.6059    2.4813   -0.8604 N.2       1 <0>         0.0000
     19 N2          2.7797    2.0690   -0.7097 N.am      1 <0>         0.0000
     20 N3          1.3420    3.5690   -1.3267 N.am      1 <0>         0.0000
     21 N4          1.4981    5.6945   -2.2629 N.am      1 <0>         0.0000
     22 N5          3.9664    1.3894   -0.4110 N.3       1 <0>         0.0000
     23 O1          3.6589    4.0570   -1.5944 O.2       1 <0>         0.0000
     24 O2         -0.5675    4.7571   -1.8648 O.2       1 <0>         0.0000
     25 Cl1         1.1177    5.9605  -11.0973 Cl        1 <0>         0.0000
     26 H1         -1.2182    6.9728   -6.9338 H         1 <0>         0.0000
     27 H2          2.3387    4.5861   -6.5770 H         1 <0>         0.0000
     28 H3         -0.9051    7.0751   -9.3933 H         1 <0>         0.0000
     29 H4          2.6550    4.6862   -9.0363 H         1 <0>         0.0000
     30 H5         -0.3513   -1.2854   -0.0196 H         1 <0>         0.0000
     31 H6         -0.9587    0.4199   -0.3280 H         1 <0>         0.0000
     32 H7          0.0801    1.2023    1.8176 H         1 <0>         0.0000
     33 H8          0.7086   -0.4900    2.1562 H         1 <0>         0.0000
     34 H9          2.0211   -0.4221    0.0128 H         1 <0>         0.0000
     35 H10         2.8332    8.0666   -2.4564 H         1 <0>         0.0000
     36 H11         1.3900    9.0675   -2.6745 H         1 <0>         0.0000
     37 H12         1.6150    8.1534   -1.1686 H         1 <0>         0.0000
     38 H13         3.9475    1.6939    1.6656 H         1 <0>         0.0000
     39 H14         4.7890    2.9942    0.7700 H         1 <0>         0.0000
     40 H15         5.5417    1.3834    0.9544 H         1 <0>         0.0000
     41 H16        -0.6775    5.8317   -4.7973 H         1 <0>         0.0000
     42 H17         0.7362    4.8020   -4.6720 H         1 <0>         0.0000
     43 H18         0.8087    7.8627   -4.8009 H         1 <0>         0.0000
     44 H19         2.2214    6.8272   -4.6616 H         1 <0>         0.0000
     45 H20        -0.0467    7.0009   -2.6141 H         1 <0>         0.0000
     46 H21         2.5002    5.5175   -2.2070 H         1 <0>         0.0000
     47 H22         4.5862    1.5334   -1.2076 H         1 <0>         0.0000
@<TRIPOS>BOND
     1    1    3 ar
     2    1    5 ar
     3    1   26 1
     4    2    4 ar
     5    2    5 ar
     6    2   27 1
     7    3    6 ar
     8    3   28 1
     9    4    6 ar
    10    4   29 1
    11    5   15 1
    12    6   25 1
    13    7   12 1
    14    7   18 2
    15    7   19 1
    16    8   19 am
    17    8   20 am
    18    8   23 2
    19    9   20 am
    20    9   21 am
    21    9   24 2
    22   10   11 1
    23   10   12 1
    24   10   30 1
    25   10   31 1
    26   11   12 1
    27   11   32 1
    28   11   33 1
    29   12   34 1
    30   13   17 1
    31   13   35 1
    32   13   36 1
    33   13   37 1
    34   14   22 1
    35   14   38 1
    36   14   39 1
    37   14   40 1
    38   15   16 1
    39   15   41 1
    40   15   42 1
    41   16   17 1
    42   16   43 1
    43   16   44 1
    44   17   21 1
    45   17   45 1
    46   18   20 1
    47   19   22 1
    48   21   46 1
    49   22   47 1
