@<TRIPOS>MOLECULE
*****
   48    48     0     0     0
SMALL
NO_CHARGES

@<TRIPOS>ATOM
      1 C1          1.8846   -0.2597   -0.1768 C.2       1 <0>         0.0000
      2 C2         -0.1823   -1.6236   -2.3508 C.2       1 <0>         0.0000
      3 C3         -0.9405    0.5396    1.3118 C.3       1 <0>         0.0000
      4 C4          0.0401    1.5657   -0.4906 C.3       1 <0>         0.0000
      5 C5         -0.5277   -0.6133    0.3996 C.3       1 <0>         0.0000
      6 C6          0.4403    0.0562   -0.6294 C.3       1 <0>         0.0000
      7 C7          4.6366    0.7741    0.2818 C.3       1 <0>         0.0000
      8 C8          3.6152    1.5991    2.4311 C.3       1 <0>         0.0000
      9 C9          3.8505   -0.8806    2.0550 C.3       1 <0>         0.0000
     10 C10        -1.4116   -3.8649   -4.1735 C.3       1 <0>         0.0000
     11 C11        -0.1418   -2.4715   -5.8616 C.3       1 <0>         0.0000
     12 C12         1.1112   -3.5924   -3.9907 C.3       1 <0>         0.0000
     13 C13         3.6179    0.4788    1.3875 C.3       1 <0>         0.0000
     14 C14        -0.2121   -2.9389   -4.4052 C.3       1 <0>         0.0000
     15 N1          0.2740   -0.3749   -2.0154 N.am      1 <0>         0.0000
     16 O1          0.2482    1.3792   -3.9869 O.3       1 <0>         0.0000
     17 O2          2.5486   -1.1590   -0.6377 O.2       1 <0>         0.0000
     18 O3         -0.4219   -2.5419   -1.5706 O.2       1 <0>         0.0000
     19 O4          2.0820    1.4113   -2.3041 O.2       1 <0>         0.0000
     20 O5          2.0209   -0.3836   -4.0264 O.2       1 <0>         0.0000
     21 O6         -1.0675    1.6428    0.4365 O.3       1 <0>         0.0000
     22 O7          2.2573    0.5481    0.8426 O.3       1 <0>         0.0000
     23 O8         -0.4114   -1.6827   -3.6862 O.3       1 <0>         0.0000
     24 F1          0.0733   -1.6210    1.1601 F         1 <0>         0.0000
     25 S1          1.2643    0.6106   -3.2487 S.o2      1 <0>         0.0000
     26 H1         -1.9038    0.3684    1.8012 H         1 <0>         0.0000
     27 H2         -0.1642    0.6995    2.0753 H         1 <0>         0.0000
     28 H3          0.8778    2.1562   -0.1231 H         1 <0>         0.0000
     29 H4         -0.3058    1.9687   -1.4392 H         1 <0>         0.0000
     30 H5         -1.3801   -1.0531   -0.1118 H         1 <0>         0.0000
     31 H6          4.6657   -0.0284   -0.4549 H         1 <0>         0.0000
     32 H7          4.3710    1.6988   -0.2381 H         1 <0>         0.0000
     33 H8          5.6315    0.8894    0.7279 H         1 <0>         0.0000
     34 H9          2.8488    1.4142    3.1907 H         1 <0>         0.0000
     35 H10         3.4044    2.5616    1.9555 H         1 <0>         0.0000
     36 H11         4.5905    1.6582    2.9255 H         1 <0>         0.0000
     37 H12         3.0526   -1.0891    2.7751 H         1 <0>         0.0000
     38 H13         3.8684   -1.6812    1.3154 H         1 <0>         0.0000
     39 H14         4.8070   -0.8659    2.5904 H         1 <0>         0.0000
     40 H15        -1.4641   -4.1668   -3.1260 H         1 <0>         0.0000
     41 H16        -2.3414   -3.3496   -4.4379 H         1 <0>         0.0000
     42 H17        -1.3208   -4.7588   -4.8029 H         1 <0>         0.0000
     43 H18         0.6799   -1.7601   -5.9743 H         1 <0>         0.0000
     44 H19        -1.0727   -1.9696   -6.1446 H         1 <0>         0.0000
     45 H20         0.0153   -3.3268   -6.5287 H         1 <0>         0.0000
     46 H21         1.9172   -2.8574   -4.0577 H         1 <0>         0.0000
     47 H22         1.0645   -3.9714   -2.9680 H         1 <0>         0.0000
     48 H23         1.3277   -4.4289   -4.6657 H         1 <0>         0.0000
@<TRIPOS>BOND
     1    1    6 1
     2    1   17 2
     3    1   22 1
     4    2   15 am
     5    2   18 2
     6    2   23 1
     7    3    5 1
     8    3   21 1
     9    3   26 1
    10    3   27 1
    11    4    6 1
    12    4   21 1
    13    4   28 1
    14    4   29 1
    15    5    6 1
    16    5   24 1
    17    5   30 1
    18    6   15 1
    19    7   13 1
    20    7   31 1
    21    7   32 1
    22    7   33 1
    23    8   13 1
    24    8   34 1
    25    8   35 1
    26    8   36 1
    27    9   13 1
    28    9   37 1
    29    9   38 1
    30    9   39 1
    31   10   14 1
    32   10   40 1
    33   10   41 1
    34   10   42 1
    35   11   14 1
    36   11   43 1
    37   11   44 1
    38   11   45 1
    39   12   14 1
    40   12   46 1
    41   12   47 1
    42   12   48 1
    43   13   22 1
    44   14   23 1
    45   15   25 1
    46   16   25 1
    47   19   25 2
    48   20   25 2
