@<TRIPOS>MOLECULE
*****
   36    38     0     0     0
SMALL
NO_CHARGES

@<TRIPOS>ATOM
      1 C1         -2.8286   -2.2099   -0.9038 C.ar      1 <0>         0.0000
      2 C2         -2.1026   -3.0300    1.2022 C.ar      1 <0>         0.0000
      3 C3         -3.0157   -3.1163    0.1457 C.ar      1 <0>         0.0000
      4 C4         -1.7802   -1.2871   -0.8805 C.ar      1 <0>         0.0000
      5 C5         -0.9213   -1.2915    0.2411 C.ar      1 <0>         0.0000
      6 C6          0.5409   -0.4953   -5.1873 C.3       1 <0>         0.0000
      7 C7          0.4953    0.7621   -4.3411 C.3       1 <0>         0.0000
      8 C8          1.5517   -0.8142    0.7866 C.3       1 <0>         0.0000
      9 C9          1.3204   -0.2596   -0.6040 C.3       1 <0>         0.0000
     10 C10        -0.6484   -0.2257   -4.2984 C.3       1 <0>         0.0000
     11 C11         0.1903   -0.2878    0.4063 C.3       1 <0>         0.0000
     12 C12        -4.1402   -4.1227    0.1456 C.3       1 <0>         0.0000
     13 C13        -0.2662    1.0222    1.0337 C.3       1 <0>         0.0000
     14 C14        -1.5889   -0.3658   -2.0640 C.3       1 <0>         0.0000
     15 N1         -1.0960   -2.1502    1.2583 N.ar      1 <0>         0.0000
     16 N2         -0.7836   -1.0245   -3.1058 N.3       1 <0>         0.0000
     17 H1         -3.5141   -2.2172   -1.7519 H         1 <0>         0.0000
     18 H2         -2.1919   -3.7060    2.0534 H         1 <0>         0.0000
     19 H3          0.4101   -0.4017   -6.2615 H         1 <0>         0.0000
     20 H4          1.2173   -1.2826   -4.8695 H         1 <0>         0.0000
     21 H5          1.1391    0.7954   -3.4684 H         1 <0>         0.0000
     22 H6          0.3344    1.7148   -4.8372 H         1 <0>         0.0000
     23 H7          1.6574   -1.8884    0.8997 H         1 <0>         0.0000
     24 H8          2.1403   -0.2266    1.4862 H         1 <0>         0.0000
     25 H9          1.7471    0.7107   -0.8483 H         1 <0>         0.0000
     26 H10         1.2683   -0.9534   -1.4366 H         1 <0>         0.0000
     27 H11        -1.5710    0.0894   -4.7978 H         1 <0>         0.0000
     28 H12        -4.0751   -4.7929   -0.7188 H         1 <0>         0.0000
     29 H13        -4.1186   -4.7393    1.0487 H         1 <0>         0.0000
     30 H14        -5.1168   -3.6275    0.1017 H         1 <0>         0.0000
     31 H15         0.5758    1.7137    1.1465 H         1 <0>         0.0000
     32 H16        -0.6951    0.8412    2.0252 H         1 <0>         0.0000
     33 H17        -1.0289    1.5180    0.4214 H         1 <0>         0.0000
     34 H18        -2.5798   -0.0575   -2.4424 H         1 <0>         0.0000
     35 H19        -1.0634    0.5445   -1.7702 H         1 <0>         0.0000
     36 H20        -1.2001   -1.9253   -3.3362 H         1 <0>         0.0000
@<TRIPOS>BOND
     1    1    3 ar
     2    1    4 ar
     3    1   17 1
     4    2    3 ar
     5    2   15 ar
     6    2   18 1
     7    3   12 1
     8    4    5 ar
     9    4   14 1
    10    5   11 1
    11    5   15 ar
    12    6    7 1
    13    6   10 1
    14    6   19 1
    15    6   20 1
    16    7   10 1
    17    7   21 1
    18    7   22 1
    19    8    9 1
    20    8   11 1
    21    8   23 1
    22    8   24 1
    23    9   11 1
    24    9   25 1
    25    9   26 1
    26   10   16 1
    27   10   27 1
    28   11   13 1
    29   12   28 1
    30   12   29 1
    31   12   30 1
    32   13   31 1
    33   13   32 1
    34   13   33 1
    35   14   16 1
    36   14   34 1
    37   14   35 1
    38   16   36 1
