@<TRIPOS>MOLECULE
*****
   42    45     0     0     0
SMALL
NO_CHARGES

@<TRIPOS>ATOM
      1 C1          6.8282    1.4396   -1.6272 C.ar      1 <0>         0.0000
      2 C2          5.8776    2.3497   -2.0851 C.ar      1 <0>         0.0000
      3 C3          6.4818    0.4251   -0.7311 C.ar      1 <0>         0.0000
      4 C4          2.0421    2.0498    0.2904 C.ar      1 <0>         0.0000
      5 C5          4.1627    1.2107   -0.7697 C.ar      1 <0>         0.0000
      6 C6          0.1508    0.5972    0.4403 C.ar      1 <0>         0.0000
      7 C7          0.7185    1.8459    0.7060 C.ar      1 <0>         0.0000
      8 C8          4.5497    2.2296   -1.6509 C.ar      1 <0>         0.0000
      9 C9          5.1525    0.3210   -0.2977 C.ar      1 <0>         0.0000
     10 C10         2.7425    1.0297   -0.3619 C.ar      1 <0>         0.0000
     11 C11         0.9275   -0.3419   -0.2477 C.ar      1 <0>         0.0000
     12 C12        -1.0440   -1.7395   -0.6706 C.2       1 <0>         0.0000
     13 C13        -1.2128    0.1306    0.8578 C.3       1 <0>         0.0000
     14 C14         4.8809   -4.2142    1.4207 C.3       1 <0>         0.0000
     15 C15         3.6275   -3.5177    0.9359 C.3       1 <0>         0.0000
     16 C16         4.6979   -2.7274    1.6493 C.3       1 <0>         0.0000
     17 C17        -0.0473    2.9245    1.4323 C.3       1 <0>         0.0000
     18 C18         5.5289   -1.7584    0.8553 C.3       1 <0>         0.0000
     19 N1          2.1795   -0.1606   -0.6491 N.ar      1 <0>         0.0000
     20 N2          0.3287   -1.5789   -0.5335 N.am      1 <0>         0.0000
     21 O1         -1.5488   -2.6790   -1.2488 O.2       1 <0>         0.0000
     22 O2         -1.8067   -0.7534   -0.1248 O.3       1 <0>         0.0000
     23 O3          3.5730    3.0923   -2.0915 O.3       1 <0>         0.0000
     24 O4          4.7270   -0.5941    0.6146 O.3       1 <0>         0.0000
     25 H1          7.8578    1.5267   -1.9638 H         1 <0>         0.0000
     26 H2          6.1571    3.1403   -2.7787 H         1 <0>         0.0000
     27 H3          7.2406   -0.2569   -0.3665 H         1 <0>         0.0000
     28 H4          2.5357    2.9975    0.4781 H         1 <0>         0.0000
     29 H5         -1.1689   -0.4100    1.8137 H         1 <0>         0.0000
     30 H6         -1.9240    0.9505    0.9610 H         1 <0>         0.0000
     31 H7          4.8062   -4.8726    2.2809 H         1 <0>         0.0000
     32 H8          5.6085   -4.5306    0.6780 H         1 <0>         0.0000
     33 H9          3.5173   -3.3441   -0.1306 H         1 <0>         0.0000
     34 H10         2.6959   -3.7050    1.4609 H         1 <0>         0.0000
     35 H11         4.4763   -2.4102    2.6652 H         1 <0>         0.0000
     36 H12        -0.9560    3.2006    0.8854 H         1 <0>         0.0000
     37 H13        -0.3558    2.5943    2.4304 H         1 <0>         0.0000
     38 H14         0.5600    3.8248    1.5496 H         1 <0>         0.0000
     39 H15         5.8254   -2.2009   -0.1045 H         1 <0>         0.0000
     40 H16         6.4390   -1.4797    1.4035 H         1 <0>         0.0000
     41 H17         0.8867   -2.2335   -1.0711 H         1 <0>         0.0000
     42 H18         3.9633    3.6913   -2.7472 H         1 <0>         0.0000
@<TRIPOS>BOND
     1    1    2 ar
     2    1    3 ar
     3    1   25 1
     4    2    8 ar
     5    2   26 1
     6    3    9 ar
     7    3   27 1
     8    4    7 ar
     9    4   10 ar
    10    4   28 1
    11    5    8 ar
    12    5    9 ar
    13    5   10 1
    14    6    7 ar
    15    6   11 ar
    16    6   13 1
    17    7   17 1
    18    8   23 1
    19    9   24 1
    20   10   19 ar
    21   11   19 ar
    22   11   20 1
    23   12   20 am
    24   12   21 2
    25   12   22 1
    26   13   22 1
    27   13   29 1
    28   13   30 1
    29   14   15 1
    30   14   16 1
    31   14   31 1
    32   14   32 1
    33   15   16 1
    34   15   33 1
    35   15   34 1
    36   16   18 1
    37   16   35 1
    38   17   36 1
    39   17   37 1
    40   17   38 1
    41   18   24 1
    42   18   39 1
    43   18   40 1
    44   20   41 1
    45   23   42 1
