@<TRIPOS>MOLECULE
*****
   42    44     0     0     0
SMALL
NO_CHARGES

@<TRIPOS>ATOM
      1 C1          7.2474    5.1515   -7.8673 C.ar      1 <0>         0.0000
      2 C2          6.1812    5.7403   -7.1791 C.ar      1 <0>         0.0000
      3 C3          7.5950    3.8251   -7.5899 C.ar      1 <0>         0.0000
      4 C4          5.4713    5.0101   -6.2235 C.ar      1 <0>         0.0000
      5 C5          6.8830    3.0961   -6.6349 C.ar      1 <0>         0.0000
      6 C6          5.7002    2.0009   -4.0617 C.ar      1 <0>         0.0000
      7 C7          3.6634    3.0444   -4.7790 C.ar      1 <0>         0.0000
      8 C8          4.9887    1.2711   -3.1041 C.ar      1 <0>         0.0000
      9 C9          2.9602    2.3168   -3.8240 C.ar      1 <0>         0.0000
     10 C10         5.8097    3.6759   -5.9350 C.ar      1 <0>         0.0000
     11 C11         5.0558    2.9019   -4.9200 C.ar      1 <0>         0.0000
     12 C12         3.6010    1.4089   -2.9601 C.ar      1 <0>         0.0000
     13 C13         3.1262   -0.9406    1.1700 C.2       1 <0>         0.0000
     14 C14         0.2760    0.6970   -2.0808 C.3       1 <0>         0.0000
     15 C15         0.6863    1.1913   -0.6854 C.3       1 <0>         0.0000
     16 C16         1.5265   -0.0402   -2.5975 C.3       1 <0>         0.0000
     17 C17         2.1455    1.6343   -0.8768 C.3       1 <0>         0.0000
     18 C18         2.7706    0.6472   -1.9249 C.3       1 <0>         0.0000
     19 C19         3.6432   -0.4067   -1.2055 C.3       1 <0>         0.0000
     20 N1          2.9435   -1.1540   -0.1643 N.am      1 <0>         0.0000
     21 O1          3.8498   -0.0828    1.6616 O.2       1 <0>         0.0000
     22 H1          7.8008    5.7195   -8.6106 H         1 <0>         0.0000
     23 H2          5.9085    6.7735   -7.3792 H         1 <0>         0.0000
     24 H3          8.4158    3.3542   -8.1251 H         1 <0>         0.0000
     25 H4          4.6641    5.4881   -5.6749 H         1 <0>         0.0000
     26 H5          7.1445    2.0579   -6.4486 H         1 <0>         0.0000
     27 H6          6.7794    1.8850   -4.1180 H         1 <0>         0.0000
     28 H7          3.1221    3.7131   -5.4431 H         1 <0>         0.0000
     29 H8          5.5502    0.6001   -2.4636 H         1 <0>         0.0000
     30 H9          1.8845    2.4556   -3.7558 H         1 <0>         0.0000
     31 H10         2.5337   -1.6435    1.7868 H         1 <0>         0.0000
     32 H11        -0.6144    0.0598   -2.0716 H         1 <0>         0.0000
     33 H12         0.0494    1.5558   -2.7240 H         1 <0>         0.0000
     34 H13         0.0482    1.9994   -0.3138 H         1 <0>         0.0000
     35 H14         0.6282    0.3697    0.0367 H         1 <0>         0.0000
     36 H15         1.4741   -1.0942   -2.3014 H         1 <0>         0.0000
     37 H16         1.6007   -0.0344   -3.6872 H         1 <0>         0.0000
     38 H17         2.1672    2.6503   -1.2808 H         1 <0>         0.0000
     39 H18         2.7179    1.6458    0.0538 H         1 <0>         0.0000
     40 H19         4.4832    0.0766   -0.7051 H         1 <0>         0.0000
     41 H20         4.0429   -1.1222   -1.9330 H         1 <0>         0.0000
     42 H21         2.3207   -1.9049   -0.4305 H         1 <0>         0.0000
@<TRIPOS>BOND
     1    1    3 ar
     2    1    2 ar
     3    1   22 1
     4    2    4 ar
     5    2   23 1
     6    3    5 ar
     7    3   24 1
     8    4   10 ar
     9    4   25 1
    10    5   10 ar
    11    5   26 1
    12    6    8 ar
    13    6   11 ar
    14    6   27 1
    15    7    9 ar
    16    7   11 ar
    17    7   28 1
    18    8   12 ar
    19    8   29 1
    20    9   12 ar
    21    9   30 1
    22   10   11 1
    23   12   18 1
    24   13   20 am
    25   13   21 2
    26   13   31 1
    27   14   15 1
    28   14   16 1
    29   14   32 1
    30   14   33 1
    31   15   17 1
    32   15   34 1
    33   15   35 1
    34   16   18 1
    35   16   36 1
    36   16   37 1
    37   17   18 1
    38   17   38 1
    39   17   39 1
    40   18   19 1
    41   19   20 1
    42   19   40 1
    43   19   41 1
    44   20   42 1
