@<TRIPOS>MOLECULE
*****
   41    42     0     0     0
SMALL
NO_CHARGES

@<TRIPOS>ATOM
      1 C1        -10.0048   -0.3513   -2.1354 C.ar      1 <0>         0.0000
      2 C2          2.7812   -1.7841    3.8827 C.ar      1 <0>         0.0000
      3 C3         -9.8209    0.0639   -0.8118 C.ar      1 <0>         0.0000
      4 C4         -9.0458   -0.0237   -3.0992 C.ar      1 <0>         0.0000
      5 C5          3.1871   -0.7506    3.0328 C.ar      1 <0>         0.0000
      6 C6          1.4174   -1.9779    4.1311 C.ar      1 <0>         0.0000
      7 C7         -8.6864    0.7996   -0.4587 C.ar      1 <0>         0.0000
      8 C8         -7.9126    0.7129   -2.7391 C.ar      1 <0>         0.0000
      9 C9          2.2340    0.0812    2.4356 C.ar      1 <0>         0.0000
     10 C10         0.4695   -1.1438    3.5328 C.ar      1 <0>         0.0000
     11 C11        -7.7170    1.1351   -1.4162 C.ar      1 <0>         0.0000
     12 C12         0.8654   -0.1020    2.6789 C.ar      1 <0>         0.0000
     13 C13        -3.1028    0.8010    0.6347 C.2       1 <0>         0.0000
     14 C14        -6.4678    1.8873   -1.0157 C.3       1 <0>         0.0000
     15 C15        -0.1739    0.7575    1.9986 C.3       1 <0>         0.0000
     16 C16        -4.1080    1.7135   -0.0568 C.3       1 <0>         0.0000
     17 C17        -5.3792    0.9534   -0.4586 C.3       1 <0>         0.0000
     18 C18        -0.7543    0.0563    0.7540 C.3       1 <0>         0.0000
     19 N1         -1.8320    0.8129    0.1265 N.am      1 <0>         0.0000
     20 O1         -3.4176    0.0892    1.5900 O.2       1 <0>         0.0000
     21 H1        -10.8877   -0.9216   -2.4129 H         1 <0>         0.0000
     22 H2          3.5198   -2.4302    4.3502 H         1 <0>         0.0000
     23 H3        -10.5624   -0.1835   -0.0562 H         1 <0>         0.0000
     24 H4         -9.1815   -0.3388   -4.1309 H         1 <0>         0.0000
     25 H5          4.2446   -0.5900    2.8376 H         1 <0>         0.0000
     26 H6          1.0935   -2.7767    4.7937 H         1 <0>         0.0000
     27 H7         -8.5508    1.1192    0.5729 H         1 <0>         0.0000
     28 H8         -7.1721    0.9663   -3.4957 H         1 <0>         0.0000
     29 H9          2.5577    0.8868    1.7788 H         1 <0>         0.0000
     30 H10        -0.5898   -1.2959    3.7305 H         1 <0>         0.0000
     31 H11        -6.7148    2.6382   -0.2550 H         1 <0>         0.0000
     32 H12        -6.0728    2.4344   -1.8804 H         1 <0>         0.0000
     33 H13         0.2595    1.7196    1.7029 H         1 <0>         0.0000
     34 H14        -1.0031    0.9641    2.6815 H         1 <0>         0.0000
     35 H15        -3.6652    2.2067   -0.9308 H         1 <0>         0.0000
     36 H16        -4.3678    2.5019    0.6604 H         1 <0>         0.0000
     37 H17        -5.7591    0.4173    0.4157 H         1 <0>         0.0000
     38 H18        -5.1336    0.1925   -1.2091 H         1 <0>         0.0000
     39 H19         0.0305   -0.1122    0.0103 H         1 <0>         0.0000
     40 H20        -1.1564   -0.9173    1.0418 H         1 <0>         0.0000
     41 H21        -1.6046    1.4828   -0.5952 H         1 <0>         0.0000
@<TRIPOS>BOND
     1    1    4 ar
     2    1    3 ar
     3    1   21 1
     4    2    6 ar
     5    2    5 ar
     6    2   22 1
     7    3    7 ar
     8    3   23 1
     9    4    8 ar
    10    4   24 1
    11    5    9 ar
    12    5   25 1
    13    6   10 ar
    14    6   26 1
    15    7   11 ar
    16    7   27 1
    17    8   11 ar
    18    8   28 1
    19    9   12 ar
    20    9   29 1
    21   10   12 ar
    22   10   30 1
    23   11   14 1
    24   12   15 1
    25   13   16 1
    26   13   19 am
    27   13   20 2
    28   14   17 1
    29   14   31 1
    30   14   32 1
    31   15   18 1
    32   15   33 1
    33   15   34 1
    34   16   17 1
    35   16   35 1
    36   16   36 1
    37   17   37 1
    38   17   38 1
    39   18   19 1
    40   18   39 1
    41   18   40 1
    42   19   41 1
