@<TRIPOS>MOLECULE
*****
   25    26     0     0     0
SMALL
NO_CHARGES

@<TRIPOS>ATOM
      1 C1         -4.0732    3.5021    1.2107 C.ar      1 <0>         0.0000
      2 C2         -4.6331    3.4571    2.4826 C.ar      1 <0>         0.0000
      3 C3          1.6758   -2.2676    0.6043 C.ar      1 <0>         0.0000
      4 C4          3.0853   -0.4285    1.2883 C.ar      1 <0>         0.0000
      5 C5          0.5979   -1.6917    1.2768 C.ar      1 <0>         0.0000
      6 C6          2.0075    0.1475    1.9608 C.ar      1 <0>         0.0000
      7 C7         -2.9441    2.7420    0.9269 C.ar      1 <0>         0.0000
      8 C8         -4.0308    2.6425    3.4279 C.ar      1 <0>         0.0000
      9 C9          2.9194   -1.6360    0.6100 C.ar      1 <0>         0.0000
     10 C10         0.7638   -0.4841    1.9551 C.ar      1 <0>         0.0000
     11 C11        -2.4173    1.9595    1.9418 C.ar      1 <0>         0.0000
     12 N1         -2.9334    1.8899    3.1894 N.ar      1 <0>         0.0000
     13 O1         -1.4915   -0.8555    3.1278 O.2       1 <0>         0.0000
     14 O2         -0.0378    1.0945    3.8405 O.2       1 <0>         0.0000
     15 O3         -1.3017    1.1997    1.6862 O.3       1 <0>         0.0000
     16 F1          3.9542   -2.1887   -0.0366 F         1 <0>         0.0000
     17 S1         -0.5848    0.2352    2.7984 S.o2      1 <0>         0.0000
     18 H1         -4.5167    4.1284    0.4422 H         1 <0>         0.0000
     19 H2         -5.5131    4.0410    2.7267 H         1 <0>         0.0000
     20 H3          1.5473   -3.2078    0.0760 H         1 <0>         0.0000
     21 H4          4.0537    0.0630    1.2923 H         1 <0>         0.0000
     22 H5         -0.3665   -2.1924    1.2652 H         1 <0>         0.0000
     23 H6          2.1477    1.0885    2.4859 H         1 <0>         0.0000
     24 H7         -2.4957    2.7658   -0.0602 H         1 <0>         0.0000
     25 H8         -4.4304    2.5724    4.4342 H         1 <0>         0.0000
@<TRIPOS>BOND
     1    1    2 ar
     2    1    7 ar
     3    1   18 1
     4    2    8 ar
     5    2   19 1
     6    3    5 ar
     7    3    9 ar
     8    3   20 1
     9    4    6 ar
    10    4    9 ar
    11    4   21 1
    12    5   10 ar
    13    5   22 1
    14    6   10 ar
    15    6   23 1
    16    7   11 ar
    17    7   24 1
    18    8   12 ar
    19    8   25 1
    20    9   16 1
    21   10   17 1
    22   11   12 ar
    23   11   15 1
    24   13   17 2
    25   14   17 2
    26   15   17 1
