@<TRIPOS>MOLECULE
*****
   28    30     0     0     0
SMALL
NO_CHARGES

@<TRIPOS>ATOM
      1 C1         -1.3425    0.6035   -1.3368 C.ar      1 <0>         0.0000
      2 C2         -1.0044   -0.4390   -0.4582 C.ar      1 <0>         0.0000
      3 C3         -2.3779    0.4389   -2.2639 C.ar      1 <0>         0.0000
      4 C4         -1.6748   -1.6682   -0.4794 C.ar      1 <0>         0.0000
      5 C5         -3.0506   -0.7838   -2.2911 C.ar      1 <0>         0.0000
      6 C6         -2.6971   -1.8140   -1.4130 C.ar      1 <0>         0.0000
      7 C7         -6.6517   -0.6418   -3.1295 C.cat     1 <0>         0.0000
      8 C8         -8.8454   -0.2111   -3.7239 C.3       1 <0>         0.0000
      9 C9         -8.2011   -1.2271   -4.6843 C.3       1 <0>         0.0000
     10 C10        -4.1902   -2.7759   -2.8078 C.3       1 <0>         0.0000
     11 C11        -4.2357   -1.2569   -3.0895 C.3       1 <0>         0.0000
     12 N1         -7.8097   -0.1456   -2.6758 N.pl3     1 <0>         0.0000
     13 N2         -5.4724   -0.6032   -2.5442 N.pl3     1 <0>         0.0000
     14 O1         -3.4650   -2.9413   -1.5707 O.3       1 <0>         0.0000
     15 O2         -6.7748   -1.2303   -4.3073 O.3       1 <0>         0.0000
     16 H1         -0.7914    1.5378   -1.3009 H         1 <0>         0.0000
     17 H2         -0.1948   -0.2940    0.2514 H         1 <0>         0.0000
     18 H3         -2.6396    1.2408   -2.9499 H         1 <0>         0.0000
     19 H4         -1.4080   -2.4789    0.1908 H         1 <0>         0.0000
     20 H5         -8.9924    0.7704   -4.1830 H         1 <0>         0.0000
     21 H6         -9.7902   -0.5706   -3.3144 H         1 <0>         0.0000
     22 H7         -8.5657   -2.2447   -4.5400 H         1 <0>         0.0000
     23 H8         -8.2522   -0.9468   -5.7343 H         1 <0>         0.0000
     24 H9         -5.1712   -3.2395   -2.6959 H         1 <0>         0.0000
     25 H10        -3.6353   -3.2749   -3.6092 H         1 <0>         0.0000
     26 H11        -4.1975   -1.0335   -4.1561 H         1 <0>         0.0000
     27 H12        -7.8766    0.4561   -1.8629 H         1 <0>         0.0000
     28 H13        -5.3839   -0.1442   -1.6422 H         1 <0>         0.0000
@<TRIPOS>BOND
     1    1    2 ar
     2    1    3 ar
     3    1   16 1
     4    2    4 ar
     5    2   17 1
     6    3    5 ar
     7    3   18 1
     8    4    6 ar
     9    4   19 1
    10    5    6 ar
    11    5   11 1
    12    6   14 1
    13    7   12 2
    14    7   13 1
    15    7   15 1
    16    8    9 1
    17    8   12 1
    18    8   20 1
    19    8   21 1
    20    9   15 1
    21    9   22 1
    22    9   23 1
    23   10   11 1
    24   10   14 1
    25   10   24 1
    26   10   25 1
    27   11   13 1
    28   11   26 1
    29   12   27 1
    30   13   28 1
