@<TRIPOS>MOLECULE
*****
   12    12     0     0     0
SMALL
NO_CHARGES

@<TRIPOS>ATOM
      1 C1          0.0222   -1.0925   -0.4067 C.2       1 <0>         0.0000
      2 C2         -0.0039    1.1615    0.1031 C.2       1 <0>         0.0000
      3 C3          0.0994   -0.3876   -1.7311 C.3       1 <0>         0.0000
      4 C4          0.0887    1.0968   -1.3950 C.3       1 <0>         0.0000
      5 N1         -0.0347   -0.1298    0.5722 N.am      1 <0>         0.0000
      6 O1          0.0136   -2.3086   -0.2779 O.2       1 <0>         0.0000
      7 O2         -0.0410    2.2033    0.7425 O.2       1 <0>         0.0000
      8 Br1        -0.1444   -0.5429    2.3928 Br        1 <0>         0.0000
      9 H1          1.0204   -0.6722   -2.2484 H         1 <0>         0.0000
     10 H2         -0.7621   -0.6628   -2.3467 H         1 <0>         0.0000
     11 H3         -0.7738    1.6003   -1.8414 H         1 <0>         0.0000
     12 H4          1.0078    1.5870   -1.7292 H         1 <0>         0.0000
@<TRIPOS>BOND
     1    1    3 1
     2    1    5 am
     3    1    6 2
     4    2    4 1
     5    2    5 am
     6    2    7 2
     7    3    4 1
     8    3    9 1
     9    3   10 1
    10    4   11 1
    11    4   12 1
    12    5    8 1
