@<TRIPOS>MOLECULE
*****
   19    20     0     0     0
SMALL
NO_CHARGES

@<TRIPOS>ATOM
      1 C1          5.3290    0.5820    0.0650 C.ar      1 <0>         0.0000
      2 C2          5.7630   -0.0370    1.2320 C.ar      1 <0>         0.0000
      3 C3          4.1510    0.1350   -0.5090 C.ar      1 <0>         0.0000
      4 C4          5.0110   -1.0710    1.7830 C.ar      1 <0>         0.0000
      5 C5          1.0830   -0.6990   -3.5780 C.2       1 <0>         0.0000
      6 C6          0.0320   -1.5240   -3.3320 C.2       1 <0>         0.0000
      7 C7          3.4590   -0.9170    0.1040 C.ar      1 <0>         0.0000
      8 C8          1.6120   -1.3240   -1.5600 C.2       1 <0>         0.0000
      9 N1          3.8780   -1.4990    1.2260 N.ar      1 <0>         0.0000
     10 N2          1.9910   -0.5830   -2.5640 N.2       1 <0>         0.0000
     11 N3          2.2790   -1.4720   -0.3430 N.pl3     1 <0>         0.0000
     12 S1          0.1460   -2.2090   -1.7660 S.3       1 <0>         0.0000
     13 H1          5.8830    1.3730   -0.3730 H         1 <0>         0.0000
     14 H2          6.6590    0.2770    1.7020 H         1 <0>         0.0000
     15 H3          3.7850    0.5870   -1.3900 H         1 <0>         0.0000
     16 H4          5.3350   -1.5450    2.6750 H         1 <0>         0.0000
     17 H5          1.2050   -0.1740   -4.4910 H         1 <0>         0.0000
     18 H6         -0.7740   -1.7510   -3.9790 H         1 <0>         0.0000
     19 H7          1.9090   -2.1730    0.3050 H         1 <0>         0.0000
@<TRIPOS>BOND
     1    1    2 ar
     2    1    3 ar
     3    1   13 1
     4    2    4 ar
     5    2   14 1
     6    3    7 ar
     7    3   15 1
     8    4    9 ar
     9    4   16 1
    10    5    6 2
    11    5   10 1
    12    5   17 1
    13    6   12 1
    14    6   18 1
    15    7    9 ar
    16    7   11 1
    17    8   10 2
    18    8   11 1
    19    8   12 1
    20   11   19 1
