@<TRIPOS>MOLECULE
*****
   46    48     0     0     0
SMALL
NO_CHARGES

@<TRIPOS>ATOM
      1 C1         -3.6877   -5.4304   10.7495 C.ar      1 <0>         0.0000
      2 C2         -2.9913   -4.4043   11.4230 C.ar      1 <0>         0.0000
      3 C3         -3.9836   -5.3491    9.3812 C.ar      1 <0>         0.0000
      4 C4         -2.5569   -3.2468   10.7613 C.ar      1 <0>         0.0000
      5 C5         -6.5013   -1.5970    9.2981 C.ar      1 <0>         0.0000
      6 C6         -6.6809   -2.3946    8.1679 C.ar      1 <0>         0.0000
      7 C7         -5.4881   -0.6387    9.3216 C.ar      1 <0>         0.0000
      8 C8         -5.8474   -2.2337    7.0611 C.ar      1 <0>         0.0000
      9 C9         -4.6545   -0.4778    8.2149 C.ar      1 <0>         0.0000
     10 C10        -4.8341   -1.2753    7.0846 C.ar      1 <0>         0.0000
     11 C11        -3.5467   -4.1964    8.7392 C.ar      1 <0>         0.0000
     12 C12        -2.8574   -3.1807    9.4059 C.ar      1 <0>         0.0000
     13 C13        -3.0787   -2.5913    7.2733 C.cat     1 <0>         0.0000
     14 C14        -7.7736   -3.4130    8.1684 C.3       1 <0>         0.0000
     15 C15        -5.3167    0.2020   10.5443 C.3       1 <0>         0.0000
     16 C16        -6.0421   -3.0908    5.8502 C.3       1 <0>         0.0000
     17 C17        -3.5686    0.5514    8.2427 C.3       1 <0>         0.0000
     18 C18        -4.3068   -4.5351    6.3653 C.3       1 <0>         0.0000
     19 C19        -1.8867   -0.9679    8.7069 C.3       1 <0>         0.0000
     20 N1         -3.9945   -1.1128    5.9693 N.2       1 <0>         0.0000
     21 N2         -2.9970   -1.8612    6.0774 N.2       1 <0>         0.0000
     22 N3         -3.6584   -3.7863    7.4265 N.pl3     1 <0>         0.0000
     23 N4         -2.5910   -2.2128    8.4594 N.pl3     1 <0>         0.0000
     24 H1         -4.0031   -6.3086   11.3083 H         1 <0>         0.0000
     25 H2         -2.7864   -4.5153   12.4856 H         1 <0>         0.0000
     26 H3         -4.5172   -6.1315    8.8571 H         1 <0>         0.0000
     27 H4         -2.0225   -2.4551   11.2706 H         1 <0>         0.0000
     28 H5         -7.1513   -1.7224   10.1611 H         1 <0>         0.0000
     29 H6         -8.7006   -2.9754    7.7803 H         1 <0>         0.0000
     30 H7         -7.5089   -4.2783    7.5485 H         1 <0>         0.0000
     31 H8         -7.9622   -3.7911    9.1808 H         1 <0>         0.0000
     32 H9         -4.6235   -0.2806   11.2428 H         1 <0>         0.0000
     33 H10        -4.9236    1.1942   10.2909 H         1 <0>         0.0000
     34 H11        -6.2750    0.3589   11.0546 H         1 <0>         0.0000
     35 H12        -6.7409   -2.6108    5.1569 H         1 <0>         0.0000
     36 H13        -5.0919   -3.2603    5.3310 H         1 <0>         0.0000
     37 H14        -6.4387   -4.0751    6.1245 H         1 <0>         0.0000
     38 H15        -2.6453    0.1146    8.6379 H         1 <0>         0.0000
     39 H16        -3.3712    0.9424    7.2381 H         1 <0>         0.0000
     40 H17        -3.8511    1.4045    8.8701 H         1 <0>         0.0000
     41 H18        -5.3600   -4.2429    6.3412 H         1 <0>         0.0000
     42 H19        -3.8246   -4.3062    5.4109 H         1 <0>         0.0000
     43 H20        -4.2105   -5.6055    6.5675 H         1 <0>         0.0000
     44 H21        -0.8171   -1.1282    8.5457 H         1 <0>         0.0000
     45 H22        -2.2438   -0.1862    8.0305 H         1 <0>         0.0000
     46 H23        -2.0601   -0.6449    9.7374 H         1 <0>         0.0000
@<TRIPOS>BOND
     1    1    2 ar
     2    1    3 ar
     3    1   24 1
     4    2    4 ar
     5    2   25 1
     6    3   11 ar
     7    3   26 1
     8    4   12 ar
     9    4   27 1
    10    5    7 ar
    11    5    6 ar
    12    5   28 1
    13    6    8 ar
    14    6   14 1
    15    7    9 ar
    16    7   15 1
    17    8   10 ar
    18    8   16 1
    19    9   10 ar
    20    9   17 1
    21   10   20 1
    22   11   12 ar
    23   11   22 1
    24   12   23 1
    25   13   21 1
    26   13   22 1
    27   13   23 2
    28   14   29 1
    29   14   30 1
    30   14   31 1
    31   15   32 1
    32   15   33 1
    33   15   34 1
    34   16   35 1
    35   16   36 1
    36   16   37 1
    37   17   38 1
    38   17   39 1
    39   17   40 1
    40   18   22 1
    41   18   41 1
    42   18   42 1
    43   18   43 1
    44   19   23 1
    45   19   44 1
    46   19   45 1
    47   19   46 1
    48   20   21 2
