@<TRIPOS>MOLECULE
*****
   50    53     0     0     0
SMALL
NO_CHARGES

@<TRIPOS>ATOM
      1 C1          9.6117   -1.3518    0.6182 C.ar      1 <0>         0.0000
      2 C2          9.6922   -2.1916   -0.5157 C.ar      1 <0>         0.0000
      3 C3          8.4014   -0.7965    1.0235 C.ar      1 <0>         0.0000
      4 C4          1.5472    1.2341    0.8008 C.ar      1 <0>         0.0000
      5 C5          8.5644   -2.5001   -1.2773 C.ar      1 <0>         0.0000
      6 C6          0.9271    2.3369    1.3919 C.ar      1 <0>         0.0000
      7 C7          5.8563   -0.7409    0.3408 C.2       1 <0>         0.0000
      8 C8          7.2496   -1.0952    0.2715 C.ar      1 <0>         0.0000
      9 C9          0.7978    0.2566    0.1382 C.ar      1 <0>         0.0000
     10 C10        -0.6112    0.3555    0.0360 C.ar      1 <0>         0.0000
     11 C11         7.3633   -1.9349   -0.8571 C.ar      1 <0>         0.0000
     12 C12        -1.2217    1.4954    0.5889 C.ar      1 <0>         0.0000
     13 C13        -0.4413    2.4397    1.2667 C.ar      1 <0>         0.0000
     14 C14         5.2445   -1.3698   -0.7109 C.2       1 <0>         0.0000
     15 C15         3.8455   -1.3855   -1.1828 C.2       1 <0>         0.0000
     16 C16        -0.7088   -2.0936   -0.3188 C.3       1 <0>         0.0000
     17 C17         1.5136   -0.8476   -0.6270 C.3       1 <0>         0.0000
     18 C18        -1.3800   -0.7543   -0.6937 C.3       1 <0>         0.0000
     19 C19         0.7829   -2.2352   -0.6392 C.3       1 <0>         0.0000
     20 C20        -1.3651   -0.4950   -2.2174 C.3       1 <0>         0.0000
     21 C21        -2.8520   -0.9079   -0.2496 C.3       1 <0>         0.0000
     22 C22         1.3915   -3.2074    0.4056 C.3       1 <0>         0.0000
     23 N1          2.9274   -0.9216   -0.2770 N.am      1 <0>         0.0000
     24 O1          3.5368   -1.7667   -2.3167 O.2       1 <0>         0.0000
     25 O2          6.1430   -2.0993   -1.4552 O.3       1 <0>         0.0000
     26 O3         -2.5660    1.7271    0.4671 O.3       1 <0>         0.0000
     27 O4          0.9003   -2.8392   -1.9149 O.3       1 <0>         0.0000
     28 F1         -1.1075    3.5147    1.7950 F         1 <0>         0.0000
     29 F2          0.6096   -4.2889    0.6011 F         1 <0>         0.0000
     30 F3          2.6108   -3.6713    0.0500 F         1 <0>         0.0000
     31 F4          1.5368   -2.5946    1.6208 F         1 <0>         0.0000
     32 H1         10.5158   -1.1387    1.1816 H         1 <0>         0.0000
     33 H2         10.6548   -2.6062   -0.8014 H         1 <0>         0.0000
     34 H3          8.3481   -0.1525    1.8970 H         1 <0>         0.0000
     35 H4          2.6280    1.1688    0.8262 H         1 <0>         0.0000
     36 H5          8.6129   -3.1424   -2.1509 H         1 <0>         0.0000
     37 H6          1.4867    3.1070    1.9132 H         1 <0>         0.0000
     38 H7          5.3845   -0.0835    1.0598 H         1 <0>         0.0000
     39 H8         -0.8636   -2.2370    0.7544 H         1 <0>         0.0000
     40 H9         -1.2144   -2.9150   -0.8316 H         1 <0>         0.0000
     41 H10         1.5023   -0.5521   -1.6787 H         1 <0>         0.0000
     42 H11        -1.8725   -1.3119   -2.7405 H         1 <0>         0.0000
     43 H12        -0.3577   -0.4241   -2.6308 H         1 <0>         0.0000
     44 H13        -1.8919    0.4383   -2.4394 H         1 <0>         0.0000
     45 H14        -3.2440   -1.8454   -0.6580 H         1 <0>         0.0000
     46 H15        -3.4779   -0.0934   -0.6097 H         1 <0>         0.0000
     47 H16        -2.9435   -0.9493    0.8401 H         1 <0>         0.0000
     48 H17         3.1658   -0.9759    0.7054 H         1 <0>         0.0000
     49 H18        -2.7673    2.5632    0.9224 H         1 <0>         0.0000
     50 H19         1.8048   -2.6679   -2.2558 H         1 <0>         0.0000
@<TRIPOS>BOND
     1    1    2 ar
     2    1    3 ar
     3    1   32 1
     4    2    5 ar
     5    2   33 1
     6    3    8 ar
     7    3   34 1
     8    4    6 ar
     9    4    9 ar
    10    4   35 1
    11    5   11 ar
    12    5   36 1
    13    6   13 ar
    14    6   37 1
    15    7    8 1
    16    7   14 2
    17    7   38 1
    18    8   11 ar
    19    9   10 ar
    20    9   17 1
    21   10   12 ar
    22   10   18 1
    23   11   25 1
    24   12   13 ar
    25   12   26 1
    26   13   28 1
    27   14   15 1
    28   14   25 1
    29   15   23 am
    30   15   24 2
    31   16   18 1
    32   16   19 1
    33   16   39 1
    34   16   40 1
    35   17   19 1
    36   17   23 1
    37   17   41 1
    38   18   20 1
    39   18   21 1
    40   19   22 1
    41   19   27 1
    42   20   42 1
    43   20   43 1
    44   20   44 1
    45   21   45 1
    46   21   46 1
    47   21   47 1
    48   22   29 1
    49   22   30 1
    50   22   31 1
    51   23   48 1
    52   26   49 1
    53   27   50 1
