@<TRIPOS>MOLECULE
*****
   47    48     0     0     0
SMALL
NO_CHARGES

@<TRIPOS>ATOM
      1 C1          1.8273    0.7845   -1.1356 C.2       1 <0>         0.0000
      2 C2         -0.1722    0.8221    1.2398 C.2       1 <0>         0.0000
      3 C3         -0.5260   -0.5474   -3.2748 C.3       1 <0>         0.0000
      4 C4         -0.5412    1.3370   -2.0052 C.3       1 <0>         0.0000
      5 C5          0.2698   -0.9650   -2.0398 C.3       1 <0>         0.0000
      6 C6          0.3497    0.3627   -1.1925 C.3       1 <0>         0.0000
      7 C7          4.3690    1.9435    0.1033 C.3       1 <0>         0.0000
      8 C8          3.9311    0.0543    1.7300 C.3       1 <0>         0.0000
      9 C9          4.4982   -0.4793   -0.6673 C.3       1 <0>         0.0000
     10 C10         1.2021    2.9741    2.8292 C.3       1 <0>         0.0000
     11 C11         0.2866    4.4195    0.9799 C.3       1 <0>         0.0000
     12 C12        -1.3098    3.2783    2.5676 C.3       1 <0>         0.0000
     13 C13         3.8343    0.5221    0.2788 C.3       1 <0>         0.0000
     14 C14         0.0418    3.1926    1.8576 C.3       1 <0>         0.0000
     15 N1         -0.2237    0.0074    0.1008 N.am      1 <0>         0.0000
     16 O1          2.3876    1.2355   -2.1190 O.2       1 <0>         0.0000
     17 O2         -0.3080    0.3908    2.3648 O.2       1 <0>         0.0000
     18 O3         -1.4903   -2.1137    0.9927 O.2       1 <0>         0.0000
     19 O4          1.0252   -2.2073    0.7161 O.2       1 <0>         0.0000
     20 O5         -1.3559    0.5211   -2.8429 O.3       1 <0>         0.0000
     21 O6         -0.4921   -1.9258   -1.2840 O.3       1 <0>         0.0000
     22 O7          2.3664    0.4999    0.0424 O.3       1 <0>         0.0000
     23 O8          0.0031    2.0960    0.8551 O.3       1 <0>         0.0000
     24 S1         -0.2799   -1.6992    0.3272 S.o2      1 <0>         0.0000
     25 H1          0.1739   -0.2180   -4.0561 H         1 <0>         0.0000
     26 H2         -1.1553   -1.3544   -3.6529 H         1 <0>         0.0000
     27 H3         -1.1901    1.9257   -1.3606 H         1 <0>         0.0000
     28 H4          0.1012    1.9933   -2.6033 H         1 <0>         0.0000
     29 H5          1.2517   -1.3861   -2.2635 H         1 <0>         0.0000
     30 H6          4.3041    2.2711   -0.9349 H         1 <0>         0.0000
     31 H7          3.8115    2.6442    0.7317 H         1 <0>         0.0000
     32 H8          5.4177    1.9715    0.4161 H         1 <0>         0.0000
     33 H9          3.4619   -0.9261    1.8444 H         1 <0>         0.0000
     34 H10         3.4249    0.7558    2.3983 H         1 <0>         0.0000
     35 H11         4.9814   -0.0147    2.0281 H         1 <0>         0.0000
     36 H12         4.0368   -1.4651   -0.5556 H         1 <0>         0.0000
     37 H13         4.4239   -0.1592   -1.7079 H         1 <0>         0.0000
     38 H14         5.5581   -0.5680   -0.4095 H         1 <0>         0.0000
     39 H15         1.0461    2.0906    3.4484 H         1 <0>         0.0000
     40 H16         2.1413    2.8640    2.2807 H         1 <0>         0.0000
     41 H17         1.2899    3.8489    3.4814 H         1 <0>         0.0000
     42 H18        -0.5258    4.5486    0.2589 H         1 <0>         0.0000
     43 H19         1.2267    4.3190    0.4296 H         1 <0>         0.0000
     44 H20         0.3424    5.3168    1.6026 H         1 <0>         0.0000
     45 H21        -2.1196    3.3710    1.8374 H         1 <0>         0.0000
     46 H22        -1.4903    2.3998    3.1881 H         1 <0>         0.0000
     47 H23        -1.3244    4.1667    3.2069 H         1 <0>         0.0000
@<TRIPOS>BOND
     1    1    6 1
     2    1   16 2
     3    1   22 1
     4    2   15 am
     5    2   17 2
     6    2   23 1
     7    3    5 1
     8    3   20 1
     9    3   25 1
    10    3   26 1
    11    4    6 1
    12    4   20 1
    13    4   27 1
    14    4   28 1
    15    5    6 1
    16    5   21 1
    17    5   29 1
    18    6   15 1
    19    7   13 1
    20    7   30 1
    21    7   31 1
    22    7   32 1
    23    8   13 1
    24    8   33 1
    25    8   34 1
    26    8   35 1
    27    9   13 1
    28    9   36 1
    29    9   37 1
    30    9   38 1
    31   10   14 1
    32   10   39 1
    33   10   40 1
    34   10   41 1
    35   11   14 1
    36   11   42 1
    37   11   43 1
    38   11   44 1
    39   12   14 1
    40   12   45 1
    41   12   46 1
    42   12   47 1
    43   13   22 1
    44   14   23 1
    45   15   24 1
    46   18   24 2
    47   19   24 2
    48   21   24 1
