@<TRIPOS>MOLECULE
*****
   47    48     0     0     0
SMALL
NO_CHARGES

@<TRIPOS>ATOM
      1 C1          2.3088    1.1182   -0.4034 C.2       1 <0>         0.0000
      2 C2          0.0855    1.1850    1.6667 C.2       1 <0>         0.0000
      3 C3          0.4227   -0.8046   -2.6230 C.3       1 <0>         0.0000
      4 C4          0.0189    1.2082   -1.6376 C.3       1 <0>         0.0000
      5 C5          1.0994   -0.9519   -1.2625 C.3       1 <0>         0.0000
      6 C6          0.9286    0.4718   -0.6116 C.3       1 <0>         0.0000
      7 C7          5.2653    0.9220   -0.9907 C.3       1 <0>         0.0000
      8 C8          4.5119    1.8360   -3.2173 C.3       1 <0>         0.0000
      9 C9          4.2869    3.2680   -1.1550 C.3       1 <0>         0.0000
     10 C10         1.2790    3.5829    2.9192 C.3       1 <0>         0.0000
     11 C11         0.2502    4.7346    0.9289 C.3       1 <0>         0.0000
     12 C12        -1.2539    3.7329    2.6921 C.3       1 <0>         0.0000
     13 C13         4.2757    1.8415   -1.7077 C.3       1 <0>         0.0000
     14 C14         0.0854    3.6213    1.9634 C.3       1 <0>         0.0000
     15 N1          0.2589    0.2245    0.6555 N.am      1 <0>         0.0000
     16 O1          2.7729    1.3972    0.6798 O.2       1 <0>         0.0000
     17 O2         -0.0846    0.8883    2.8288 O.2       1 <0>         0.0000
     18 O3         -0.8398   -1.9048    1.7278 O.2       1 <0>         0.0000
     19 O4          1.6880   -1.7118    1.6737 O.2       1 <0>         0.0000
     20 O5         -0.5726    0.1926   -2.4411 O.3       1 <0>         0.0000
     21 O6          0.3553   -1.8885   -0.4628 O.3       1 <0>         0.0000
     22 O7          2.9024    1.2769   -1.5965 O.3       1 <0>         0.0000
     23 O8          0.0787    2.4048    1.1095 O.3       1 <0>         0.0000
     24 S1          0.3771   -1.4299    1.1171 S.o2      1 <0>         0.0000
     25 H1          1.1711   -0.4904   -3.3647 H         1 <0>         0.0000
     26 H2         -0.0588   -1.7284   -2.9467 H         1 <0>         0.0000
     27 H3         -0.7737    1.7630   -1.1406 H         1 <0>         0.0000
     28 H4          0.6247    1.8846   -2.2515 H         1 <0>         0.0000
     29 H5          2.1412   -1.2730   -1.3138 H         1 <0>         0.0000
     30 H6          5.1001    0.9139    0.0869 H         1 <0>         0.0000
     31 H7          5.1816   -0.1011   -1.3707 H         1 <0>         0.0000
     32 H8          6.2843    1.2714   -1.1848 H         1 <0>         0.0000
     33 H9          3.7697    2.4561   -3.7284 H         1 <0>         0.0000
     34 H10         4.4489    0.8189   -3.6153 H         1 <0>         0.0000
     35 H11         5.5067    2.2323   -3.4395 H         1 <0>         0.0000
     36 H12         3.5056    3.8684   -1.6320 H         1 <0>         0.0000
     37 H13         4.1375    3.2810   -0.0751 H         1 <0>         0.0000
     38 H14         5.2531    3.7312   -1.3781 H         1 <0>         0.0000
     39 H15         1.1543    2.8196    3.6874 H         1 <0>         0.0000
     40 H16         2.2008    3.3779    2.3688 H         1 <0>         0.0000
     41 H17         1.3716    4.5585    3.4073 H         1 <0>         0.0000
     42 H18        -0.5680    4.7136    0.2028 H         1 <0>         0.0000
     43 H19         1.1977    4.6229    0.3930 H         1 <0>         0.0000
     44 H20         0.2459    5.7086    1.4264 H         1 <0>         0.0000
     45 H21        -2.0823    3.7121    1.9772 H         1 <0>         0.0000
     46 H22        -1.3823    2.9194    3.4071 H         1 <0>         0.0000
     47 H23        -1.2927    4.6840    3.2331 H         1 <0>         0.0000
@<TRIPOS>BOND
     1    1    6 1
     2    1   16 2
     3    1   22 1
     4    2   15 am
     5    2   17 2
     6    2   23 1
     7    3    5 1
     8    3   20 1
     9    3   25 1
    10    3   26 1
    11    4    6 1
    12    4   20 1
    13    4   27 1
    14    4   28 1
    15    5    6 1
    16    5   21 1
    17    5   29 1
    18    6   15 1
    19    7   13 1
    20    7   30 1
    21    7   31 1
    22    7   32 1
    23    8   13 1
    24    8   33 1
    25    8   34 1
    26    8   35 1
    27    9   13 1
    28    9   36 1
    29    9   37 1
    30    9   38 1
    31   10   14 1
    32   10   39 1
    33   10   40 1
    34   10   41 1
    35   11   14 1
    36   11   42 1
    37   11   43 1
    38   11   44 1
    39   12   14 1
    40   12   45 1
    41   12   46 1
    42   12   47 1
    43   13   22 1
    44   14   23 1
    45   15   24 1
    46   18   24 2
    47   19   24 2
    48   21   24 1
