@<TRIPOS>MOLECULE
*****
   42    43     0     0     0
SMALL
NO_CHARGES

@<TRIPOS>ATOM
      1 C1          3.7216   -0.4723    3.0329 C.ar      1 <0>         0.0000
      2 C2          4.5274   -0.1655    4.1308 C.ar      1 <0>         0.0000
      3 C3          2.9941   -1.3274    5.5702 C.ar      1 <0>         0.0000
      4 C4          2.5411   -1.2032    3.1747 C.ar      1 <0>         0.0000
      5 C5          4.1757   -0.5851    5.4217 C.ar      1 <0>         0.0000
      6 C6          2.1909   -1.6380    4.4653 C.ar      1 <0>         0.0000
      7 C7          1.7235   -1.3291   -0.3767 C.2       1 <0>         0.0000
      8 C8          1.6169   -2.8282   -0.0920 C.3       1 <0>         0.0000
      9 C9          1.9912   -2.9654    1.3914 C.3       1 <0>         0.0000
     10 C10         1.6696   -1.5707    1.9959 C.3       1 <0>         0.0000
     11 C11        -0.7040   -3.5880    5.6306 C.3       1 <0>         0.0000
     12 C12         5.1816    1.3069    6.7346 C.3       1 <0>         0.0000
     13 C13         6.4815   -0.8286    6.3917 C.3       1 <0>         0.0000
     14 C14         4.5284   -0.7764    7.9472 C.3       1 <0>         0.0000
     15 C15         0.5921   -2.8226    5.8349 C.3       1 <0>         0.0000
     16 C16         5.0741   -0.2304    6.6159 C.3       1 <0>         0.0000
     17 N1          1.8608   -0.6985    0.8370 N.am      1 <0>         0.0000
     18 O1          1.6763   -0.7767   -1.4686 O.2       1 <0>         0.0000
     19 O2          1.0365   -2.3787    4.5491 O.3       1 <0>         0.0000
     20 H1          4.0116   -0.1399    2.0399 H         1 <0>         0.0000
     21 H2          5.4348    0.4087    3.9693 H         1 <0>         0.0000
     22 H3          2.6982   -1.6699    6.5516 H         1 <0>         0.0000
     23 H4          0.5798   -3.1244   -0.2877 H         1 <0>         0.0000
     24 H5          2.2541   -3.3940   -0.7747 H         1 <0>         0.0000
     25 H6          1.4534   -3.7554    1.9187 H         1 <0>         0.0000
     26 H7          3.0634   -3.1539    1.4974 H         1 <0>         0.0000
     27 H8          0.6208   -1.5516    2.3173 H         1 <0>         0.0000
     28 H9         -1.4647   -2.9461    5.1768 H         1 <0>         0.0000
     29 H10        -0.5441   -4.4510    4.9776 H         1 <0>         0.0000
     30 H11        -1.0819   -3.9470    6.5933 H         1 <0>         0.0000
     31 H12         5.8186    1.5802    7.5835 H         1 <0>         0.0000
     32 H13         5.6137    1.7538    5.8348 H         1 <0>         0.0000
     33 H14         4.1944    1.7550    6.8890 H         1 <0>         0.0000
     34 H15         7.1379   -0.5856    7.2351 H         1 <0>         0.0000
     35 H16         6.4308   -1.9187    6.3004 H         1 <0>         0.0000
     36 H17         6.9478   -0.4391    5.4823 H         1 <0>         0.0000
     37 H18         5.2024   -0.4972    8.7636 H         1 <0>         0.0000
     38 H19         3.5407   -0.3658    8.1826 H         1 <0>         0.0000
     39 H20         4.4563   -1.8693    7.9412 H         1 <0>         0.0000
     40 H21         1.3575   -3.4654    6.2894 H         1 <0>         0.0000
     41 H22         0.4368   -1.9569    6.4923 H         1 <0>         0.0000
     42 H23         1.7253    0.3045    0.8895 H         1 <0>         0.0000
@<TRIPOS>BOND
     1    1    2 ar
     2    1    4 ar
     3    1   20 1
     4    2    5 ar
     5    2   21 1
     6    3    5 ar
     7    3    6 ar
     8    3   22 1
     9    4    6 ar
    10    4   10 1
    11    5   16 1
    12    6   19 1
    13    7    8 1
    14    7   17 am
    15    7   18 2
    16    8    9 1
    17    8   23 1
    18    8   24 1
    19    9   10 1
    20    9   25 1
    21    9   26 1
    22   10   17 1
    23   10   27 1
    24   11   15 1
    25   11   28 1
    26   11   29 1
    27   11   30 1
    28   12   16 1
    29   12   31 1
    30   12   32 1
    31   12   33 1
    32   13   16 1
    33   13   34 1
    34   13   35 1
    35   13   36 1
    36   14   16 1
    37   14   37 1
    38   14   38 1
    39   14   39 1
    40   15   19 1
    41   15   40 1
    42   15   41 1
    43   17   42 1
