@<TRIPOS>MOLECULE
*****
   37    39     0     0     0
SMALL
NO_CHARGES

@<TRIPOS>ATOM
      1 C1         -3.5368   -1.7432   -0.7957 C.ar      1 <0>         0.0000
      2 C2         -2.3219   -2.5236    1.0881 C.ar      1 <0>         0.0000
      3 C3         -3.5089   -2.5568    0.3371 C.ar      1 <0>         0.0000
      4 C4         -2.4340   -0.9447   -1.1346 C.ar      1 <0>         0.0000
      5 C5         -1.2940   -0.9876   -0.3030 C.ar      1 <0>         0.0000
      6 C6         -2.1689   -0.0400   -5.7052 C.3       1 <0>         0.0000
      7 C7         -0.6589    0.0859   -5.7299 C.3       1 <0>         0.0000
      8 C8          0.0057    1.2483   -0.9107 C.3       1 <0>         0.0000
      9 C9          0.4166    0.7732    0.4652 C.3       1 <0>         0.0000
     10 C10        -1.4399    0.5617   -4.5357 C.3       1 <0>         0.0000
     11 C11        -0.0008   -0.2482   -0.5576 C.3       1 <0>         0.0000
     12 C12        -4.6652   -3.4413    0.7273 C.3       1 <0>         0.0000
     13 C13         1.1095   -1.1402   -1.1083 C.3       1 <0>         0.0000
     14 C14        -2.5530   -0.0645   -2.3535 C.3       1 <0>         0.0000
     15 N1         -1.2590   -1.7798    0.7795 N.ar      1 <0>         0.0000
     16 N2         -1.3569   -0.2166   -3.2741 N.4       1 <0>         0.0000
     17 H1         -4.4303   -1.7211   -1.4175 H         1 <0>         0.0000
     18 H2         -2.2314   -3.1306    1.9882 H         1 <0>         0.0000
     19 H3         -2.7651    0.6294   -6.3159 H         1 <0>         0.0000
     20 H4         -2.5867   -1.0374   -5.5940 H         1 <0>         0.0000
     21 H5         -0.0757   -0.8264   -5.6365 H         1 <0>         0.0000
     22 H6         -0.2016    0.8463   -6.3538 H         1 <0>         0.0000
     23 H7         -0.9311    1.7960   -0.9653 H         1 <0>         0.0000
     24 H8          0.7881    1.6224   -1.5685 H         1 <0>         0.0000
     25 H9          1.4682    0.8169    0.7298 H         1 <0>         0.0000
     26 H10        -0.2666    0.9710    1.2839 H         1 <0>         0.0000
     27 H11        -1.5234    1.6236   -4.3306 H         1 <0>         0.0000
     28 H12        -4.5900   -4.4177    0.2354 H         1 <0>         0.0000
     29 H13        -4.6814   -3.6176    1.8057 H         1 <0>         0.0000
     30 H14        -5.6226   -2.9984    0.4402 H         1 <0>         0.0000
     31 H15         2.0328   -0.5727   -1.2576 H         1 <0>         0.0000
     32 H16         0.8461   -1.6114   -2.0658 H         1 <0>         0.0000
     33 H17         1.3128   -1.9476   -0.3999 H         1 <0>         0.0000
     34 H18        -3.4326   -0.3217   -2.9449 H         1 <0>         0.0000
     35 H19        -2.6046    0.9993   -2.1138 H         1 <0>         0.0000
     36 H20        -1.2268   -1.2139   -3.4785 H         1 <0>         0.0000
     37 H21        -0.5309    0.0765   -2.7273 H         1 <0>         0.0000
@<TRIPOS>BOND
     1    1    3 ar
     2    1    4 ar
     3    1   17 1
     4    2    3 ar
     5    2   15 ar
     6    2   18 1
     7    3   12 1
     8    4    5 ar
     9    4   14 1
    10    5   11 1
    11    5   15 ar
    12    6    7 1
    13    6   10 1
    14    6   19 1
    15    6   20 1
    16    7   10 1
    17    7   21 1
    18    7   22 1
    19    8    9 1
    20    8   11 1
    21    8   23 1
    22    8   24 1
    23    9   11 1
    24    9   25 1
    25    9   26 1
    26   10   16 1
    27   10   27 1
    28   11   13 1
    29   12   28 1
    30   12   29 1
    31   12   30 1
    32   13   31 1
    33   13   32 1
    34   13   33 1
    35   14   16 1
    36   14   34 1
    37   14   35 1
    38   16   36 1
    39   16   37 1
