@<TRIPOS>MOLECULE
*****
   44    46     0     0     0
SMALL
NO_CHARGES

@<TRIPOS>ATOM
      1 C1          3.9875   -3.3766   -2.7902 C.ar      1 <0>         0.0000
      2 C2          0.5120   -0.6510    1.5509 C.ar      1 <0>         0.0000
      3 C3          2.9377   -2.5741   -2.3409 C.ar      1 <0>         0.0000
      4 C4         -0.6267   -0.5946    2.3514 C.ar      1 <0>         0.0000
      5 C5          5.0961   -2.8003   -3.4181 C.ar      1 <0>         0.0000
      6 C6         -1.7249    0.6788    0.5995 C.ar      1 <0>         0.0000
      7 C7          4.0654   -0.6050   -3.1433 C.ar      1 <0>         0.0000
      8 C8          0.5495   -0.0806    0.2697 C.ar      1 <0>         0.0000
      9 C9          2.9586   -1.1814   -2.5166 C.ar      1 <0>         0.0000
     10 C10        -0.5928    0.6099   -0.2077 C.ar      1 <0>         0.0000
     11 C11        -1.7605    0.0752    1.8675 C.ar      1 <0>         0.0000
     12 C12         5.1169   -1.4154   -3.5767 C.ar      1 <0>         0.0000
     13 C13         1.8224   -0.2486   -0.4938 C.2       1 <0>         0.0000
     14 C14        -0.5908    1.3084   -1.5470 C.3       1 <0>         0.0000
     15 C15        -0.5845    0.3380   -2.7436 C.3       1 <0>         0.0000
     16 C16         0.4462   -0.7922   -2.6144 C.3       1 <0>         0.0000
     17 C17         1.8031   -0.3228   -2.0410 C.3       1 <0>         0.0000
     18 C18        -3.0174   -0.3662    3.8553 C.3       1 <0>         0.0000
     19 C19         7.6008   -0.2604   -2.9141 C.3       1 <0>         0.0000
     20 O1          2.8859   -0.3932    0.0999 O.2       1 <0>         0.0000
     21 O2          7.2500   -1.6563   -5.1445 O.2       1 <0>         0.0000
     22 O3          6.1251    0.6384   -4.9281 O.2       1 <0>         0.0000
     23 O4         -2.9331    0.2038    2.5497 O.3       1 <0>         0.0000
     24 S1          6.5513   -0.6418   -4.3382 S.o2      1 <0>         0.0000
     25 H1          3.9442   -4.4538   -2.6540 H         1 <0>         0.0000
     26 H2          1.4033   -1.1549    1.9117 H         1 <0>         0.0000
     27 H3          2.0886   -3.0388   -1.8457 H         1 <0>         0.0000
     28 H4         -0.6192   -1.0630    3.3288 H         1 <0>         0.0000
     29 H5          5.9166   -3.4039   -3.7938 H         1 <0>         0.0000
     30 H6         -2.6081    1.2171    0.2664 H         1 <0>         0.0000
     31 H7          4.1136    0.4677   -3.3095 H         1 <0>         0.0000
     32 H8         -1.4632    1.9640   -1.6201 H         1 <0>         0.0000
     33 H9          0.2847    1.9644   -1.6074 H         1 <0>         0.0000
     34 H10        -1.5812   -0.1004   -2.8652 H         1 <0>         0.0000
     35 H11        -0.3806    0.9179   -3.6517 H         1 <0>         0.0000
     36 H12         0.0449   -1.5906   -1.9814 H         1 <0>         0.0000
     37 H13         0.6130   -1.2351   -3.6006 H         1 <0>         0.0000
     38 H14         1.9919    0.7000   -2.3925 H         1 <0>         0.0000
     39 H15        -4.0233   -0.1427    4.2119 H         1 <0>         0.0000
     40 H16        -2.2819    0.0829    4.5330 H         1 <0>         0.0000
     41 H17        -2.8747   -1.4528    3.8246 H         1 <0>         0.0000
     42 H18         8.4928    0.2264   -3.3141 H         1 <0>         0.0000
     43 H19         7.0599    0.4116   -2.2466 H         1 <0>         0.0000
     44 H20         7.8622   -1.1918   -2.4103 H         1 <0>         0.0000
@<TRIPOS>BOND
     1    1    3 ar
     2    1    5 ar
     3    1   25 1
     4    2    4 ar
     5    2    8 ar
     6    2   26 1
     7    3    9 ar
     8    3   27 1
     9    4   11 ar
    10    4   28 1
    11    5   12 ar
    12    5   29 1
    13    6   10 ar
    14    6   11 ar
    15    6   30 1
    16    7    9 ar
    17    7   12 ar
    18    7   31 1
    19    8   10 ar
    20    8   13 1
    21    9   17 1
    22   10   14 1
    23   11   23 1
    24   12   24 1
    25   13   17 1
    26   13   20 2
    27   14   15 1
    28   14   32 1
    29   14   33 1
    30   15   16 1
    31   15   34 1
    32   15   35 1
    33   16   17 1
    34   16   36 1
    35   16   37 1
    36   17   38 1
    37   18   23 1
    38   18   39 1
    39   18   40 1
    40   18   41 1
    41   19   24 1
    42   19   42 1
    43   19   43 1
    44   19   44 1
    45   21   24 2
    46   22   24 2
