@<TRIPOS>MOLECULE
*****
   49    51     0     0     0
SMALL
NO_CHARGES

@<TRIPOS>ATOM
      1 C1         -2.9747   -0.9563   -1.2663 C.2       1 <0>         0.0000
      2 C2         -1.9552    0.0143   -1.0325 C.2       1 <0>         0.0000
      3 C3         -0.9006   -0.5079   -0.3150 C.2       1 <0>         0.0000
      4 C4         -4.2205   -0.7876   -1.9742 C.2       1 <0>         0.0000
      5 C5         -2.6523   -2.1699   -0.7178 C.2       1 <0>         0.0000
      6 C6         -4.6781   -3.2366   -1.4491 C.2       1 <0>         0.0000
      7 C7          1.2868    0.0436    2.4858 C.2       1 <0>         0.0000
      8 C8         -0.3207    1.3448    3.6169 C.3       1 <0>         0.0000
      9 C9         -0.6444    1.3563    2.1305 C.3       1 <0>         0.0000
     10 C10        -2.0047    1.4235   -1.4976 C.3       1 <0>         0.0000
     11 C11        -6.0596   -1.8164   -4.2122 C.3       1 <0>         0.0000
     12 C12        -3.0103   -5.7950    3.8384 C.3       1 <0>         0.0000
     13 C13         0.3438    0.1580    0.1309 C.3       1 <0>         0.0000
     14 C14        -6.2706   -1.8476   -2.7366 C.3       1 <0>         0.0000
     15 C15        -2.9944   -4.5651   -0.1463 C.3       1 <0>         0.0000
     16 C16        -3.1926   -4.5545    1.3573 C.3       1 <0>         0.0000
     17 N1         -5.0011   -1.9672   -2.0254 N.am      1 <0>         0.0000
     18 N2         -3.4360   -3.3180   -0.7700 N.am      1 <0>         0.0000
     19 N3          0.9077    0.5987    3.7189 N.am      1 <0>         0.0000
     20 N4          0.3370    0.4680    1.5425 N.am      1 <0>         0.0000
     21 O1         -4.5488    0.2861   -2.4728 O.2       1 <0>         0.0000
     22 O2         -5.4396   -4.2070   -1.5375 O.2       1 <0>         0.0000
     23 O3          2.2624   -0.6692    2.2907 O.2       1 <0>         0.0000
     24 O4         -3.6166   -7.1154    1.6655 O.2       1 <0>         0.0000
     25 O5         -1.2694   -6.2272    1.9371 O.2       1 <0>         0.0000
     26 S1         -1.1477   -2.1575    0.0701 S.3       1 <0>         0.0000
     27 S2         -2.7041   -6.0755    2.1094 S.o2      1 <0>         0.0000
     28 H1         -0.1633    2.3485    4.0207 H         1 <0>         0.0000
     29 H2         -1.0854    0.8256    4.2016 H         1 <0>         0.0000
     30 H3         -1.6500    0.9785    1.9241 H         1 <0>         0.0000
     31 H4         -0.5206    2.3525    1.6946 H         1 <0>         0.0000
     32 H5         -2.4791    2.0656   -0.7420 H         1 <0>         0.0000
     33 H6         -0.9982    1.8189   -1.7000 H         1 <0>         0.0000
     34 H7         -2.5725    1.5208   -2.4351 H         1 <0>         0.0000
     35 H8         -5.5601   -2.7430   -4.5313 H         1 <0>         0.0000
     36 H9         -7.0318   -1.7306   -4.7197 H         1 <0>         0.0000
     37 H10        -5.4315   -0.9523   -4.4744 H         1 <0>         0.0000
     38 H11        -2.7329   -6.6960    4.3879 H         1 <0>         0.0000
     39 H12        -2.4041   -4.9477    4.1624 H         1 <0>         0.0000
     40 H13        -4.0715   -5.5786    3.9695 H         1 <0>         0.0000
     41 H14         1.2313   -0.4699   -0.0560 H         1 <0>         0.0000
     42 H15         0.5202    1.1067   -0.4031 H         1 <0>         0.0000
     43 H16        -6.7702   -0.9183   -2.4256 H         1 <0>         0.0000
     44 H17        -6.9067   -2.7085   -2.4830 H         1 <0>         0.0000
     45 H18        -1.9430   -4.7130   -0.4120 H         1 <0>         0.0000
     46 H19        -3.5809   -5.3712   -0.5975 H         1 <0>         0.0000
     47 H20        -4.2505   -4.4188    1.6010 H         1 <0>         0.0000
     48 H21        -2.6147   -3.7594    1.8379 H         1 <0>         0.0000
     49 H22         1.4160    0.4491    4.5847 H         1 <0>         0.0000
@<TRIPOS>BOND
     1    1    2 1
     2    1    5 2
     3    1    4 1
     4    2    3 2
     5    2   10 1
     6    3   13 1
     7    3   26 1
     8    4   17 am
     9    4   21 2
    10    5   18 1
    11    5   26 1
    12    6   18 am
    13    6   17 am
    14    6   22 2
    15    7   19 am
    16    7   20 am
    17    7   23 2
    18    8    9 1
    19    8   19 1
    20    8   28 1
    21    8   29 1
    22    9   20 1
    23    9   30 1
    24    9   31 1
    25   10   32 1
    26   10   33 1
    27   10   34 1
    28   11   14 1
    29   11   35 1
    30   11   36 1
    31   11   37 1
    32   12   27 1
    33   12   38 1
    34   12   39 1
    35   12   40 1
    36   13   20 1
    37   13   41 1
    38   13   42 1
    39   14   17 1
    40   14   43 1
    41   14   44 1
    42   15   16 1
    43   15   18 1
    44   15   45 1
    45   15   46 1
    46   16   27 1
    47   16   47 1
    48   16   48 1
    49   19   49 1
    50   24   27 2
    51   25   27 2
