@<TRIPOS>MOLECULE
*****
   32    33     0     0     0
SMALL
NO_CHARGES

@<TRIPOS>ATOM
      1 C1          1.0148   -1.3354    3.7868 C.2       1 <0>         0.0000
      2 C2          0.8945   -1.8062    2.4579 C.2       1 <0>         0.0000
      3 C3          1.6409   -0.8927    1.7101 C.2       1 <0>         0.0000
      4 C4          3.0908   -1.5743   -0.1108 C.3       1 <0>         0.0000
      5 C5          0.7984   -0.9228   -0.5747 C.3       1 <0>         0.0000
      6 C6          3.4825   -1.1599   -1.5255 C.3       1 <0>         0.0000
      7 C7          1.2178   -0.5038   -1.9805 C.3       1 <0>         0.0000
      8 C8          0.1418   -3.0172    1.9810 C.3       1 <0>         0.0000
      9 C9          3.0078    1.1503    2.3064 C.3       1 <0>         0.0000
     10 C10         2.7220   -0.9786   -3.8094 C.3       1 <0>         0.0000
     11 N1          1.7732   -0.2363    3.8734 N.2       1 <0>         0.0000
     12 N2          2.1365    0.0290    2.5988 N.pl3     1 <0>         0.0000
     13 N3          1.9381   -0.7785    0.3379 N.pl3     1 <0>         0.0000
     14 N4          2.3503   -1.3088   -2.4394 N.3       1 <0>         0.0000
     15 H1          0.5828   -1.7591    4.6867 H         1 <0>         0.0000
     16 H2          2.8639   -2.6531   -0.0950 H         1 <0>         0.0000
     17 H3          3.9264   -1.3951    0.5718 H         1 <0>         0.0000
     18 H4         -0.0131   -0.2813   -0.2199 H         1 <0>         0.0000
     19 H5          0.4276   -1.9589   -0.6113 H         1 <0>         0.0000
     20 H6          3.8510   -0.1153   -1.5048 H         1 <0>         0.0000
     21 H7          4.3028   -1.7966   -1.8750 H         1 <0>         0.0000
     22 H8          0.3781   -0.6560   -2.6677 H         1 <0>         0.0000
     23 H9          1.4625    0.5763   -1.9788 H         1 <0>         0.0000
     24 H10        -0.7887   -2.7513    1.4657 H         1 <0>         0.0000
     25 H11         0.7363   -3.6230    1.2897 H         1 <0>         0.0000
     26 H12        -0.1259   -3.6547    2.8291 H         1 <0>         0.0000
     27 H13         2.6775    2.0162    2.8834 H         1 <0>         0.0000
     28 H14         4.0450    0.9195    2.5728 H         1 <0>         0.0000
     29 H15         2.9456    1.3612    1.2380 H         1 <0>         0.0000
     30 H16         3.5391   -1.6293   -4.1377 H         1 <0>         0.0000
     31 H17         3.0500    0.0719   -3.9272 H         1 <0>         0.0000
     32 H18         1.8681   -1.1452   -4.4741 H         1 <0>         0.0000
@<TRIPOS>BOND
     1    1    2 1
     2    1   11 2
     3    1   15 1
     4    2    3 2
     5    2    8 1
     6    3   12 1
     7    3   13 1
     8    4    6 1
     9    4   13 1
    10    4   16 1
    11    4   17 1
    12    5    7 1
    13    5   13 1
    14    5   18 1
    15    5   19 1
    16    6   14 1
    17    6   20 1
    18    6   21 1
    19    7   14 1
    20    7   22 1
    21    7   23 1
    22    8   24 1
    23    8   25 1
    24    8   26 1
    25    9   12 1
    26    9   27 1
    27    9   28 1
    28    9   29 1
    29   10   14 1
    30   10   30 1
    31   10   31 1
    32   10   32 1
    33   11   12 1
