@<TRIPOS>MOLECULE
*****
   31    33     0     0     0
SMALL
NO_CHARGES

@<TRIPOS>ATOM
      1 C1         -2.3342    5.6026   -0.9631 C.1       1 <0>         0.0000
      2 C2         -2.3465    3.1906   -0.3838 C.ar      1 <0>         0.0000
      3 C3         -0.8585   -1.8188    1.7978 C.ar      1 <0>         0.0000
      4 C4         -0.5372   -0.5437    1.3204 C.ar      1 <0>         0.0000
      5 C5         -1.6510    2.0060   -0.2271 C.ar      1 <0>         0.0000
      6 C6          0.6008   -1.5333   -0.5881 C.ar      1 <0>         0.0000
      7 C7         -0.2823    4.2370   -1.0450 C.ar      1 <0>         0.0000
      8 C8         -1.6607    4.3530   -0.7932 C.ar      1 <0>         0.0000
      9 C9         -0.4443   -2.9466    1.0901 C.ar      1 <0>         0.0000
     10 C10         0.2932   -2.7984   -0.0944 C.ar      1 <0>         0.0000
     11 C11         0.1787   -0.3959    0.1211 C.ar      1 <0>         0.0000
     12 C12        -0.2578    2.0026   -0.4849 C.ar      1 <0>         0.0000
     13 C13        -0.6390   -4.4138    1.4120 C.3       1 <0>         0.0000
     14 C14         0.6532   -4.1550   -0.6643 C.3       1 <0>         0.0000
     15 C15        -0.3271   -5.1097    0.0629 C.3       1 <0>         0.0000
     16 N1         -2.8819    6.6234   -1.1031 N.1       1 <0>         0.0000
     17 N2          0.4022    3.1067   -0.8985 N.ar      1 <0>         0.0000
     18 N3          0.5304    0.8845   -0.3711 N.pl3     1 <0>         0.0000
     19 H1         -3.4166    3.2269   -0.2024 H         1 <0>         0.0000
     20 H2         -1.4169   -1.9186    2.7259 H         1 <0>         0.0000
     21 H3         -0.8221    0.3375    1.8867 H         1 <0>         0.0000
     22 H4         -2.1632    1.0964    0.0613 H         1 <0>         0.0000
     23 H5          1.1465   -1.4119   -1.5216 H         1 <0>         0.0000
     24 H6          0.2821    5.1050   -1.3806 H         1 <0>         0.0000
     25 H7          0.0737   -4.7267    2.1873 H         1 <0>         0.0000
     26 H8         -1.6414   -4.6436    1.7868 H         1 <0>         0.0000
     27 H9          0.5650   -4.2019   -1.7542 H         1 <0>         0.0000
     28 H10         1.6947   -4.3987   -0.4146 H         1 <0>         0.0000
     29 H11         0.0757   -6.1185    0.1871 H         1 <0>         0.0000
     30 H12        -1.2498   -5.1902   -0.5217 H         1 <0>         0.0000
     31 H13         1.4628    1.0100   -0.7487 H         1 <0>         0.0000
@<TRIPOS>BOND
     1    1    8 1
     2    1   16 3
     3    2    5 ar
     4    2    8 ar
     5    2   19 1
     6    3    4 ar
     7    3    9 ar
     8    3   20 1
     9    4   11 ar
    10    4   21 1
    11    5   12 ar
    12    5   22 1
    13    6   10 ar
    14    6   11 ar
    15    6   23 1
    16    7    8 ar
    17    7   17 ar
    18    7   24 1
    19    9   10 ar
    20    9   13 1
    21   10   14 1
    22   11   18 1
    23   12   17 ar
    24   12   18 1
    25   13   15 1
    26   13   25 1
    27   13   26 1
    28   14   15 1
    29   14   27 1
    30   14   28 1
    31   15   29 1
    32   15   30 1
    33   18   31 1
