@<TRIPOS>MOLECULE
*****
   39    40     0     0     0
SMALL
NO_CHARGES

@<TRIPOS>ATOM
      1 C1          3.9583   -5.0745   -0.0310 C.ar      1 <0>         0.0000
      2 C2          5.4859   -4.0602    1.5421 C.ar      1 <0>         0.0000
      3 C3          1.6192   -1.8494    0.1575 C.ar      1 <0>         0.0000
      4 C4          3.1458   -0.8359    1.7321 C.ar      1 <0>         0.0000
      5 C5          4.2146   -6.3267    0.5274 C.ar      1 <0>         0.0000
      6 C6          5.7421   -5.3124    2.1007 C.ar      1 <0>         0.0000
      7 C7          0.5421   -1.2729    0.8307 C.ar      1 <0>         0.0000
      8 C8          2.0688   -0.2594    2.4053 C.ar      1 <0>         0.0000
      9 C9          5.1064   -6.4457    1.5933 C.ar      1 <0>         0.0000
     10 C10         0.7669   -0.4779    1.9546 C.ar      1 <0>         0.0000
     11 C11         4.5940   -3.9412    0.4763 C.ar      1 <0>         0.0000
     12 C12         2.9210   -1.6309    0.6081 C.ar      1 <0>         0.0000
     13 C13         3.5244   -7.5281   -0.0299 C.3       1 <0>         0.0000
     14 C14         6.7004   -5.4194    3.2408 C.3       1 <0>         0.0000
     15 C15        -0.8441   -1.5182    0.3327 C.3       1 <0>         0.0000
     16 C16         2.3299    0.5889    3.6063 C.3       1 <0>         0.0000
     17 O1          3.8308   -2.5593   -1.6081 O.2       1 <0>         0.0000
     18 O2          5.4700   -1.5677    0.0292 O.2       1 <0>         0.0000
     19 O3          5.3571   -7.6698    2.1396 O.3       1 <0>         0.0000
     20 O4         -0.2863    0.0856    2.6127 O.3       1 <0>         0.0000
     21 S1          4.2698   -2.3504   -0.2355 S.o2      1 <0>         0.0000
     22 H1          3.2630   -4.9829   -0.8622 H         1 <0>         0.0000
     23 H2          5.9823   -3.1774    1.9381 H         1 <0>         0.0000
     24 H3          1.4429   -2.4687   -0.7188 H         1 <0>         0.0000
     25 H4          4.1604   -0.6646    2.0842 H         1 <0>         0.0000
     26 H5          4.1229   -7.9709   -0.8344 H         1 <0>         0.0000
     27 H6          3.3635   -8.2878    0.7449 H         1 <0>         0.0000
     28 H7          2.5372   -7.2674   -0.4313 H         1 <0>         0.0000
     29 H8          6.1706   -5.3091    4.1942 H         1 <0>         0.0000
     30 H9          7.2149   -6.3883    3.2370 H         1 <0>         0.0000
     31 H10         7.4763   -4.6459    3.1806 H         1 <0>         0.0000
     32 H11        -1.2660   -2.4118    0.8072 H         1 <0>         0.0000
     33 H12        -1.4998   -0.6655    0.5483 H         1 <0>         0.0000
     34 H13        -0.8550   -1.6619   -0.7550 H         1 <0>         0.0000
     35 H14         2.4650    1.6356    3.3101 H         1 <0>         0.0000
     36 H15         1.4989    0.5321    4.3201 H         1 <0>         0.0000
     37 H16         3.2305    0.2569    4.1378 H         1 <0>         0.0000
     38 H17         4.8429   -8.3517    1.6805 H         1 <0>         0.0000
     39 H18         0.0311    0.6055    3.3670 H         1 <0>         0.0000
@<TRIPOS>BOND
     1    1    5 ar
     2    1   11 ar
     3    1   22 1
     4    2    6 ar
     5    2   11 ar
     6    2   23 1
     7    3    7 ar
     8    3   12 ar
     9    3   24 1
    10    4    8 ar
    11    4   12 ar
    12    4   25 1
    13    5    9 ar
    14    5   13 1
    15    6    9 ar
    16    6   14 1
    17    7   10 ar
    18    7   15 1
    19    8   10 ar
    20    8   16 1
    21    9   19 1
    22   10   20 1
    23   11   21 1
    24   12   21 1
    25   13   26 1
    26   13   27 1
    27   13   28 1
    28   14   29 1
    29   14   30 1
    30   14   31 1
    31   15   32 1
    32   15   33 1
    33   15   34 1
    34   16   35 1
    35   16   36 1
    36   16   37 1
    37   17   21 2
    38   18   21 2
    39   19   38 1
    40   20   39 1
