@<TRIPOS>MOLECULE
*****
   28    30     0     0     0
SMALL
NO_CHARGES

@<TRIPOS>ATOM
      1 C1         -2.1272   -3.6738   -1.2551 C.ar      1 <0>         0.0000
      2 C2          0.6289    1.7736    2.3673 C.ar      1 <0>         0.0000
      3 C3          0.2877    0.9847    1.2501 C.ar      1 <0>         0.0000
      4 C4         -2.4051   -4.3521   -2.4358 C.ar      1 <0>         0.0000
      5 C5         -1.8799    0.3965    2.2425 C.ar      1 <0>         0.0000
      6 C6         -2.0210   -2.2947   -3.6762 C.ar      1 <0>         0.0000
      7 C7         -1.7933   -2.3071   -1.2385 C.ar      1 <0>         0.0000
      8 C8         -0.2947    1.8420    3.3922 C.ar      1 <0>         0.0000
      9 C9         -1.5170    1.1698    3.3277 C.ar      1 <0>         0.0000
     10 C10        -0.9333    0.3205    1.2054 C.ar      1 <0>         0.0000
     11 C11        -1.7477   -1.6444   -2.4752 C.ar      1 <0>         0.0000
     12 C12        -2.3493   -3.6487   -3.6437 C.ar      1 <0>         0.0000
     13 C13        -1.5177   -1.7040    0.0981 C.2       1 <0>         0.0000
     14 C14        -1.3478    2.1166    5.3466 C.3       1 <0>         0.0000
     15 O1         -1.5548   -2.3376    1.1338 O.2       1 <0>         0.0000
     16 O2         -0.2252    2.5610    4.5685 O.3       1 <0>         0.0000
     17 O3         -2.2550    1.4403    4.4592 O.3       1 <0>         0.0000
     18 O4         -1.2280   -0.3773    0.0234 O.3       1 <0>         0.0000
     19 F1         -1.4329   -0.3386   -2.5609 F         1 <0>         0.0000
     20 Cl1        -2.6956   -4.4770   -5.1438 Cl        1 <0>         0.0000
     21 H1         -2.1619   -4.1917   -0.3023 H         1 <0>         0.0000
     22 H2          1.5735    2.3050    2.4180 H         1 <0>         0.0000
     23 H3          0.9692    0.8903    0.4112 H         1 <0>         0.0000
     24 H4         -2.6613   -5.4060   -2.4270 H         1 <0>         0.0000
     25 H5         -2.8263   -0.1284    2.1968 H         1 <0>         0.0000
     26 H6         -1.9737   -1.7403   -4.6071 H         1 <0>         0.0000
     27 H7         -1.0019    1.4123    6.1157 H         1 <0>         0.0000
     28 H8         -1.8495    2.9812    5.7854 H         1 <0>         0.0000
@<TRIPOS>BOND
     1    1    4 ar
     2    1    7 ar
     3    1   21 1
     4    2    3 ar
     5    2    8 ar
     6    2   22 1
     7    3   10 ar
     8    3   23 1
     9    4   12 ar
    10    4   24 1
    11    5    9 ar
    12    5   10 ar
    13    5   25 1
    14    6   11 ar
    15    6   12 ar
    16    6   26 1
    17    7   11 ar
    18    7   13 1
    19    8    9 ar
    20    8   16 1
    21    9   17 1
    22   10   18 1
    23   11   19 1
    24   12   20 1
    25   13   15 2
    26   13   18 1
    27   14   16 1
    28   14   17 1
    29   14   27 1
    30   14   28 1
