@<TRIPOS>MOLECULE
*****
   11    10     0     0     0
SMALL
NO_CHARGES

@<TRIPOS>ATOM
      1 C1         -1.7758    0.7027    0.9934 C.2       1 <0>         0.0000
      2 C2         -0.2767    0.6010    0.8712 C.3       1 <0>         0.0000
      3 N1         -2.4777   -0.3409    0.4502 N.pl3     1 <0>         0.0000
      4 N2          0.2051   -0.0773    2.0418 N.3       1 <0>         0.0000
      5 S1         -2.5311    1.9867    1.7504 S.2       1 <0>         0.0000
      6 H1          0.2082    1.5788    0.8117 H         1 <0>         0.0000
      7 H2          0.0000    0.0000    0.0000 H         1 <0>         0.0000
      8 H3         -2.0180   -1.1253   -0.0012 H         1 <0>         0.0000
      9 H4         -3.4915   -0.3638    0.4829 H         1 <0>         0.0000
     10 H5         -0.2180    0.1204    2.9357 H         1 <0>         0.0000
     11 H6          1.0786   -0.5797    1.9962 H         1 <0>         0.0000
@<TRIPOS>BOND
     1    1    2 1
     2    1    3 1
     3    1    5 2
     4    2    4 1
     5    2    6 1
     6    2    7 1
     7    3    8 1
     8    3    9 1
     9    4   10 1
    10    4   11 1
