@<TRIPOS>MOLECULE
*****
   28    30     0     0     0
SMALL
NO_CHARGES

@<TRIPOS>ATOM
      1 C1          0.2266    0.2294    2.2134 C.ar      1 <0>         0.0000
      2 C2          0.0649   -0.4800    1.0132 C.ar      1 <0>         0.0000
      3 C3         -0.0269   -0.3866    3.4449 C.ar      1 <0>         0.0000
      4 C4         -0.3539   -1.8178    1.0026 C.ar      1 <0>         0.0000
      5 C5         -0.4476   -1.7160    3.4430 C.ar      1 <0>         0.0000
      6 C6         -0.6038   -2.4010    2.2376 C.ar      1 <0>         0.0000
      7 C7          1.5279   -3.7349    4.7832 C.cat     1 <0>         0.0000
      8 C8          2.9177   -4.7369    3.1456 C.3       1 <0>         0.0000
      9 C9         -1.4737   -3.8045    3.7948 C.3       1 <0>         0.0000
     10 C10         3.6830   -5.0555    4.4329 C.3       1 <0>         0.0000
     11 C11        -0.7559   -2.6763    4.5696 C.3       1 <0>         0.0000
     12 N1          1.5829   -4.2947    3.5793 N.pl3     1 <0>         0.0000
     13 N2          0.4648   -3.1234    5.3038 N.pl3     1 <0>         0.0000
     14 O1         -0.9756   -3.7289    2.4297 O.3       1 <0>         0.0000
     15 S1          3.0276   -3.8608    5.6790 S.3       1 <0>         0.0000
     16 H1          0.5409    1.2680    2.1846 H         1 <0>         0.0000
     17 H2          0.2582    0.0197    0.0684 H         1 <0>         0.0000
     18 H3          0.0958    0.1649    4.3736 H         1 <0>         0.0000
     19 H4         -0.4918   -2.3697    0.0783 H         1 <0>         0.0000
     20 H5          3.3992   -3.9341    2.5778 H         1 <0>         0.0000
     21 H6          2.8223   -5.6188    2.5097 H         1 <0>         0.0000
     22 H7         -1.2874   -4.8098    4.1741 H         1 <0>         0.0000
     23 H8         -2.5489   -3.6084    3.7748 H         1 <0>         0.0000
     24 H9          3.4907   -6.0680    4.7912 H         1 <0>         0.0000
     25 H10         4.7558   -4.8959    4.3278 H         1 <0>         0.0000
     26 H11        -1.4063   -2.2598    5.3392 H         1 <0>         0.0000
     27 H12         0.7905   -4.2655    2.9282 H         1 <0>         0.0000
     28 H13         0.5517   -2.8176    6.2667 H         1 <0>         0.0000
@<TRIPOS>BOND
     1    1    2 ar
     2    1    3 ar
     3    1   16 1
     4    2    4 ar
     5    2   17 1
     6    3    5 ar
     7    3   18 1
     8    4    6 ar
     9    4   19 1
    10    5    6 ar
    11    5   11 1
    12    6   14 1
    13    7   12 2
    14    7   13 1
    15    7   15 1
    16    8   10 1
    17    8   12 1
    18    8   20 1
    19    8   21 1
    20    9   11 1
    21    9   14 1
    22    9   22 1
    23    9   23 1
    24   10   15 1
    25   10   24 1
    26   10   25 1
    27   11   13 1
    28   11   26 1
    29   12   27 1
    30   13   28 1
