@<TRIPOS>MOLECULE
*****
   30    31     0     0     0
SMALL
NO_CHARGES

@<TRIPOS>ATOM
      1 C1          2.3080    3.3637    2.3505 C.ar      1 <0>         0.0000
      2 C2          1.7572    2.1622    1.8874 C.ar      1 <0>         0.0000
      3 C3          1.6773    4.5821    2.1359 C.ar      1 <0>         0.0000
      4 C4         -0.1113    3.4339    0.9588 C.ar      1 <0>         0.0000
      5 C5          0.5449    2.2121    1.1939 C.ar      1 <0>         0.0000
      6 C6          0.4603    4.6218    1.4338 C.ar      1 <0>         0.0000
      7 C7          0.5353   -0.1782    0.5209 C.2       1 <0>         0.0000
      8 C8         -1.8324   -0.5315    0.2443 C.3       1 <0>         0.0000
      9 C9         -1.4918    0.9749    0.3041 C.3       1 <0>         0.0000
     10 C10        -0.4842   -1.1191   -0.1408 C.3       1 <0>         0.0000
     11 C11        -1.3152    5.9683    0.5476 C.3       1 <0>         0.0000
     12 N1         -0.0707    1.0134    0.7073 N.am      1 <0>         0.0000
     13 N2         -0.1226   -2.4925    0.3688 N.4       1 <0>         0.0000
     14 O1          1.6613   -0.5886    0.8091 O.2       1 <0>         0.0000
     15 O2         -0.0847    5.8537    1.2613 O.3       1 <0>         0.0000
     16 H1          3.2491    3.3377    2.8919 H         1 <0>         0.0000
     17 H2          2.2642    1.2230    2.0584 H         1 <0>         0.0000
     18 H3          2.1018    5.5142    2.4950 H         1 <0>         0.0000
     19 H4         -1.0369    3.4654    0.3999 H         1 <0>         0.0000
     20 H5         -2.1319   -0.8750    1.2407 H         1 <0>         0.0000
     21 H6         -2.6376   -0.7505   -0.4585 H         1 <0>         0.0000
     22 H7         -1.6285    1.4546   -0.6704 H         1 <0>         0.0000
     23 H8         -2.1005    1.5006    1.0409 H         1 <0>         0.0000
     24 H9         -0.3156   -1.1363   -1.2212 H         1 <0>         0.0000
     25 H10        -1.5527    7.0317    0.5362 H         1 <0>         0.0000
     26 H11        -2.1203    5.4228    1.0551 H         1 <0>         0.0000
     27 H12        -1.2104    5.6094   -0.4835 H         1 <0>         0.0000
     28 H13        -0.5730   -2.7023    1.2680 H         1 <0>         0.0000
     29 H14         0.9094   -2.4424    0.5396 H         1 <0>         0.0000
     30 H15        -0.3386   -3.2521   -0.2854 H         1 <0>         0.0000
@<TRIPOS>BOND
     1    1    2 ar
     2    1    3 ar
     3    1   16 1
     4    2    5 ar
     5    2   17 1
     6    3    6 ar
     7    3   18 1
     8    4    5 ar
     9    4    6 ar
    10    4   19 1
    11    5   12 1
    12    6   15 1
    13    7   10 1
    14    7   12 am
    15    7   14 2
    16    8    9 1
    17    8   10 1
    18    8   20 1
    19    8   21 1
    20    9   12 1
    21    9   22 1
    22    9   23 1
    23   10   13 1
    24   10   24 1
    25   11   15 1
    26   11   25 1
    27   11   26 1
    28   11   27 1
    29   13   28 1
    30   13   29 1
    31   13   30 1
