@<TRIPOS>MOLECULE
*****
   32    33     0     0     0
SMALL
NO_CHARGES

@<TRIPOS>ATOM
      1 C1          0.3411    3.0230   -0.2639 C.ar      1 <0>         0.0000
      2 C2          2.0429    1.7730    0.8758 C.ar      1 <0>         0.0000
      3 C3          1.1548    4.1573   -0.2663 C.ar      1 <0>         0.0000
      4 C4          2.8716    2.8971    0.8833 C.ar      1 <0>         0.0000
      5 C5         -2.7956   -1.0841    5.2182 C.2       1 <0>         0.0000
      6 C6         -2.7758   -0.4410    3.9987 C.2       1 <0>         0.0000
      7 C7         -1.5492   -2.2737    3.9408 C.2       1 <0>         0.0000
      8 C8          0.7633    1.8124    0.3036 C.ar      1 <0>         0.0000
      9 C9          2.4273    4.0955    0.3104 C.ar      1 <0>         0.0000
     10 C10         0.4879   -0.5713   -0.4947 C.3       1 <0>         0.0000
     11 C11        -0.5162    0.1864    1.7391 C.3       1 <0>         0.0000
     12 C12        -1.5798   -0.9161    1.8099 C.3       1 <0>         0.0000
     13 C13        -0.1402    0.5903    0.2985 C.3       1 <0>         0.0000
     14 N1         -2.0258   -2.2281    5.1719 N.2       1 <0>         0.0000
     15 N2         -1.9767   -1.2177    3.1796 N.pl3     1 <0>         0.0000
     16 O1          3.1945    5.2366    0.2851 O.3       1 <0>         0.0000
     17 H1         -0.6466    3.0845   -0.7163 H         1 <0>         0.0000
     18 H2          2.4098    0.8539    1.3262 H         1 <0>         0.0000
     19 H3          0.8203    5.0912   -0.7084 H         1 <0>         0.0000
     20 H4          3.8612    2.8409    1.3348 H         1 <0>         0.0000
     21 H5         -3.3224   -0.7915    6.1176 H         1 <0>         0.0000
     22 H6         -3.2462    0.4660    3.6448 H         1 <0>         0.0000
     23 H7         -0.9011   -3.0431    3.5385 H         1 <0>         0.0000
     24 H8          1.3779   -0.9605    0.0124 H         1 <0>         0.0000
     25 H9          0.7931   -0.2347   -1.4899 H         1 <0>         0.0000
     26 H10        -0.2136   -1.4020   -0.6242 H         1 <0>         0.0000
     27 H11         0.3757   -0.1481    2.2818 H         1 <0>         0.0000
     28 H12        -0.8876    1.0696    2.2697 H         1 <0>         0.0000
     29 H13        -1.2115   -1.8454    1.3690 H         1 <0>         0.0000
     30 H14        -2.4708   -0.6220    1.2438 H         1 <0>         0.0000
     31 H15        -1.0673    0.8785   -0.2143 H         1 <0>         0.0000
     32 H16         4.0432    5.0574    0.7197 H         1 <0>         0.0000
@<TRIPOS>BOND
     1    1    3 ar
     2    1    8 ar
     3    1   17 1
     4    2    4 ar
     5    2    8 ar
     6    2   18 1
     7    3    9 ar
     8    3   19 1
     9    4    9 ar
    10    4   20 1
    11    5    6 2
    12    5   14 1
    13    5   21 1
    14    6   15 1
    15    6   22 1
    16    7   14 2
    17    7   15 1
    18    7   23 1
    19    8   13 1
    20    9   16 1
    21   10   13 1
    22   10   24 1
    23   10   25 1
    24   10   26 1
    25   11   12 1
    26   11   13 1
    27   11   27 1
    28   11   28 1
    29   12   15 1
    30   12   29 1
    31   12   30 1
    32   13   31 1
    33   16   32 1
