@<TRIPOS>MOLECULE
*****
   39    40     0     0     0
SMALL
NO_CHARGES

@<TRIPOS>ATOM
      1 C1         -2.6254    2.3393    3.2163 C.ar      1 <0>         0.0000
      2 C2         -3.1484    2.9585    4.3488 C.ar      1 <0>         0.0000
      3 C3         -1.2285    2.2684    5.6050 C.ar      1 <0>         0.0000
      4 C4         -1.3817    1.6906    3.2299 C.ar      1 <0>         0.0000
      5 C5         -2.4617    2.9348    5.5700 C.ar      1 <0>         0.0000
      6 C6         -0.6923    1.6786    4.4613 C.ar      1 <0>         0.0000
      7 C7         -0.9851    1.0875    1.8931 C.2       1 <0>         0.0000
      8 C8         -2.8596    2.9842    8.1591 C.3       1 <0>         0.0000
      9 C9         -2.1523    4.2631    7.8073 C.3       1 <0>         0.0000
     10 C10        -3.0416    3.5867    6.7724 C.3       1 <0>         0.0000
     11 C11         3.3237    3.2848    2.6860 C.3       1 <0>         0.0000
     12 C12         1.7308    3.9040    4.5258 C.3       1 <0>         0.0000
     13 C13         3.7895    2.5302    5.0488 C.3       1 <0>         0.0000
     14 C14         2.6950    2.8283    4.0126 C.3       1 <0>         0.0000
     15 N1          1.9325    1.5810    3.6529 N.pl3     1 <0>         0.0000
     16 O1         -1.8331    0.6159    1.1637 O.2       1 <0>         0.0000
     17 O2          1.2508    1.0217    6.1347 O.2       1 <0>         0.0000
     18 O3          0.7607   -0.5609    4.1996 O.2       1 <0>         0.0000
     19 O4          0.2926    1.1842    1.4938 O.3       1 <0>         0.0000
     20 S1          0.8591    0.7941    4.7407 S.o2      1 <0>         0.0000
     21 H1         -3.1827    2.3387    2.2855 H         1 <0>         0.0000
     22 H2         -4.1117    3.4585    4.2840 H         1 <0>         0.0000
     23 H3         -0.6644    2.1949    6.5281 H         1 <0>         0.0000
     24 H4         -2.2730    2.0733    8.2306 H         1 <0>         0.0000
     25 H5         -3.7077    3.0288    8.8354 H         1 <0>         0.0000
     26 H6         -2.5106    5.1918    8.2410 H         1 <0>         0.0000
     27 H7         -1.0799    4.2282    7.6391 H         1 <0>         0.0000
     28 H8         -3.9994    4.0666    6.5930 H         1 <0>         0.0000
     29 H9          3.9742    2.5092    2.2667 H         1 <0>         0.0000
     30 H10         2.5541    3.5236    1.9460 H         1 <0>         0.0000
     31 H11         3.9343    4.1773    2.8522 H         1 <0>         0.0000
     32 H12         1.3211    3.6470    5.5046 H         1 <0>         0.0000
     33 H13         0.9026    4.0631    3.8294 H         1 <0>         0.0000
     34 H14         2.2750    4.8469    4.6299 H         1 <0>         0.0000
     35 H15         3.3585    2.1729    5.9854 H         1 <0>         0.0000
     36 H16         4.4824    1.7684    4.6735 H         1 <0>         0.0000
     37 H17         4.3684    3.4373    5.2503 H         1 <0>         0.0000
     38 H18         2.5715    0.8399    3.3492 H         1 <0>         0.0000
     39 H19         0.8824    1.5260    2.2156 H         1 <0>         0.0000
@<TRIPOS>BOND
     1    1    2 ar
     2    1    4 ar
     3    1   21 1
     4    2    5 ar
     5    2   22 1
     6    3    5 ar
     7    3    6 ar
     8    3   23 1
     9    4    6 ar
    10    4    7 1
    11    5   10 1
    12    6   20 1
    13    7   16 2
    14    7   19 1
    15    8    9 1
    16    8   10 1
    17    8   24 1
    18    8   25 1
    19    9   10 1
    20    9   26 1
    21    9   27 1
    22   10   28 1
    23   11   14 1
    24   11   29 1
    25   11   30 1
    26   11   31 1
    27   12   14 1
    28   12   32 1
    29   12   33 1
    30   12   34 1
    31   13   14 1
    32   13   35 1
    33   13   36 1
    34   13   37 1
    35   14   15 1
    36   15   20 1
    37   15   38 1
    38   17   20 2
    39   18   20 2
    40   19   39 1
