@<TRIPOS>MOLECULE
*****
   41    42     0     0     0
SMALL
NO_CHARGES

@<TRIPOS>ATOM
      1 C1          2.0510   -0.4003    0.2300 C.1       1 <0>         0.0000
      2 C2         -4.8950   -1.2321    1.0887 C.ar      1 <0>         0.0000
      3 C3         -4.8179   -0.3610   -1.1572 C.ar      1 <0>         0.0000
      4 C4         -6.1822   -0.7108    1.2605 C.ar      1 <0>         0.0000
      5 C5         -6.1021    0.1676   -1.0088 C.ar      1 <0>         0.0000
      6 C6         -2.4036   -1.7341   -4.0705 C.2       1 <0>         0.0000
      7 C7         -0.8142   -2.7110   -3.0990 C.2       1 <0>         0.0000
      8 C8         -4.1971   -1.0687   -0.1152 C.ar      1 <0>         0.0000
      9 C9         -6.7609   -0.0182    0.2034 C.ar      1 <0>         0.0000
     10 C10         0.5618    1.5597    0.2064 C.3       1 <0>         0.0000
     11 C11         0.4203   -0.1917    2.0233 C.3       1 <0>         0.0000
     12 C12        -2.7902   -1.5982   -0.2841 C.3       1 <0>         0.0000
     13 C13        -1.7696   -0.4498   -0.1502 C.3       1 <0>         0.0000
     14 C14         0.1002   -0.6860   -1.8712 C.3       1 <0>         0.0000
     15 C15         0.6701    0.0491    0.5137 C.3       1 <0>         0.0000
     16 C16        -0.2925   -0.8418   -0.3789 C.3       1 <0>         0.0000
     17 N1          3.1152   -0.8092   -0.0042 N.1       1 <0>         0.0000
     18 N2         -1.8261   -2.9622   -3.9193 N.2       1 <0>         0.0000
     19 N3         -1.8132   -0.7502   -3.3991 N.2       1 <0>         0.0000
     20 N4         -0.7826   -1.3960   -2.7778 N.pl3     1 <0>         0.0000
     21 O1         -0.1435   -2.2138   -0.0011 O.3       1 <0>         0.0000
     22 F1         -8.0127    0.4924    0.3568 F         1 <0>         0.0000
     23 H1         -4.4320   -1.7810    1.9058 H         1 <0>         0.0000
     24 H2         -4.2869   -0.2243   -2.0960 H         1 <0>         0.0000
     25 H3         -6.7321   -0.8383    2.1881 H         1 <0>         0.0000
     26 H4         -6.5926    0.7115   -1.8106 H         1 <0>         0.0000
     27 H5         -3.2721   -1.5573   -4.6920 H         1 <0>         0.0000
     28 H6         -0.1018   -3.4297   -2.7177 H         1 <0>         0.0000
     29 H7         -0.4690    1.8940    0.3453 H         1 <0>         0.0000
     30 H8          0.8759    1.8063   -0.8096 H         1 <0>         0.0000
     31 H9          1.1971    2.1222    0.8955 H         1 <0>         0.0000
     32 H10        -0.5131    0.2815    2.3349 H         1 <0>         0.0000
     33 H11         0.3657   -1.2578    2.2483 H         1 <0>         0.0000
     34 H12         1.2307    0.2517    2.6073 H         1 <0>         0.0000
     35 H13        -2.6965   -2.0888   -1.2534 H         1 <0>         0.0000
     36 H14        -2.5767   -2.3564    0.4722 H         1 <0>         0.0000
     37 H15        -1.8952   -0.0247    0.8478 H         1 <0>         0.0000
     38 H16        -2.0308    0.3413   -0.8577 H         1 <0>         0.0000
     39 H17         1.1178   -1.0545   -2.0269 H         1 <0>         0.0000
     40 H18         0.0687    0.3593   -2.1756 H         1 <0>         0.0000
     41 H19         0.7969   -2.4560   -0.0716 H         1 <0>         0.0000
@<TRIPOS>BOND
     1    1   15 1
     2    1   17 3
     3    2    4 ar
     4    2    8 ar
     5    2   23 1
     6    3    5 ar
     7    3    8 ar
     8    3   24 1
     9    4    9 ar
    10    4   25 1
    11    5    9 ar
    12    5   26 1
    13    6   18 1
    14    6   19 2
    15    6   27 1
    16    7   18 2
    17    7   20 1
    18    7   28 1
    19    8   12 1
    20    9   22 1
    21   10   15 1
    22   10   29 1
    23   10   30 1
    24   10   31 1
    25   11   15 1
    26   11   32 1
    27   11   33 1
    28   11   34 1
    29   12   13 1
    30   12   35 1
    31   12   36 1
    32   13   16 1
    33   13   37 1
    34   13   38 1
    35   14   16 1
    36   14   20 1
    37   14   39 1
    38   14   40 1
    39   15   16 1
    40   16   21 1
    41   19   20 1
    42   21   41 1
