@<TRIPOS>MOLECULE
*****
   15    14     0     0     0
SMALL
NO_CHARGES

@<TRIPOS>ATOM
      1 C1          2.5160   -1.3130   -0.2460 C.2       1 <0>         0.0000
      2 C2          3.7820    0.3240    1.2550 C.3       1 <0>         0.0000
      3 C3          0.0930   -1.6830   -0.3610 C.3       1 <0>         0.0000
      4 C4          3.6570   -0.3050   -0.1430 C.3       1 <0>         0.0000
      5 N1          1.2730   -0.8300   -0.2690 N.am      1 <0>         0.0000
      6 O1          2.7500   -2.5130   -0.2970 O.2       1 <0>         0.0000
      7 H1          2.8740    0.8740    1.5040 H         1 <0>         0.0000
      8 H2          4.6330    1.0060    1.2770 H         1 <0>         0.0000
      9 H3          3.9380   -0.4630    1.9950 H         1 <0>         0.0000
     10 H4         -0.8140   -1.0780   -0.3530 H         1 <0>         0.0000
     11 H5          0.0720   -2.3760    0.4830 H         1 <0>         0.0000
     12 H6          0.1300   -2.2640   -1.2860 H         1 <0>         0.0000
     13 H7          3.4990    0.4800   -0.8820 H         1 <0>         0.0000
     14 H8          4.5860   -0.8200   -0.3860 H         1 <0>         0.0000
     15 H9          1.1490    0.1660   -0.2080 H         1 <0>         0.0000
@<TRIPOS>BOND
     1    1    4 1
     2    1    5 am
     3    1    6 2
     4    2    4 1
     5    2    7 1
     6    2    8 1
     7    2    9 1
     8    3    5 1
     9    3   10 1
    10    3   11 1
    11    3   12 1
    12    4   13 1
    13    4   14 1
    14    5   15 1
