@<TRIPOS>MOLECULE
*****
   26    26     0     0     0
SMALL
NO_CHARGES

@<TRIPOS>ATOM
      1 C1         -0.8050    0.8740    0.5740 C.ar      1 <0>         0.0000
      2 C2         -0.0920    1.0860   -0.5970 C.ar      1 <0>         0.0000
      3 C3         -0.4770   -0.1930    1.4010 C.ar      1 <0>         0.0000
      4 C4          0.9500    0.2310   -0.9380 C.ar      1 <0>         0.0000
      5 C5          0.5690   -1.0560    1.0700 C.ar      1 <0>         0.0000
      6 C6          1.3000   -0.8470   -0.1160 C.ar      1 <0>         0.0000
      7 C7          0.8840   -2.2080    2.0090 C.3       1 <0>         0.0000
      8 C8          4.3740   -0.1960    0.5540 C.3       1 <0>         0.0000
      9 C9          5.0320   -2.5260    0.4850 C.3       1 <0>         0.0000
     10 N1          3.9060   -1.5850    0.4510 N.pl3     1 <0>         0.0000
     11 O1          2.2980   -3.2790   -0.4840 O.2       1 <0>         0.0000
     12 O2          3.1140   -1.5150   -1.9220 O.2       1 <0>         0.0000
     13 S1          2.6800   -1.9150   -0.6260 S.o2      1 <0>         0.0000
     14 H1         -1.6020    1.5230    0.8360 H         1 <0>         0.0000
     15 H2         -0.3440    1.8970   -1.2320 H         1 <0>         0.0000
     16 H3         -1.0320   -0.3480    2.2900 H         1 <0>         0.0000
     17 H4          1.4860    0.3980   -1.8380 H         1 <0>         0.0000
     18 H5          0.3000   -2.1050    2.9240 H         1 <0>         0.0000
     19 H6          1.9450   -2.1890    2.2570 H         1 <0>         0.0000
     20 H7          0.6210   -3.1420    1.5110 H         1 <0>         0.0000
     21 H8          5.0530   -0.1240    1.3940 H         1 <0>         0.0000
     22 H9          3.5150    0.4420    0.7200 H         1 <0>         0.0000
     23 H10         4.8740    0.0580   -0.3740 H         1 <0>         0.0000
     24 H11         4.6280   -3.5270    0.5810 H         1 <0>         0.0000
     25 H12         5.6520   -2.2940    1.3410 H         1 <0>         0.0000
     26 H13         5.5840   -2.4220   -0.4410 H         1 <0>         0.0000
@<TRIPOS>BOND
     1    1    2 ar
     2    1    3 ar
     3    1   14 1
     4    2    4 ar
     5    2   15 1
     6    3    5 ar
     7    3   16 1
     8    4    6 ar
     9    4   17 1
    10    5    6 ar
    11    5    7 1
    12    6   13 1
    13    7   18 1
    14    7   19 1
    15    7   20 1
    16    8   10 1
    17    8   21 1
    18    8   22 1
    19    8   23 1
    20    9   10 1
    21    9   24 1
    22    9   25 1
    23    9   26 1
    24   10   13 1
    25   11   13 2
    26   12   13 2
