@<TRIPOS>MOLECULE
*****
   26    26     0     0     0
SMALL
NO_CHARGES

@<TRIPOS>ATOM
      1 C1          4.8650    0.9280    1.8650 C.ar      1 <0>         0.0000
      2 C2          5.8300    1.3190    0.9390 C.ar      1 <0>         0.0000
      3 C3          3.7820    0.1540    1.4600 C.ar      1 <0>         0.0000
      4 C4          5.7210    0.9220   -0.3890 C.ar      1 <0>         0.0000
      5 C5          3.6420   -0.2420    0.1230 C.ar      1 <0>         0.0000
      6 C6          4.6460    0.1330   -0.7930 C.ar      1 <0>         0.0000
      7 C7          2.4530   -0.9910   -0.2690 C.2       1 <0>         0.0000
      8 C8          1.5150    1.0610   -1.3280 C.3       1 <0>         0.0000
      9 C9          0.2280   -1.1100   -1.3690 C.3       1 <0>         0.0000
     10 C10         4.1890   -1.5050   -2.6460 C.3       1 <0>         0.0000
     11 N1          1.3910   -0.3400   -0.8870 N.am      1 <0>         0.0000
     12 O1          2.3430   -2.1970   -0.0640 O.2       1 <0>         0.0000
     13 O2          4.6490   -0.2320   -2.1240 O.3       1 <0>         0.0000
     14 H1          4.9560    1.2240    2.8800 H         1 <0>         0.0000
     15 H2          6.6510    1.9140    1.2490 H         1 <0>         0.0000
     16 H3          3.0480   -0.1380    2.1670 H         1 <0>         0.0000
     17 H4          6.4540    1.2090   -1.0980 H         1 <0>         0.0000
     18 H5          0.5310    1.4340   -1.5770 H         1 <0>         0.0000
     19 H6          2.1650    1.0750   -2.1940 H         1 <0>         0.0000
     20 H7          1.9350    1.6390   -0.5150 H         1 <0>         0.0000
     21 H8         -0.6090   -0.4360   -1.4860 H         1 <0>         0.0000
     22 H9         -0.0060   -1.8680   -0.6320 H         1 <0>         0.0000
     23 H10         0.5070   -1.5620   -2.3120 H         1 <0>         0.0000
     24 H11         4.7120   -1.6890   -3.5850 H         1 <0>         0.0000
     25 H12         3.1150   -1.4450   -2.8190 H         1 <0>         0.0000
     26 H13         4.4240   -2.2860   -1.9210 H         1 <0>         0.0000
@<TRIPOS>BOND
     1    1    2 ar
     2    1    3 ar
     3    1   14 1
     4    2    4 ar
     5    2   15 1
     6    3    5 ar
     7    3   16 1
     8    4    6 ar
     9    4   17 1
    10    5    6 ar
    11    5    7 1
    12    6   13 1
    13    7   11 am
    14    7   12 2
    15    8   11 1
    16    8   18 1
    17    8   19 1
    18    8   20 1
    19    9   11 1
    20    9   21 1
    21    9   22 1
    22    9   23 1
    23   10   13 1
    24   10   24 1
    25   10   25 1
    26   10   26 1
