@<TRIPOS>MOLECULE
*****
   44    46     0     0     0
SMALL
NO_CHARGES

@<TRIPOS>ATOM
      1 C1         -1.4224    2.0895   -1.0325 C.ar      1 <0>         0.0000
      2 C2         -0.4187    3.0389   -1.2187 C.ar      1 <0>         0.0000
      3 C3         -0.9768    1.1921   -3.2289 C.ar      1 <0>         0.0000
      4 C4          0.0422    2.1349   -3.4213 C.ar      1 <0>         0.0000
      5 C5         -1.7040    1.1685   -2.0386 C.ar      1 <0>         0.0000
      6 C6          0.3053    3.0708   -2.4140 C.ar      1 <0>         0.0000
      7 C7         -0.8967   -0.7666   -1.0845 C.2       1 <0>         0.0000
      8 C8         -0.3664   -0.3223    0.0739 C.2       1 <0>         0.0000
      9 C9         -0.0172   -1.2800   -2.1987 C.2       1 <0>         0.0000
     10 C10         0.8105    2.1493   -4.7093 C.3       1 <0>         0.0000
     11 C11         2.1058    2.9303   -4.5386 C.3       1 <0>         0.0000
     12 C12         1.8687    4.2546   -3.7949 C.3       1 <0>         0.0000
     13 C13        -1.1227    0.1944    1.2615 C.3       1 <0>         0.0000
     14 C14        -0.6739   -2.1080   -3.2829 C.3       1 <0>         0.0000
     15 C15         0.9973    5.2360   -4.5934 C.3       1 <0>         0.0000
     16 C16         3.2261    4.9188   -3.5218 C.3       1 <0>         0.0000
     17 N1          1.2517   -1.0590   -2.3253 N.2       1 <0>         0.0000
     18 N2         -2.7150    0.2197   -1.8555 N.2       1 <0>         0.0000
     19 N3         -2.2435   -0.8166   -1.3367 N.2       1 <0>         0.0000
     20 N4          1.0556   -0.3570    0.2420 N.pl3     1 <0>         0.0000
     21 O1          3.2829   -0.7742   -0.9040 O.2       1 <0>         0.0000
     22 O2          1.9274    1.2244   -1.5593 O.2       1 <0>         0.0000
     23 O3          1.2680    4.0413   -2.5034 O.3       1 <0>         0.0000
     24 S1          1.9860   -0.1768   -1.1754 S.o2      1 <0>         0.0000
     25 H1         -1.9819    2.0779   -0.1009 H         1 <0>         0.0000
     26 H2         -0.2090    3.7567   -0.4297 H         1 <0>         0.0000
     27 H3         -1.1994    0.4704   -4.0121 H         1 <0>         0.0000
     28 H4          1.0477    1.1258   -5.0230 H         1 <0>         0.0000
     29 H5          0.1899    2.6010   -5.4917 H         1 <0>         0.0000
     30 H6          2.8019    2.3109   -3.9555 H         1 <0>         0.0000
     31 H7          2.5710    3.1008   -5.5167 H         1 <0>         0.0000
     32 H8         -1.3509   -0.6296    1.9343 H         1 <0>         0.0000
     33 H9         -2.0486    0.6602    0.9295 H         1 <0>         0.0000
     34 H10        -0.5193    0.9344    1.7837 H         1 <0>         0.0000
     35 H11        -1.0104   -1.4466   -4.0717 H         1 <0>         0.0000
     36 H12        -1.5150   -2.6404   -2.8551 H         1 <0>         0.0000
     37 H13         0.0503   -2.8151   -3.6693 H         1 <0>         0.0000
     38 H14         0.8649    6.1488   -4.0204 H         1 <0>         0.0000
     39 H15         0.0290    4.7838   -4.7855 H         1 <0>         0.0000
     40 H16         1.4848    5.4658   -5.5360 H         1 <0>         0.0000
     41 H17         3.0697    5.8561   -2.9962 H         1 <0>         0.0000
     42 H18         3.7298    5.1106   -4.4645 H         1 <0>         0.0000
     43 H19         3.8349    4.2576   -2.9123 H         1 <0>         0.0000
     44 H20         1.3951   -0.9941    0.9764 H         1 <0>         0.0000
@<TRIPOS>BOND
     1    1    2 ar
     2    1    5 ar
     3    1   25 1
     4    2    6 ar
     5    2   26 1
     6    3    4 ar
     7    3    5 ar
     8    3   27 1
     9    4    6 ar
    10    4   10 1
    11    5   18 1
    12    6   23 1
    13    7    8 2
    14    7    9 1
    15    7   19 1
    16    8   13 1
    17    8   20 1
    18    9   14 1
    19    9   17 2
    20   10   11 1
    21   10   28 1
    22   10   29 1
    23   11   12 1
    24   11   30 1
    25   11   31 1
    26   12   15 1
    27   12   16 1
    28   12   23 1
    29   13   32 1
    30   13   33 1
    31   13   34 1
    32   14   35 1
    33   14   36 1
    34   14   37 1
    35   15   38 1
    36   15   39 1
    37   15   40 1
    38   16   41 1
    39   16   42 1
    40   16   43 1
    41   17   24 1
    42   18   19 2
    43   20   24 1
    44   20   44 1
    45   21   24 2
    46   22   24 2
