@<TRIPOS>MOLECULE
*****
   50    53     0     0     0
SMALL
NO_CHARGES

@<TRIPOS>ATOM
      1 C1          4.4141    8.7611  -10.9699 C.ar      1 <0>         0.0000
      2 C2          5.0778    7.6031  -11.4551 C.ar      1 <0>         0.0000
      3 C3          3.5138    8.6588   -9.9294 C.ar      1 <0>         0.0000
      4 C4          2.3282    7.2223   -8.2597 C.ar      1 <0>         0.0000
      5 C5          1.6362   -0.1179   -5.7493 C.ar      1 <0>         0.0000
      6 C6          0.2503    1.1772   -4.2749 C.ar      1 <0>         0.0000
      7 C7          4.8319    6.3665  -10.8944 C.ar      1 <0>         0.0000
      8 C8          1.9943    1.0419   -6.4541 C.ar      1 <0>         0.0000
      9 C9          0.5942    2.3369   -4.9652 C.ar      1 <0>         0.0000
     10 C10         2.1232    5.9658   -7.7390 C.ar      1 <0>         0.0000
     11 C11         3.2411    7.3983   -9.3327 C.ar      1 <0>         0.0000
     12 C12         0.7708   -0.0753   -4.6537 C.ar      1 <0>         0.0000
     13 C13         3.9093    6.2305   -9.8208 C.ar      1 <0>         0.0000
     14 C14         1.4721    2.2742   -6.0549 C.ar      1 <0>         0.0000
     15 C15         2.8380    4.8674   -8.2958 C.ar      1 <0>         0.0000
     16 C16        -1.1337   -1.5483   -3.7610 C.2       1 <0>         0.0000
     17 C17         2.9289   -1.4928   -0.9375 C.3       1 <0>         0.0000
     18 C18         1.7443   -2.3541   -0.3974 C.3       1 <0>         0.0000
     19 C19         2.5637   -1.1493   -2.3998 C.3       1 <0>         0.0000
     20 C20         0.7426   -2.4731   -1.5683 C.3       1 <0>         0.0000
     21 C21         1.0296   -1.2475   -2.4494 C.3       1 <0>         0.0000
     22 C22         2.6495    3.4621   -7.7689 C.3       1 <0>         0.0000
     23 C23         0.4385   -1.3417   -3.8743 C.3       1 <0>         0.0000
     24 N1          3.6958    4.9899   -9.2941 N.ar      1 <0>         0.0000
     25 O1         -1.7776   -0.6925   -3.1111 O.co2     1 <0>         0.0000
     26 O2         -1.5403   -2.6023   -4.3365 O.co2     1 <0>         0.0000
     27 O3          0.9763   -2.4812   -4.5416 O.3       1 <0>         0.0000
     28 O4          1.7576    3.4863   -6.6737 O.3       1 <0>         0.0000
     29 H1          4.6189    9.7280  -11.4227 H         1 <0>         0.0000
     30 H2          5.7851    7.6960  -12.2757 H         1 <0>         0.0000
     31 H3          3.0018    9.5422   -9.5529 H         1 <0>         0.0000
     32 H4          1.7985    8.0844   -7.8587 H         1 <0>         0.0000
     33 H5          2.0317   -1.0822   -6.0500 H         1 <0>         0.0000
     34 H6         -0.4599    1.2137   -3.4552 H         1 <0>         0.0000
     35 H7          5.3291    5.4689  -11.2510 H         1 <0>         0.0000
     36 H8          2.6717    0.9610   -7.2983 H         1 <0>         0.0000
     37 H9          0.1830    3.3022   -4.6787 H         1 <0>         0.0000
     38 H10         1.4377    5.7830   -6.9205 H         1 <0>         0.0000
     39 H11         3.0303   -0.5758   -0.3447 H         1 <0>         0.0000
     40 H12         3.8884   -2.0186   -0.8682 H         1 <0>         0.0000
     41 H13         2.0778   -3.3362   -0.0422 H         1 <0>         0.0000
     42 H14         1.2743   -1.8542    0.4578 H         1 <0>         0.0000
     43 H15         2.9370   -0.1689   -2.7125 H         1 <0>         0.0000
     44 H16         2.9781   -1.8961   -3.0863 H         1 <0>         0.0000
     45 H17         0.9418   -3.3742   -2.1575 H         1 <0>         0.0000
     46 H18        -0.3000   -2.5096   -1.2421 H         1 <0>         0.0000
     47 H19         0.5898   -0.3642   -1.9722 H         1 <0>         0.0000
     48 H20         2.2644    2.8286   -8.5807 H         1 <0>         0.0000
     49 H21         3.6293    3.0596   -7.4763 H         1 <0>         0.0000
     50 H22         0.1334   -2.9719   -4.7403 H         1 <0>         0.0000
@<TRIPOS>BOND
     1    1    2 ar
     2    1    3 ar
     3    1   29 1
     4    2    7 ar
     5    2   30 1
     6    3   11 ar
     7    3   31 1
     8    4   10 ar
     9    4   11 ar
    10    4   32 1
    11    5    8 ar
    12    5   12 ar
    13    5   33 1
    14    6    9 ar
    15    6   12 ar
    16    6   34 1
    17    7   13 ar
    18    7   35 1
    19    8   14 ar
    20    8   36 1
    21    9   14 ar
    22    9   37 1
    23   10   15 ar
    24   10   38 1
    25   11   13 ar
    26   12   23 1
    27   13   24 ar
    28   14   28 1
    29   15   22 1
    30   15   24 ar
    31   16   23 1
    32   16   25 1
    33   16   26 2
    34   17   18 1
    35   17   19 1
    36   17   39 1
    37   17   40 1
    38   18   20 1
    39   18   41 1
    40   18   42 1
    41   19   21 1
    42   19   43 1
    43   19   44 1
    44   20   21 1
    45   20   45 1
    46   20   46 1
    47   21   23 1
    48   21   47 1
    49   22   28 1
    50   22   48 1
    51   22   49 1
    52   23   27 1
    53   27   50 1
