@<TRIPOS>MOLECULE
*****
   22    22     0     0     0
SMALL
NO_CHARGES

@<TRIPOS>ATOM
      1 C1          1.8851   -1.0363   -0.1124 C.ar      1 <0>         0.0000
      2 C2          0.8066   -0.4630    0.5610 C.ar      1 <0>         0.0000
      3 C3          2.9210   -1.6309    0.6081 C.ar      1 <0>         0.0000
      4 C4          1.7997   -1.0786    2.6757 C.ar      1 <0>         0.0000
      5 C5          0.7638   -0.4841    1.9551 C.ar      1 <0>         0.0000
      6 C6          2.8783   -1.6520    2.0022 C.ar      1 <0>         0.0000
      7 C7          1.7614   -1.1017    4.1338 C.2       1 <0>         0.0000
      8 C8         -0.4045    0.1372    2.6486 C.3       1 <0>         0.0000
      9 C9          2.9149   -0.4104    6.1001 C.3       1 <0>         0.0000
     10 O1          0.8688   -1.6393    4.7980 O.2       1 <0>         0.0000
     11 O2          3.9021   -2.2365    2.6862 O.3       1 <0>         0.0000
     12 O3          2.8385   -0.4547    4.6712 O.3       1 <0>         0.0000
     13 H1          1.9183   -1.0197   -1.1979 H         1 <0>         0.0000
     14 H2          0.0045   -0.0021   -0.0096 H         1 <0>         0.0000
     15 H3          3.7592   -2.0744    0.0776 H         1 <0>         0.0000
     16 H4         -1.1971   -0.6053    2.7958 H         1 <0>         0.0000
     17 H5         -0.1158    0.5398    3.6271 H         1 <0>         0.0000
     18 H6         -0.8116    0.9731    2.0665 H         1 <0>         0.0000
     19 H7          3.8153    0.1307    6.4010 H         1 <0>         0.0000
     20 H8          2.9393   -1.4287    6.4963 H         1 <0>         0.0000
     21 H9          2.0346    0.1080    6.4873 H         1 <0>         0.0000
     22 H10         4.5645   -2.5806    2.0671 H         1 <0>         0.0000
@<TRIPOS>BOND
     1    1    2 ar
     2    1    3 ar
     3    1   13 1
     4    2    5 ar
     5    2   14 1
     6    3    6 ar
     7    3   15 1
     8    4    5 ar
     9    4    6 ar
    10    4    7 1
    11    5    8 1
    12    6   11 1
    13    7   10 2
    14    7   12 1
    15    8   16 1
    16    8   17 1
    17    8   18 1
    18    9   12 1
    19    9   19 1
    20    9   20 1
    21    9   21 1
    22   11   22 1
