@<TRIPOS>MOLECULE
*****
   24    24     0     0     0
SMALL
NO_CHARGES

@<TRIPOS>ATOM
      1 C1          4.8015    2.1600   -4.9713 C.2       1 <0>         0.0000
      2 C2          3.9545    1.2943   -4.3420 C.2       1 <0>         0.0000
      3 C3          5.4953   -0.2422   -4.9060 C.2       1 <0>         0.0000
      4 C4          1.7149    0.4041   -3.8338 C.2       1 <0>         0.0000
      5 C5          1.1246   -1.2867   -5.3852 C.3       1 <0>         0.0000
      6 C6          5.0445   -2.7969   -3.0062 C.3       1 <0>         0.0000
      7 C7          2.6147    1.6253   -3.7219 C.3       1 <0>         0.0000
      8 N1          4.3440   -0.0238   -4.2854 N.2       1 <0>         0.0000
      9 N2          6.1862   -1.3745   -5.0964 N.2       1 <0>         0.0000
     10 O1          1.2682   -0.2194   -2.8870 O.2       1 <0>         0.0000
     11 O2          6.4238   -3.8650   -4.9909 O.2       1 <0>         0.0000
     12 O3          4.1273   -2.9421   -5.4807 O.2       1 <0>         0.0000
     13 O4          1.4932    0.0870   -5.1267 O.3       1 <0>         0.0000
     14 S1          6.2017    1.2819   -5.5689 S.3       1 <0>         0.0000
     15 S2          5.4302   -2.7907   -4.7826 S.o2      1 <0>         0.0000
     16 H1          4.6818    3.2240   -5.1320 H         1 <0>         0.0000
     17 H2          0.8182   -1.3131   -6.4324 H         1 <0>         0.0000
     18 H3          0.3027   -1.5956   -4.7347 H         1 <0>         0.0000
     19 H4          2.0068   -1.9161   -5.2356 H         1 <0>         0.0000
     20 H5          4.5806   -3.7615   -2.7876 H         1 <0>         0.0000
     21 H6          5.9829   -2.6883   -2.4588 H         1 <0>         0.0000
     22 H7          4.3628   -1.9715   -2.8014 H         1 <0>         0.0000
     23 H8          2.7049    1.8606   -2.6575 H         1 <0>         0.0000
     24 H9          2.1583    2.4785   -4.2343 H         1 <0>         0.0000
@<TRIPOS>BOND
     1    1    2 2
     2    1   14 1
     3    1   16 1
     4    2    7 1
     5    2    8 1
     6    3    8 2
     7    3    9 1
     8    3   14 1
     9    4    7 1
    10    4   10 2
    11    4   13 1
    12    5   13 1
    13    5   17 1
    14    5   18 1
    15    5   19 1
    16    6   15 1
    17    6   20 1
    18    6   21 1
    19    6   22 1
    20    7   23 1
    21    7   24 1
    22    9   15 1
    23   11   15 2
    24   12   15 2
