@<TRIPOS>MOLECULE
*****
   43    45     0     0     0
SMALL
NO_CHARGES

@<TRIPOS>ATOM
      1 C1          0.4430   -5.9232   -0.1225 C.ar      1 <0>         0.0000
      2 C2          1.9649   -5.2984   -1.8918 C.ar      1 <0>         0.0000
      3 C3         -0.4401   -4.9229   -0.5288 C.ar      1 <0>         0.0000
      4 C4          1.0818   -4.2981   -2.2982 C.ar      1 <0>         0.0000
      5 C5          0.2541    3.9813   -1.0361 C.2       1 <0>         0.0000
      6 C6          1.6456   -6.1109   -0.8039 C.ar      1 <0>         0.0000
      7 C7         -0.1207   -4.1104   -1.6167 C.ar      1 <0>         0.0000
      8 C8          0.6852    3.0004   -0.1787 C.2       1 <0>         0.0000
      9 C9         -0.1419    2.0037    0.5094 C.2       1 <0>         0.0000
     10 C10        -0.7161   -1.7263    0.2831 C.3       1 <0>         0.0000
     11 C11         0.5756   -0.8842   -1.6649 C.3       1 <0>         0.0000
     12 C12        -0.7343   -0.3509    0.9582 C.3       1 <0>         0.0000
     13 C13         1.1419    0.1365   -0.6617 C.3       1 <0>         0.0000
     14 C14        -0.3556   -0.4778    2.4360 C.3       1 <0>         0.0000
     15 C15         2.3536   -0.4086    0.1020 C.3       1 <0>         0.0000
     16 N1          2.0441    3.0712   -0.0455 N.2       1 <0>         0.0000
     17 N2          2.4764    4.0759   -0.7998 N.2       1 <0>         0.0000
     18 N3          1.4016    4.6203   -1.3928 N.pl3     1 <0>         0.0000
     19 N4          0.1056    0.6436    0.2624 N.am      1 <0>         0.0000
     20 N5         -0.6751   -1.5393   -1.1847 N.pl3     1 <0>         0.0000
     21 O1         -1.0067    2.4487    1.2632 O.2       1 <0>         0.0000
     22 O2         -0.9767   -2.5670   -3.5295 O.2       1 <0>         0.0000
     23 O3         -2.5660   -3.2157   -1.6853 O.2       1 <0>         0.0000
     24 F1          2.4941   -7.0709   -0.4131 F         1 <0>         0.0000
     25 S1         -1.2395   -2.8455   -2.1329 S.o2      1 <0>         0.0000
     26 H1          0.1949   -6.5559    0.7247 H         1 <0>         0.0000
     27 H2          2.9014   -5.4451   -2.4219 H         1 <0>         0.0000
     28 H3         -1.3742   -4.7852    0.0092 H         1 <0>         0.0000
     29 H4          1.3411   -3.6708   -3.1468 H         1 <0>         0.0000
     30 H5         -0.7169    4.2723   -1.4096 H         1 <0>         0.0000
     31 H6          0.1367   -2.3366    0.5995 H         1 <0>         0.0000
     32 H7         -1.6277   -2.2679    0.5618 H         1 <0>         0.0000
     33 H8          0.3195   -0.3590   -2.5934 H         1 <0>         0.0000
     34 H9          1.3233   -1.6487   -1.9056 H         1 <0>         0.0000
     35 H10        -1.7617    0.0357    0.9120 H         1 <0>         0.0000
     36 H11         1.5305    0.9641   -1.2615 H         1 <0>         0.0000
     37 H12         0.6591   -0.8592    2.5214 H         1 <0>         0.0000
     38 H13        -1.0402   -1.1626    2.9307 H         1 <0>         0.0000
     39 H14        -0.4148    0.4977    2.9130 H         1 <0>         0.0000
     40 H15         2.0451   -1.2427    0.7274 H         1 <0>         0.0000
     41 H16         2.7726    0.3753    0.7279 H         1 <0>         0.0000
     42 H17         3.1073   -0.7474   -0.6046 H         1 <0>         0.0000
     43 H18         1.5282    5.4086   -2.0160 H         1 <0>         0.0000
@<TRIPOS>BOND
     1    1    3 ar
     2    1    6 ar
     3    1   26 1
     4    2    4 ar
     5    2    6 ar
     6    2   27 1
     7    3    7 ar
     8    3   28 1
     9    4    7 ar
    10    4   29 1
    11    5    8 2
    12    5   18 1
    13    5   30 1
    14    6   24 1
    15    7   25 1
    16    8    9 1
    17    8   16 1
    18    9   19 am
    19    9   21 2
    20   10   12 1
    21   10   20 1
    22   10   31 1
    23   10   32 1
    24   11   13 1
    25   11   20 1
    26   11   33 1
    27   11   34 1
    28   12   14 1
    29   12   19 1
    30   12   35 1
    31   13   15 1
    32   13   19 1
    33   13   36 1
    34   14   37 1
    35   14   38 1
    36   14   39 1
    37   15   40 1
    38   15   41 1
    39   15   42 1
    40   16   17 2
    41   17   18 1
    42   18   43 1
    43   20   25 1
    44   22   25 2
    45   23   25 2
