@<TRIPOS>MOLECULE
*****
   28    29     0     0     0
SMALL
NO_CHARGES

@<TRIPOS>ATOM
      1 C1         -1.4855   -2.7876   -0.5437 C.ar      1 <0>         0.0000
      2 C2         -0.6321   -1.7056   -0.3279 C.ar      1 <0>         0.0000
      3 C3         -1.2807   -3.9849    0.1419 C.ar      1 <0>         0.0000
      4 C4          0.6307   -3.0181    1.2594 C.ar      1 <0>         0.0000
      5 C5          0.4260   -1.8208    0.5737 C.ar      1 <0>         0.0000
      6 C6         -0.2227   -4.1002    1.0435 C.ar      1 <0>         0.0000
      7 C7          7.0955   -3.1166    3.5980 C.3       1 <0>         0.0000
      8 C8          7.6589   -4.3532    2.9638 C.3       1 <0>         0.0000
      9 C9          6.1898   -4.2739    3.2773 C.3       1 <0>         0.0000
     10 C10         3.9329   -3.6586    2.7395 C.3       1 <0>         0.0000
     11 C11         2.9104   -3.5916    1.6197 C.3       1 <0>         0.0000
     12 N1          5.2167   -4.1721    2.2096 N.3       1 <0>         0.0000
     13 O1          1.6671   -3.1309    2.1412 O.3       1 <0>         0.0000
     14 Cl1         1.4631   -0.4635    0.8197 Cl        1 <0>         0.0000
     15 Cl2         0.0033   -5.5951    1.8753 Cl        1 <0>         0.0000
     16 H1         -2.3097   -2.6971   -1.2454 H         1 <0>         0.0000
     17 H2         -0.8055   -0.7790   -0.8699 H         1 <0>         0.0000
     18 H3         -1.9549   -4.8184   -0.0372 H         1 <0>         0.0000
     19 H4          7.3285   -2.9326    4.6399 H         1 <0>         0.0000
     20 H5          7.0341   -2.2229    2.9889 H         1 <0>         0.0000
     21 H6          7.9752   -4.2892    1.9298 H         1 <0>         0.0000
     22 H7          8.2707   -5.0016    3.5792 H         1 <0>         0.0000
     23 H8          5.8450   -4.8645    4.1202 H         1 <0>         0.0000
     24 H9          4.1118   -2.6696    3.1732 H         1 <0>         0.0000
     25 H10         3.5921   -4.3384    3.5262 H         1 <0>         0.0000
     26 H11         2.7511   -4.5887    1.1976 H         1 <0>         0.0000
     27 H12         3.2307   -2.9133    0.8222 H         1 <0>         0.0000
     28 H13         5.0443   -5.0828    1.8034 H         1 <0>         0.0000
@<TRIPOS>BOND
     1    1    3 ar
     2    1    2 ar
     3    1   16 1
     4    2    5 ar
     5    2   17 1
     6    3    6 ar
     7    3   18 1
     8    4    6 ar
     9    4    5 ar
    10    4   13 1
    11    5   14 1
    12    6   15 1
    13    7    8 1
    14    7    9 1
    15    7   19 1
    16    7   20 1
    17    8    9 1
    18    8   21 1
    19    8   22 1
    20    9   12 1
    21    9   23 1
    22   10   11 1
    23   10   12 1
    24   10   24 1
    25   10   25 1
    26   11   13 1
    27   11   26 1
    28   11   27 1
    29   12   28 1
