@<TRIPOS>MOLECULE
*****
   32    33     0     0     0
SMALL
NO_CHARGES

@<TRIPOS>ATOM
      1 C1         -2.7885   -3.8435    3.1498 C.1       1 <0>         0.0000
      2 C2         -0.2880    2.0756    6.2145 C.ar      1 <0>         0.0000
      3 C3          1.7667    1.1847    5.3080 C.ar      1 <0>         0.0000
      4 C4         -0.9113    0.8444    6.0118 C.ar      1 <0>         0.0000
      5 C5          1.1433   -0.0466    5.1052 C.ar      1 <0>         0.0000
      6 C6         -2.3593   -2.5296    2.8272 C.2       1 <0>         0.0000
      7 C7          1.0510    2.2458    5.8625 C.ar      1 <0>         0.0000
      8 C8         -0.1957   -0.2167    5.4572 C.ar      1 <0>         0.0000
      9 C9         -1.6391   -1.6400    3.5851 C.2       1 <0>         0.0000
     10 C10        -2.1077   -0.7840    1.6815 C.2       1 <0>         0.0000
     11 C11        -3.3648    0.2416   -0.2456 C.3       1 <0>         0.0000
     12 C12        -0.8490    0.1679   -0.2822 C.3       1 <0>         0.0000
     13 C13        -2.0398    1.7563    1.2146 C.3       1 <0>         0.0000
     14 C14        -2.0904    0.3299    0.6216 C.3       1 <0>         0.0000
     15 N1         -3.1393   -4.9178    3.4135 N.1       1 <0>         0.0000
     16 N2         -2.6569   -1.9754    1.6085 N.2       1 <0>         0.0000
     17 O1         -1.4704   -0.5048    2.8514 O.3       1 <0>         0.0000
     18 F1          1.6496    3.4282    6.0571 F         1 <0>         0.0000
     19 S1         -0.9982   -1.8014    5.1963 S.3       1 <0>         0.0000
     20 H1         -0.8445    2.9020    6.6467 H         1 <0>         0.0000
     21 H2          2.8090    1.3179    5.0337 H         1 <0>         0.0000
     22 H3         -1.9556    0.7310    6.2926 H         1 <0>         0.0000
     23 H4          1.7173   -0.8617    4.6713 H         1 <0>         0.0000
     24 H5         -3.3774    1.0265   -1.0109 H         1 <0>         0.0000
     25 H6         -3.4443   -0.7172   -0.7695 H         1 <0>         0.0000
     26 H7         -4.2671    0.3578    0.3664 H         1 <0>         0.0000
     27 H8         -0.7949    0.9425   -1.0550 H         1 <0>         0.0000
     28 H9          0.0765    0.2332    0.3018 H         1 <0>         0.0000
     29 H10        -0.8550   -0.8037   -0.7902 H         1 <0>         0.0000
     30 H11        -2.0291    2.5137    0.4215 H         1 <0>         0.0000
     31 H12        -2.9130    1.9627    1.8446 H         1 <0>         0.0000
     32 H13        -1.1383    1.9104    1.8189 H         1 <0>         0.0000
@<TRIPOS>BOND
     1    1    6 1
     2    1   15 3
     3    2    4 ar
     4    2    7 ar
     5    2   20 1
     6    3    5 ar
     7    3    7 ar
     8    3   21 1
     9    4    8 ar
    10    4   22 1
    11    5    8 ar
    12    5   23 1
    13    6    9 2
    14    6   16 1
    15    7   18 1
    16    8   19 1
    17    9   17 1
    18    9   19 1
    19   10   14 1
    20   10   16 2
    21   10   17 1
    22   11   14 1
    23   11   24 1
    24   11   25 1
    25   11   26 1
    26   12   14 1
    27   12   27 1
    28   12   28 1
    29   12   29 1
    30   13   14 1
    31   13   30 1
    32   13   31 1
    33   13   32 1
