@<TRIPOS>MOLECULE
*****
   13    13     0     0     0
SMALL
NO_CHARGES

@<TRIPOS>ATOM
      1 C1          2.1607    0.6077   -0.0597 C.2       1 <0>         0.0000
      2 C2          2.6296    1.8901   -0.1674 C.2       1 <0>         0.0000
      3 C3          0.7635    0.7611   -0.0659 C.2       1 <0>         0.0000
      4 C4         -0.2335   -0.2662    0.0247 C.2       1 <0>         0.0000
      5 C5          0.2278   -1.6996    0.1426 C.3       1 <0>         0.0000
      6 N1          0.3941    2.0408   -0.1696 N.2       1 <0>         0.0000
      7 O1         -1.4648   -0.0868    0.0107 O.2       1 <0>         0.0000
      8 O2          1.5849    2.7545   -0.2338 O.3       1 <0>         0.0000
      9 H1          2.7454   -0.2975    0.0123 H         1 <0>         0.0000
     10 H2          3.6134    2.3335   -0.2075 H         1 <0>         0.0000
     11 H3          0.3668   -2.0324    1.1833 H         1 <0>         0.0000
     12 H4          1.1694   -1.8930   -0.3944 H         1 <0>         0.0000
     13 H5         -0.4836   -2.4342   -0.2750 H         1 <0>         0.0000
@<TRIPOS>BOND
     1    1    2 2
     2    1    3 1
     3    1    9 1
     4    2    8 1
     5    2   10 1
     6    3    4 1
     7    3    6 2
     8    4    5 1
     9    4    7 2
    10    5   11 1
    11    5   12 1
    12    5   13 1
    13    6    8 1
