@<TRIPOS>MOLECULE
*****
   22    23     0     0     0
SMALL
NO_CHARGES

@<TRIPOS>ATOM
      1 C1         -1.7047   -0.6574    0.8433 C.ar      1 <0>         0.0000
      2 C2         -0.8925    0.4054    0.4580 C.ar      1 <0>         0.0000
      3 C3         -1.7839    1.8218    2.2564 C.ar      1 <0>         0.0000
      4 C4         -4.0563   -0.7250    3.6039 C.2       1 <0>         0.0000
      5 C5         -2.6262    0.7625    2.6482 C.ar      1 <0>         0.0000
      6 C6         -3.6009    0.5800    3.7106 C.2       1 <0>         0.0000
      7 C7         -2.5581   -0.4660    1.9340 C.ar      1 <0>         0.0000
      8 C8         -0.9414    1.6200    1.1709 C.ar      1 <0>         0.0000
      9 C9         -4.0481    1.5889    4.6719 C.2       1 <0>         0.0000
     10 N1         -4.6263    1.4118    5.8182 N.2       1 <0>         0.0000
     11 N2         -3.4458   -1.3427    2.5388 N.pl3     1 <0>         0.0000
     12 N3         -3.7766    2.9301    4.3326 N.pl3     1 <0>         0.0000
     13 O1         -4.7524    0.0354    6.1593 O.3       1 <0>         0.0000
     14 Cl1         0.1233    2.9293    0.6611 Cl        1 <0>         0.0000
     15 H1         -1.6659   -1.6028    0.3085 H         1 <0>         0.0000
     16 H2         -0.2153    0.3035   -0.3834 H         1 <0>         0.0000
     17 H3         -1.7759    2.7581    2.8010 H         1 <0>         0.0000
     18 H4         -4.7782   -1.2429    4.2155 H         1 <0>         0.0000
     19 H5         -3.5931   -2.3049    2.2686 H         1 <0>         0.0000
     20 H6         -4.1909    3.5592    5.0166 H         1 <0>         0.0000
     21 H7         -4.0934    3.1640    3.3951 H         1 <0>         0.0000
     22 H8         -5.1014    0.0918    7.0626 H         1 <0>         0.0000
@<TRIPOS>BOND
     1    1    2 ar
     2    1    7 ar
     3    1   15 1
     4    2    8 ar
     5    2   16 1
     6    3    5 ar
     7    3    8 ar
     8    3   17 1
     9    4    6 2
    10    4   11 1
    11    4   18 1
    12    5    6 1
    13    5    7 ar
    14    6    9 1
    15    7   11 1
    16    8   14 1
    17    9   10 2
    18    9   12 1
    19   10   13 1
    20   11   19 1
    21   12   20 1
    22   12   21 1
    23   13   22 1
