@<TRIPOS>MOLECULE
*****
   28    29     0     0     0
SMALL
NO_CHARGES

@<TRIPOS>ATOM
      1 C1         -1.8432    4.5306    0.4779 C.ar      1 <0>         0.0000
      2 C2         -1.1975    4.6970    1.7031 C.ar      1 <0>         0.0000
      3 C3         -2.1435    3.2491    0.0162 C.ar      1 <0>         0.0000
      4 C4         -0.8522    3.5819    2.4666 C.ar      1 <0>         0.0000
      5 C5         -1.7982    2.1340    0.7797 C.ar      1 <0>         0.0000
      6 C6         -1.1525    2.3004    2.0050 C.ar      1 <0>         0.0000
      7 C7          0.8624   -0.2554    1.5899 C.2       1 <0>         0.0000
      8 C8          2.9850   -0.2137    1.0873 C.3       1 <0>         0.0000
      9 C9          2.4108   -1.5559    0.7074 C.3       1 <0>         0.0000
     10 C10        -1.8813    0.6793    3.8064 C.3       1 <0>         0.0000
     11 C11        -0.7832    1.1085    2.8220 C.3       1 <0>         0.0000
     12 N1          1.9181    0.4567    1.8361 N.2       1 <0>         0.0000
     13 N2         -0.4173   -0.0329    2.0006 N.pl3     1 <0>         0.0000
     14 O1          1.0087   -1.3814    0.8336 O.3       1 <0>         0.0000
     15 H1         -2.1110    5.3987   -0.1174 H         1 <0>         0.0000
     16 H2         -0.9626    5.6946    2.0623 H         1 <0>         0.0000
     17 H3         -2.6453    3.1192   -0.9383 H         1 <0>         0.0000
     18 H4         -0.3495    3.7212    3.4200 H         1 <0>         0.0000
     19 H5         -2.0363    1.1393    0.4122 H         1 <0>         0.0000
     20 H6          3.8932   -0.3199    1.6880 H         1 <0>         0.0000
     21 H7          3.2310    0.3782    0.1987 H         1 <0>         0.0000
     22 H8          2.6691   -1.8423   -0.3162 H         1 <0>         0.0000
     23 H9          2.7304   -2.3499    1.3904 H         1 <0>         0.0000
     24 H10        -2.8109    0.4511    3.2736 H         1 <0>         0.0000
     25 H11        -1.5844   -0.2133    4.3685 H         1 <0>         0.0000
     26 H12        -2.0962    1.4646    4.5398 H         1 <0>         0.0000
     27 H13         0.1192    1.3219    3.4218 H         1 <0>         0.0000
     28 H14        -1.1376   -0.6912    1.7193 H         1 <0>         0.0000
@<TRIPOS>BOND
     1    1    3 ar
     2    1    2 ar
     3    1   15 1
     4    2    4 ar
     5    2   16 1
     6    3    5 ar
     7    3   17 1
     8    4    6 ar
     9    4   18 1
    10    5    6 ar
    11    5   19 1
    12    6   11 1
    13    7   12 2
    14    7   13 1
    15    7   14 1
    16    8    9 1
    17    8   12 1
    18    8   20 1
    19    8   21 1
    20    9   14 1
    21    9   22 1
    22    9   23 1
    23   10   11 1
    24   10   24 1
    25   10   25 1
    26   10   26 1
    27   11   13 1
    28   11   27 1
    29   13   28 1
