@<TRIPOS>MOLECULE
*****
   32    34     0     0     0
SMALL
NO_CHARGES

@<TRIPOS>ATOM
      1 C1          7.8805   -2.6006    4.5255 C.1       1 <0>         0.0000
      2 C2          1.7742   -0.4298   -0.0289 C.ar      1 <0>         0.0000
      3 C3          0.4964   -0.3599    0.5326 C.ar      1 <0>         0.0000
      4 C4          2.8461   -0.8316    0.7638 C.ar      1 <0>         0.0000
      5 C5          0.3112   -0.6888    1.8770 C.ar      1 <0>         0.0000
      6 C6          6.7675   -2.7137   -0.0964 C.2       1 <0>         0.0000
      7 C7          7.0257   -2.9043   -1.4221 C.2       1 <0>         0.0000
      8 C8          9.0578   -3.1895   -0.0456 C.2       1 <0>         0.0000
      9 C9          2.6648   -1.1628    2.1199 C.ar      1 <0>         0.0000
     10 C10         7.9422   -2.8769    0.7280 C.2       1 <0>         0.0000
     11 C11         1.3739   -1.0910    2.6992 C.ar      1 <0>         0.0000
     12 C12         3.8627   -1.5756    2.8691 C.2       1 <0>         0.0000
     13 C13         5.8688   -2.1533    3.2117 C.2       1 <0>         0.0000
     14 C14         8.1113   -2.7949    2.1605 C.2       1 <0>         0.0000
     15 C15         7.2815   -2.5206    3.2173 C.2       1 <0>         0.0000
     16 C16         1.0942   -1.4266    4.1437 C.3       1 <0>         0.0000
     17 N1          8.3968   -2.6737    5.5676 N.1       1 <0>         0.0000
     18 N2          5.0660   -1.8375    2.2314 N.2       1 <0>         0.0000
     19 N3          3.9259   -1.7207    4.1808 N.2       1 <0>         0.0000
     20 O1          5.2550   -2.1035    4.4159 O.3       1 <0>         0.0000
     21 S1          8.6997   -3.2823   -1.7181 S.3       1 <0>         0.0000
     22 H1          1.9344   -0.1723   -1.0723 H         1 <0>         0.0000
     23 H2         -0.3529   -0.0504   -0.0712 H         1 <0>         0.0000
     24 H3          3.8446   -0.8839    0.3440 H         1 <0>         0.0000
     25 H4         -0.6863   -0.6333    2.3058 H         1 <0>         0.0000
     26 H5          5.7972   -2.4601    0.3051 H         1 <0>         0.0000
     27 H6          6.3333   -2.8443   -2.2522 H         1 <0>         0.0000
     28 H7         10.0655   -3.3714    0.3078 H         1 <0>         0.0000
     29 H8          9.1293   -3.0170    2.4728 H         1 <0>         0.0000
     30 H9          1.4543   -2.4263    4.4032 H         1 <0>         0.0000
     31 H10         1.6051   -0.7359    4.8205 H         1 <0>         0.0000
     32 H11         0.0204   -1.3790    4.3422 H         1 <0>         0.0000
@<TRIPOS>BOND
     1    1   15 1
     2    1   17 3
     3    2    3 ar
     4    2    4 ar
     5    2   22 1
     6    3    5 ar
     7    3   23 1
     8    4    9 ar
     9    4   24 1
    10    5   11 ar
    11    5   25 1
    12    6    7 2
    13    6   10 1
    14    6   26 1
    15    7   21 1
    16    7   27 1
    17    8   10 2
    18    8   21 1
    19    8   28 1
    20    9   11 ar
    21    9   12 1
    22   10   14 1
    23   11   16 1
    24   12   18 1
    25   12   19 2
    26   13   15 1
    27   13   18 2
    28   13   20 1
    29   14   15 2
    30   14   29 1
    31   16   30 1
    32   16   31 1
    33   16   32 1
    34   19   20 1
