@<TRIPOS>MOLECULE
*****
   36    37     0     0     0
SMALL
NO_CHARGES

@<TRIPOS>ATOM
      1 C1         -0.6896    0.0878   -0.5329 C.1       1 <0>         0.0000
      2 C2         -1.6134    0.5478   -1.1782 C.1       1 <0>         0.0000
      3 C3          1.4955   -1.0438   -0.4075 C.ar      1 <0>         0.0000
      4 C4          0.3811   -0.3958    1.6333 C.ar      1 <0>         0.0000
      5 C5          0.3931   -0.4490    0.2306 C.ar      1 <0>         0.0000
      6 C6          2.5596   -1.5758    0.3235 C.ar      1 <0>         0.0000
      7 C7          1.4327   -0.9170    2.3918 C.ar      1 <0>         0.0000
      8 C8          2.5321   -1.5099    1.7346 C.ar      1 <0>         0.0000
      9 C9          3.3667   -3.5005    3.0269 C.2       1 <0>         0.0000
     10 C10        -2.4016    1.7170   -3.3227 C.3       1 <0>         0.0000
     11 C11        -3.1110    0.3910   -3.2572 C.3       1 <0>         0.0000
     12 C12        -2.6951    1.0868   -1.9637 C.3       1 <0>         0.0000
     13 C13         3.7193   -2.1984   -0.4237 C.3       1 <0>         0.0000
     14 C14         2.0379    0.5356    4.3804 C.3       1 <0>         0.0000
     15 C15         3.6798   -2.0942    2.5499 C.3       1 <0>         0.0000
     16 C16         1.3708   -0.7672    3.9004 C.3       1 <0>         0.0000
     17 O1          3.0239   -3.8084    4.1517 O.2       1 <0>         0.0000
     18 O2          3.4965   -4.4233    2.0343 O.3       1 <0>         0.0000
     19 H1          1.5125   -1.0883   -1.4929 H         1 <0>         0.0000
     20 H2         -0.4669    0.0616    2.1362 H         1 <0>         0.0000
     21 H3         -1.3650    1.7271   -3.6426 H         1 <0>         0.0000
     22 H4         -2.9748    2.5994   -3.5914 H         1 <0>         0.0000
     23 H5         -4.1733    0.3592   -3.4807 H         1 <0>         0.0000
     24 H6         -2.5563   -0.4998   -3.5325 H         1 <0>         0.0000
     25 H7         -3.4976    1.5444   -1.3904 H         1 <0>         0.0000
     26 H8          4.6538   -1.6537   -0.2418 H         1 <0>         0.0000
     27 H9          3.8812   -3.2376   -0.1250 H         1 <0>         0.0000
     28 H10         3.5369   -2.1792   -1.5010 H         1 <0>         0.0000
     29 H11         3.0960    0.5724    4.0993 H         1 <0>         0.0000
     30 H12         1.9754    0.6265    5.4701 H         1 <0>         0.0000
     31 H13         1.5513    1.4089    3.9340 H         1 <0>         0.0000
     32 H14         3.8783   -1.4972    3.4390 H         1 <0>         0.0000
     33 H15         4.5936   -2.1287    1.9541 H         1 <0>         0.0000
     34 H16         0.3198   -0.7576    4.2081 H         1 <0>         0.0000
     35 H17         1.8255   -1.6244    4.4017 H         1 <0>         0.0000
     36 H18         3.2355   -5.2805    2.4236 H         1 <0>         0.0000
@<TRIPOS>BOND
     1    1    2 3
     2    1    5 1
     3    2   12 1
     4    3    5 ar
     5    3    6 ar
     6    3   19 1
     7    4    5 ar
     8    4    7 ar
     9    4   20 1
    10    6    8 ar
    11    6   13 1
    12    7    8 ar
    13    7   16 1
    14    8   15 1
    15    9   15 1
    16    9   17 2
    17    9   18 1
    18   10   11 1
    19   10   12 1
    20   10   21 1
    21   10   22 1
    22   11   12 1
    23   11   23 1
    24   11   24 1
    25   12   25 1
    26   13   26 1
    27   13   27 1
    28   13   28 1
    29   14   16 1
    30   14   29 1
    31   14   30 1
    32   14   31 1
    33   15   32 1
    34   15   33 1
    35   16   34 1
    36   16   35 1
    37   18   36 1
