@<TRIPOS>MOLECULE
*****
   40    41     0     0     0
SMALL
NO_CHARGES

@<TRIPOS>ATOM
      1 C1          4.6294   -0.1555    5.9168 C.ar      1 <0>         0.0000
      2 C2          4.4466    0.5755    4.7353 C.ar      1 <0>         0.0000
      3 C3          2.3728   -0.9757    5.7694 C.ar      1 <0>         0.0000
      4 C4          3.6027   -0.9382    6.4459 C.ar      1 <0>         0.0000
      5 C5          3.2166    0.5396    4.0697 C.ar      1 <0>         0.0000
      6 C6          2.1698   -0.2504    4.5994 C.ar      1 <0>         0.0000
      7 C7         -0.3177    2.4026    3.2314 C.3       1 <0>         0.0000
      8 C8         -1.0005    1.2339    2.4659 C.3       1 <0>         0.0000
      9 C9          0.0321    1.8439    4.6372 C.3       1 <0>         0.0000
     10 C10        -1.3110    0.1751    3.5430 C.3       1 <0>         0.0000
     11 C11        -0.1578    0.3245    4.5321 C.3       1 <0>         0.0000
     12 C12         4.3327   -4.1008    8.6113 C.3       1 <0>         0.0000
     13 C13         3.9599    2.0247    2.3553 C.3       1 <0>         0.0000
     14 C14         4.0292   -3.2533    7.3721 C.3       1 <0>         0.0000
     15 C15         3.8155   -1.7711    7.6945 C.3       1 <0>         0.0000
     16 O1          2.6872   -1.6979    8.5840 O.3       1 <0>         0.0000
     17 O2          0.9840   -0.3188    3.9095 O.3       1 <0>         0.0000
     18 O3          2.9260    1.2329    2.9274 O.3       1 <0>         0.0000
     19 H1          5.5906   -0.1085    6.4245 H         1 <0>         0.0000
     20 H2          5.2636    1.1773    4.3532 H         1 <0>         0.0000
     21 H3          1.5615   -1.5850    6.1577 H         1 <0>         0.0000
     22 H4          0.5835    2.7311    2.7094 H         1 <0>         0.0000
     23 H5         -0.9818    3.2686    3.3145 H         1 <0>         0.0000
     24 H6         -1.8973    1.5511    1.9254 H         1 <0>         0.0000
     25 H7         -0.3054    0.8108    1.7362 H         1 <0>         0.0000
     26 H8          1.0402    2.1071    4.9672 H         1 <0>         0.0000
     27 H9         -0.6635    2.2250    5.3940 H         1 <0>         0.0000
     28 H10        -2.2489    0.4081    4.0615 H         1 <0>         0.0000
     29 H11        -1.3816   -0.8431    3.1509 H         1 <0>         0.0000
     30 H12        -0.3476   -0.1504    5.5023 H         1 <0>         0.0000
     31 H13         5.2474   -3.7573    9.1093 H         1 <0>         0.0000
     32 H14         3.5146   -4.0419    9.3336 H         1 <0>         0.0000
     33 H15         4.4766   -5.1517    8.3383 H         1 <0>         0.0000
     34 H16         3.5292    2.4738    1.4592 H         1 <0>         0.0000
     35 H17         4.8250    1.4114    2.0735 H         1 <0>         0.0000
     36 H18         4.2841    2.8193    3.0394 H         1 <0>         0.0000
     37 H19         3.1303   -3.6256    6.8665 H         1 <0>         0.0000
     38 H20         4.8499   -3.3250    6.6494 H         1 <0>         0.0000
     39 H21         4.7125   -1.3963    8.2127 H         1 <0>         0.0000
     40 H22         2.4961   -0.7586    8.7347 H         1 <0>         0.0000
@<TRIPOS>BOND
     1    1    2 ar
     2    1    4 ar
     3    1   19 1
     4    2    5 ar
     5    2   20 1
     6    3    4 ar
     7    3    6 ar
     8    3   21 1
     9    4   15 1
    10    5    6 ar
    11    5   18 1
    12    6   17 1
    13    7    8 1
    14    7    9 1
    15    7   22 1
    16    7   23 1
    17    8   10 1
    18    8   24 1
    19    8   25 1
    20    9   11 1
    21    9   26 1
    22    9   27 1
    23   10   11 1
    24   10   28 1
    25   10   29 1
    26   11   17 1
    27   11   30 1
    28   12   14 1
    29   12   31 1
    30   12   32 1
    31   12   33 1
    32   13   18 1
    33   13   34 1
    34   13   35 1
    35   13   36 1
    36   14   15 1
    37   14   37 1
    38   14   38 1
    39   15   16 1
    40   15   39 1
    41   16   40 1
