@<TRIPOS>MOLECULE
*****
   34    36     0     0     0
SMALL
NO_CHARGES

@<TRIPOS>ATOM
      1 C1         -1.8271   -6.2343   -0.1864 C.ar      1 <0>         0.0000
      2 C2         -0.7474   -5.6274   -0.8390 C.ar      1 <0>         0.0000
      3 C3         -2.7150   -5.4501    0.5549 C.ar      1 <0>         0.0000
      4 C4          1.1846    2.8311    0.1991 C.ar      1 <0>         0.0000
      5 C5         -0.5600   -4.2467   -0.7528 C.ar      1 <0>         0.0000
      6 C6         -2.5247   -4.0668    0.6395 C.ar      1 <0>         0.0000
      7 C7          0.1772    2.2071   -0.5320 C.ar      1 <0>         0.0000
      8 C8          1.8868    2.0960    1.1580 C.ar      1 <0>         0.0000
      9 C9         -1.4517   -3.4501   -0.0167 C.ar      1 <0>         0.0000
     10 C10        -0.1495    0.8567   -0.3344 C.ar      1 <0>         0.0000
     11 C11         1.5949    0.7499    1.3857 C.ar      1 <0>         0.0000
     12 C12         0.5722    0.1301    0.6301 C.ar      1 <0>         0.0000
     13 C13        -1.2864    0.2702   -1.1511 C.3       1 <0>         0.0000
     14 C14        -1.2694   -1.2504   -1.3002 C.3       1 <0>         0.0000
     15 C15        -1.2803   -1.9500    0.0621 C.3       1 <0>         0.0000
     16 C16         2.3599   -0.0124    2.4514 C.3       1 <0>         0.0000
     17 O1          1.5933   -0.2689    3.6340 O.3       1 <0>         0.0000
     18 S1          0.2947   -1.6100    0.9613 S.3       1 <0>         0.0000
     19 H1         -1.9710   -7.3097   -0.2522 H         1 <0>         0.0000
     20 H2         -0.0489   -6.2320   -1.4117 H         1 <0>         0.0000
     21 H3         -3.5528   -5.9130    1.0699 H         1 <0>         0.0000
     22 H4          1.4195    3.8780    0.0272 H         1 <0>         0.0000
     23 H5          0.2903   -3.7860   -1.2482 H         1 <0>         0.0000
     24 H6         -3.2162   -3.4612    1.2214 H         1 <0>         0.0000
     25 H7         -0.3764    2.7721   -1.2797 H         1 <0>         0.0000
     26 H8          2.6696    2.5719    1.7441 H         1 <0>         0.0000
     27 H9         -2.2385    0.5672   -0.6899 H         1 <0>         0.0000
     28 H10        -1.2781    0.7293   -2.1452 H         1 <0>         0.0000
     29 H11        -2.1567   -1.5719   -1.8577 H         1 <0>         0.0000
     30 H12        -0.3926   -1.5703   -1.8721 H         1 <0>         0.0000
     31 H13        -2.0926   -1.5346    0.6653 H         1 <0>         0.0000
     32 H14         2.7577   -0.9515    2.0405 H         1 <0>         0.0000
     33 H15         3.2118    0.5851    2.7825 H         1 <0>         0.0000
     34 H16         0.8672   -0.8671    3.3870 H         1 <0>         0.0000
@<TRIPOS>BOND
     1    1    3 ar
     2    1    2 ar
     3    1   19 1
     4    2    5 ar
     5    2   20 1
     6    3    6 ar
     7    3   21 1
     8    4    7 ar
     9    4    8 ar
    10    4   22 1
    11    5    9 ar
    12    5   23 1
    13    6    9 ar
    14    6   24 1
    15    7   10 ar
    16    7   25 1
    17    8   11 ar
    18    8   26 1
    19    9   15 1
    20   10   12 ar
    21   10   13 1
    22   11   12 ar
    23   11   16 1
    24   12   18 1
    25   13   14 1
    26   13   27 1
    27   13   28 1
    28   14   15 1
    29   14   29 1
    30   14   30 1
    31   15   18 1
    32   15   31 1
    33   16   17 1
    34   16   32 1
    35   16   33 1
    36   17   34 1
