@<TRIPOS>MOLECULE
*****
   42    45     0     0     0
SMALL
NO_CHARGES

@<TRIPOS>ATOM
      1 C1          6.3502    1.4802   -1.4517 C.ar      1 <0>         0.0000
      2 C2          5.3574    2.3818   -1.8267 C.ar      1 <0>         0.0000
      3 C3          6.0538    0.3709   -0.6554 C.ar      1 <0>         0.0000
      4 C4          1.6098   -0.2922   -0.4138 C.ar      1 <0>         0.0000
      5 C5          3.7095    1.0766   -0.5814 C.ar      1 <0>         0.0000
      6 C6         -0.2788    0.5840    0.7579 C.ar      1 <0>         0.0000
      7 C7          0.2874   -0.4581    0.0183 C.ar      1 <0>         0.0000
      8 C8          4.0406    2.1742   -1.3903 C.ar      1 <0>         0.0000
      9 C9          4.7336    0.1724   -0.2264 C.ar      1 <0>         0.0000
     10 C10         2.3135    0.8773   -0.1033 C.ar      1 <0>         0.0000
     11 C11         0.5204    1.6979    1.0369 C.ar      1 <0>         0.0000
     12 C12        -1.0871    2.4986    2.7085 C.2       1 <0>         0.0000
     13 C13        -1.6917    0.6580    1.2573 C.3       1 <0>         0.0000
     14 C14         5.2095   -4.2365    1.9303 C.3       1 <0>         0.0000
     15 C15         3.9120   -3.9841    1.1919 C.3       1 <0>         0.0000
     16 C16         4.6373   -2.8370    1.8560 C.3       1 <0>         0.0000
     17 C17        -0.4947   -1.7034   -0.3210 C.3       1 <0>         0.0000
     18 C18         5.3313   -1.8109    1.0058 C.3       1 <0>         0.0000
     19 N1          1.7754    1.8666    0.6344 N.ar      1 <0>         0.0000
     20 N2         -0.0543    2.7196    1.8079 N.am      1 <0>         0.0000
     21 O1         -1.3600    3.2634    3.6099 O.2       1 <0>         0.0000
     22 O2         -1.7788    1.3388    2.5332 O.3       1 <0>         0.0000
     23 O3          3.0243    3.0141   -1.7647 O.3       1 <0>         0.0000
     24 O4          4.3426   -0.8764    0.5558 O.3       1 <0>         0.0000
     25 H1          7.3719    1.6387   -1.7863 H         1 <0>         0.0000
     26 H2          5.5956    3.2368   -2.4566 H         1 <0>         0.0000
     27 H3          6.8431   -0.3154   -0.3755 H         1 <0>         0.0000
     28 H4          2.0990   -1.0691   -0.9914 H         1 <0>         0.0000
     29 H5         -2.3338    1.1943    0.5447 H         1 <0>         0.0000
     30 H6         -2.1264   -0.3259    1.4360 H         1 <0>         0.0000
     31 H7          5.1693   -4.7512    2.8854 H         1 <0>         0.0000
     32 H8          6.0948   -4.4581    1.3401 H         1 <0>         0.0000
     33 H9          3.9290   -4.0266    0.1062 H         1 <0>         0.0000
     34 H10         2.9868   -4.3307    1.6421 H         1 <0>         0.0000
     35 H11         4.1920   -2.4401    2.7646 H         1 <0>         0.0000
     36 H12        -0.8329   -2.2174    0.5859 H         1 <0>         0.0000
     37 H13        -1.3860   -1.4684   -0.9132 H         1 <0>         0.0000
     38 H14         0.1152   -2.4040   -0.8959 H         1 <0>         0.0000
     39 H15         5.8119   -2.2906    0.1421 H         1 <0>         0.0000
     40 H16         6.1029   -1.2815    1.5804 H         1 <0>         0.0000
     41 H17         0.5462    3.5057    2.0330 H         1 <0>         0.0000
     42 H18         3.3945    3.7213   -2.3159 H         1 <0>         0.0000
@<TRIPOS>BOND
     1    1    2 ar
     2    1    3 ar
     3    1   25 1
     4    2    8 ar
     5    2   26 1
     6    3    9 ar
     7    3   27 1
     8    4    7 ar
     9    4   10 ar
    10    4   28 1
    11    5    8 ar
    12    5    9 ar
    13    5   10 1
    14    6    7 ar
    15    6   11 ar
    16    6   13 1
    17    7   17 1
    18    8   23 1
    19    9   24 1
    20   10   19 ar
    21   11   19 ar
    22   11   20 1
    23   12   20 am
    24   12   21 2
    25   12   22 1
    26   13   22 1
    27   13   29 1
    28   13   30 1
    29   14   15 1
    30   14   16 1
    31   14   31 1
    32   14   32 1
    33   15   16 1
    34   15   33 1
    35   15   34 1
    36   16   18 1
    37   16   35 1
    38   17   36 1
    39   17   37 1
    40   17   38 1
    41   18   24 1
    42   18   39 1
    43   18   40 1
    44   20   41 1
    45   23   42 1
