@<TRIPOS>MOLECULE
*****
   42    45     0     0     0
SMALL
NO_CHARGES

@<TRIPOS>ATOM
      1 C1          6.5777    1.9274   -1.3309 C.ar      1 <0>         0.0000
      2 C2          5.5700    2.0841   -2.2789 C.ar      1 <0>         0.0000
      3 C3          6.2848    1.5193   -0.0269 C.ar      1 <0>         0.0000
      4 C4          1.8634    1.7996    0.7768 C.ar      1 <0>         0.0000
      5 C5          3.9119    1.3981   -0.6208 C.ar      1 <0>         0.0000
      6 C6         -0.0970    0.4870    0.4004 C.ar      1 <0>         0.0000
      7 C7          0.5396    1.4995    1.1239 C.ar      1 <0>         0.0000
      8 C8          4.2404    1.8197   -1.9181 C.ar      1 <0>         0.0000
      9 C9          4.9520    1.2596    0.3230 C.ar      1 <0>         0.0000
     10 C10         2.5009    1.0971   -0.2523 C.ar      1 <0>         0.0000
     11 C11         0.6231   -0.1375   -0.6235 C.ar      1 <0>         0.0000
     12 C12        -1.4172   -1.1858   -1.4925 C.2       1 <0>         0.0000
     13 C13        -1.4770   -0.0491    0.6450 C.3       1 <0>         0.0000
     14 C14         4.2146    1.2474    4.7233 C.3       1 <0>         0.0000
     15 C15         5.4834    0.5534    5.1716 C.3       1 <0>         0.0000
     16 C16         4.8653    0.2158    3.8316 C.3       1 <0>         0.0000
     17 C17        -0.1574    2.2275    2.2471 C.3       1 <0>         0.0000
     18 C18         5.5615    0.6593    2.5760 C.3       1 <0>         0.0000
     19 N1          1.8812    0.1313   -0.9560 N.ar      1 <0>         0.0000
     20 N2         -0.0371   -1.1395   -1.3509 N.am      1 <0>         0.0000
     21 O1         -1.9754   -1.8094   -2.3707 O.2       1 <0>         0.0000
     22 O2         -2.1249   -0.4598   -0.5837 O.3       1 <0>         0.0000
     23 O3          3.2114    1.9956   -2.8053 O.3       1 <0>         0.0000
     24 O4          4.5624    0.8529    1.5676 O.3       1 <0>         0.0000
     25 H1          7.6091    2.1292   -1.6074 H         1 <0>         0.0000
     26 H2          5.8065    2.4134   -3.2888 H         1 <0>         0.0000
     27 H3          7.0863    1.4025    0.6918 H         1 <0>         0.0000
     28 H4          2.4105    2.5665    1.3144 H         1 <0>         0.0000
     29 H5         -1.4485   -0.9179    1.3175 H         1 <0>         0.0000
     30 H6         -2.1459    0.6957    1.0775 H         1 <0>         0.0000
     31 H7          3.2822    0.9831    5.2128 H         1 <0>         0.0000
     32 H8          4.2852    2.2883    4.4195 H         1 <0>         0.0000
     33 H9          6.4036    1.1317    5.1785 H         1 <0>         0.0000
     34 H10         5.4157   -0.1871    5.9626 H         1 <0>         0.0000
     35 H11         4.3633   -0.7449    3.7512 H         1 <0>         0.0000
     36 H12        -1.0689    2.7234    1.8947 H         1 <0>         0.0000
     37 H13        -0.4504    1.5389    3.0475 H         1 <0>         0.0000
     38 H14         0.4930    2.9896    2.6824 H         1 <0>         0.0000
     39 H15         6.2828   -0.0971    2.2392 H         1 <0>         0.0000
     40 H16         6.1030    1.5993    2.7499 H         1 <0>         0.0000
     41 H17         0.4820   -1.5525   -2.1185 H         1 <0>         0.0000
     42 H18         3.5793    2.2882   -3.6538 H         1 <0>         0.0000
@<TRIPOS>BOND
     1    1    2 ar
     2    1    3 ar
     3    1   25 1
     4    2    8 ar
     5    2   26 1
     6    3    9 ar
     7    3   27 1
     8    4    7 ar
     9    4   10 ar
    10    4   28 1
    11    5    8 ar
    12    5    9 ar
    13    5   10 1
    14    6    7 ar
    15    6   11 ar
    16    6   13 1
    17    7   17 1
    18    8   23 1
    19    9   24 1
    20   10   19 ar
    21   11   19 ar
    22   11   20 1
    23   12   20 am
    24   12   21 2
    25   12   22 1
    26   13   22 1
    27   13   29 1
    28   13   30 1
    29   14   15 1
    30   14   16 1
    31   14   31 1
    32   14   32 1
    33   15   16 1
    34   15   33 1
    35   15   34 1
    36   16   18 1
    37   16   35 1
    38   17   36 1
    39   17   37 1
    40   17   38 1
    41   18   24 1
    42   18   39 1
    43   18   40 1
    44   20   41 1
    45   23   42 1
