@<TRIPOS>MOLECULE
*****
   37    39     0     0     0
SMALL
NO_CHARGES

@<TRIPOS>ATOM
      1 C1         -2.7851   -2.2816   -1.1316 C.ar      1 <0>         0.0000
      2 C2         -2.4077   -2.7321    1.1654 C.ar      1 <0>         0.0000
      3 C3         -3.1417   -3.0157    0.0002 C.ar      1 <0>         0.0000
      4 C4         -1.7486   -1.3401   -1.0751 C.ar      1 <0>         0.0000
      5 C5         -1.0253   -1.1940    0.1266 C.ar      1 <0>         0.0000
      6 C6         -3.7475    1.2538   -0.4345 C.3       1 <0>         0.0000
      7 C7         -4.3264    2.0664   -1.5731 C.3       1 <0>         0.0000
      8 C8          0.0662    1.1722    0.3393 C.3       1 <0>         0.0000
      9 C9          0.4964    0.3419    1.5276 C.3       1 <0>         0.0000
     10 C10        -2.9281    1.5141   -1.6659 C.3       1 <0>         0.0000
     11 C11         0.2137   -0.3428    0.2182 C.3       1 <0>         0.0000
     12 C12        -4.2195   -4.0690   -0.0160 C.3       1 <0>         0.0000
     13 C13         1.4098   -0.9053   -0.5433 C.3       1 <0>         0.0000
     14 C14        -1.4623   -0.4950   -2.2842 C.3       1 <0>         0.0000
     15 N1         -1.3830   -1.8789    1.2238 N.ar      1 <0>         0.0000
     16 N2         -2.6702    0.3965   -2.6172 N.4       1 <0>         0.0000
     17 H1         -3.3181   -2.4619   -2.0677 H         1 <0>         0.0000
     18 H2         -2.6577   -3.2378    2.0978 H         1 <0>         0.0000
     19 H3         -3.4398    1.7631    0.4723 H         1 <0>         0.0000
     20 H4         -4.1320    0.2517   -0.2743 H         1 <0>         0.0000
     21 H5         -5.1072    1.6082   -2.1751 H         1 <0>         0.0000
     22 H6         -4.4216    3.1415   -1.4643 H         1 <0>         0.0000
     23 H7         -0.9341    1.5920    0.3785 H         1 <0>         0.0000
     24 H8          0.8049    1.7985   -0.1551 H         1 <0>         0.0000
     25 H9          1.5327    0.4028    1.8443 H         1 <0>         0.0000
     26 H10        -0.2160    0.1954    2.3315 H         1 <0>         0.0000
     27 H11        -2.0748    2.1812   -1.6227 H         1 <0>         0.0000
     28 H12        -3.7919   -5.0542   -0.2324 H         1 <0>         0.0000
     29 H13        -4.7222   -4.1366    0.9523 H         1 <0>         0.0000
     30 H14        -4.9752   -3.8628   -0.7792 H         1 <0>         0.0000
     31 H15         2.2756   -0.2447   -0.4411 H         1 <0>         0.0000
     32 H16         1.2138   -1.0307   -1.6149 H         1 <0>         0.0000
     33 H17         1.6853   -1.8859   -0.1426 H         1 <0>         0.0000
     34 H18        -0.6245    0.1824   -2.1349 H         1 <0>         0.0000
     35 H19        -1.2891   -1.0927   -3.1840 H         1 <0>         0.0000
     36 H20        -3.5040   -0.2004   -2.6641 H         1 <0>         0.0000
     37 H21        -2.5476    0.7898   -3.5588 H         1 <0>         0.0000
@<TRIPOS>BOND
     1    1    3 ar
     2    1    4 ar
     3    1   17 1
     4    2    3 ar
     5    2   15 ar
     6    2   18 1
     7    3   12 1
     8    4    5 ar
     9    4   14 1
    10    5   11 1
    11    5   15 ar
    12    6    7 1
    13    6   10 1
    14    6   19 1
    15    6   20 1
    16    7   10 1
    17    7   21 1
    18    7   22 1
    19    8    9 1
    20    8   11 1
    21    8   23 1
    22    8   24 1
    23    9   11 1
    24    9   25 1
    25    9   26 1
    26   10   16 1
    27   10   27 1
    28   11   13 1
    29   12   28 1
    30   12   29 1
    31   12   30 1
    32   13   31 1
    33   13   32 1
    34   13   33 1
    35   14   16 1
    36   14   34 1
    37   14   35 1
    38   16   36 1
    39   16   37 1
