@<TRIPOS>MOLECULE
*****
   23    23     0     0     0
SMALL
NO_CHARGES

@<TRIPOS>ATOM
      1 C1          2.0351   -1.2064    0.0738 C.ar      1 <0>         0.0000
      2 C2          1.0859   -0.3748    0.6627 C.ar      1 <0>         0.0000
      3 C3          1.8606   -1.0426    2.8678 C.ar      1 <0>         0.0000
      4 C4          2.9119   -1.9531    0.8721 C.ar      1 <0>         0.0000
      5 C5          1.0087   -0.2965    2.0541 C.ar      1 <0>         0.0000
      6 C6          2.8159   -1.8597    2.2719 C.ar      1 <0>         0.0000
      7 N1          0.6085    2.2407    2.9809 N.pl3     1 <0>         0.0000
      8 N2          3.6482   -4.3656    2.8945 N.pl3     1 <0>         0.0000
      9 O1         -1.2691    1.0065    1.8132 O.2       1 <0>         0.0000
     10 O2         -0.4917    0.2458    4.1464 O.2       1 <0>         0.0000
     11 O3          5.3147   -2.3993    2.9641 O.2       1 <0>         0.0000
     12 O4          3.4568   -2.6125    4.7081 O.2       1 <0>         0.0000
     13 O5          3.8456   -2.7921    0.3490 O.3       1 <0>         0.0000
     14 S1         -0.2180    0.7686    2.8066 S.o2      1 <0>         0.0000
     15 S2          3.9482   -2.7621    3.3366 S.o2      1 <0>         0.0000
     16 H1          2.0916   -1.2851   -1.0101 H         1 <0>         0.0000
     17 H2          0.3938    0.1940    0.0502 H         1 <0>         0.0000
     18 H3          1.7801   -1.0093    3.9498 H         1 <0>         0.0000
     19 H4          0.0623    2.9824    2.5441 H         1 <0>         0.0000
     20 H5          0.7660    2.4335    3.9694 H         1 <0>         0.0000
     21 H6          4.4073   -4.7190    2.3144 H         1 <0>         0.0000
     22 H7          3.5218   -4.9225    3.7391 H         1 <0>         0.0000
     23 H8          3.8200   -2.7489   -0.6206 H         1 <0>         0.0000
@<TRIPOS>BOND
     1    1    2 ar
     2    1    4 ar
     3    1   16 1
     4    2    5 ar
     5    2   17 1
     6    3    5 ar
     7    3    6 ar
     8    3   18 1
     9    4    6 ar
    10    4   13 1
    11    5   14 1
    12    6   15 1
    13    7   14 1
    14    7   19 1
    15    7   20 1
    16    8   15 1
    17    8   21 1
    18    8   22 1
    19    9   14 2
    20   10   14 2
    21   11   15 2
    22   12   15 2
    23   13   23 1
