@<TRIPOS>MOLECULE
*****
   18    18     0     0     0
SMALL
NO_CHARGES

@<TRIPOS>ATOM
      1 C1         -0.2789   -0.6387   -1.2127 C.2       1 <0>         0.0000
      2 C2          0.0156   -0.3231    0.9122 C.2       1 <0>         0.0000
      3 C3          0.0906    0.8334   -1.0778 C.3       1 <0>         0.0000
      4 C4          0.6208    2.1386    1.0082 C.3       1 <0>         0.0000
      5 N1         -0.2980   -1.2493    0.0354 N.2       1 <0>         0.0000
      6 N2          0.2558    0.9086    0.3558 N.pl3     1 <0>         0.0000
      7 N3          0.1143   -0.4885    2.2622 N.pl3     1 <0>         0.0000
      8 O1         -0.5202   -1.1811   -2.2833 O.2       1 <0>         0.0000
      9 O2          0.4448   -3.1689    2.7890 O.2       1 <0>         0.0000
     10 P1         -0.2575   -1.8646    3.0664 P.3       1 <0>         0.0000
     11 Cl1        -2.2427   -2.1837    2.9121 Cl        1 <0>         0.0000
     12 Cl2        -0.0987   -1.4869    5.0407 Cl        1 <0>         0.0000
     13 H1          1.0239    1.0377   -1.6081 H         1 <0>         0.0000
     14 H2         -0.7317    1.4620   -1.4281 H         1 <0>         0.0000
     15 H3          1.7088    2.2196    1.0757 H         1 <0>         0.0000
     16 H4          0.2023    2.1695    2.0179 H         1 <0>         0.0000
     17 H5          0.2385    2.9936    0.4441 H         1 <0>         0.0000
     18 H6          0.3649    0.3241    2.7926 H         1 <0>         0.0000
@<TRIPOS>BOND
     1    1    3 1
     2    1    5 1
     3    1    8 2
     4    2    5 2
     5    2    6 1
     6    2    7 1
     7    3    6 1
     8    3   13 1
     9    3   14 1
    10    4    6 1
    11    4   15 1
    12    4   16 1
    13    4   17 1
    14    7   10 1
    15    7   18 1
    16    9   10 2
    17   10   11 1
    18   10   12 1
