@<TRIPOS>MOLECULE
*****
   18    17     0     0     0
SMALL
NO_CHARGES

@<TRIPOS>ATOM
      1 C1         -0.4789   -1.1974   -1.6641 C.2       1 <0>         0.0000
      2 C2         -0.1943   -0.0290   -1.0700 C.2       1 <0>         0.0000
      3 C3         -0.6045   -2.4927   -0.9328 C.3       1 <0>         0.0000
      4 C4          1.0280    1.2528    0.6805 C.3       1 <0>         0.0000
      5 C5         -1.2899    0.3911    1.1264 C.3       1 <0>         0.0000
      6 C6          0.0346    0.1226    0.4125 C.3       1 <0>         0.0000
      7 H1         -0.6314   -1.2302   -2.7396 H         1 <0>         0.0000
      8 H2         -0.1199    0.8710   -1.6765 H         1 <0>         0.0000
      9 H3          0.3493   -3.0253   -0.8643 H         1 <0>         0.0000
     10 H4         -1.3212   -3.1417   -1.4455 H         1 <0>         0.0000
     11 H5         -0.9689   -2.3132    0.0831 H         1 <0>         0.0000
     12 H6          0.6531    2.2057    0.2902 H         1 <0>         0.0000
     13 H7          1.9875    1.0477    0.1935 H         1 <0>         0.0000
     14 H8          1.2157    1.3790    1.7530 H         1 <0>         0.0000
     15 H9         -1.7663    1.3081    0.7610 H         1 <0>         0.0000
     16 H10        -1.1328    0.5014    2.2049 H         1 <0>         0.0000
     17 H11        -1.9921   -0.4363    0.9748 H         1 <0>         0.0000
     18 H12         0.4577   -0.8036    0.8218 H         1 <0>         0.0000
@<TRIPOS>BOND
     1    1    2 2
     2    1    3 1
     3    1    7 1
     4    2    6 1
     5    2    8 1
     6    3    9 1
     7    3   10 1
     8    3   11 1
     9    4    6 1
    10    4   12 1
    11    4   13 1
    12    4   14 1
    13    5    6 1
    14    5   15 1
    15    5   16 1
    16    5   17 1
    17    6   18 1
