@<TRIPOS>MOLECULE
*****
   14    14     0     0     0
SMALL
NO_CHARGES

@<TRIPOS>ATOM
      1 C1         -2.9437    1.9522    0.6651 C.2       1 <0>         0.0000
      2 C2         -2.1867    1.2292    1.7112 C.2       1 <0>         0.0000
      3 C3         -1.1387    1.1929   -0.1190 C.2       1 <0>         0.0000
      4 C4          0.8361    0.2524   -0.6077 C.2       1 <0>         0.0000
      5 C5          1.6448   -0.6479   -1.4808 C.3       1 <0>         0.0000
      6 N1         -2.2853    1.9156   -0.4361 N.2       1 <0>         0.0000
      7 N2         -1.0951    0.7782    1.2090 N.2       1 <0>         0.0000
      8 O1          1.0534    0.4652    0.5758 O.2       1 <0>         0.0000
      9 O2         -0.2032    0.9314   -0.9763 O.3       1 <0>         0.0000
     10 F1          1.1703   -0.6914   -2.7508 F         1 <0>         0.0000
     11 F2          2.9438   -0.2638   -1.5490 F         1 <0>         0.0000
     12 F3          1.6421   -1.9261   -1.0222 F         1 <0>         0.0000
     13 H1         -3.9111    2.4144    0.8962 H         1 <0>         0.0000
     14 H2         -2.5845    1.1469    2.7301 H         1 <0>         0.0000
@<TRIPOS>BOND
     1    1    2 1
     2    1    6 2
     3    1   13 1
     4    2    7 2
     5    2   14 1
     6    3    6 1
     7    3    7 1
     8    3    9 2
     9    4    5 1
    10    4    8 2
    11    4    9 1
    12    5   10 1
    13    5   11 1
    14    5   12 1
