@<TRIPOS>MOLECULE
*****
   29    30     0     0     0
SMALL
NO_CHARGES

@<TRIPOS>ATOM
      1 C1          3.2745    3.7054    0.5264 C.ar      1 <0>         0.0000
      2 C2          5.0139    4.5500   -1.3200 C.ar      1 <0>         0.0000
      3 C3          3.2319    3.2286   -0.7880 C.ar      1 <0>         0.0000
      4 C4          5.0455    5.0103    0.0109 C.ar      1 <0>         0.0000
      5 C5          2.1712    2.2567   -1.2506 C.2       1 <0>         0.0000
      6 C6          0.4585   -0.7025    0.4196 C.3       1 <0>         0.0000
      7 C7         -0.5507    0.6279   -0.8817 C.3       1 <0>         0.0000
      8 C8          0.9312    0.2180   -0.7274 C.3       1 <0>         0.0000
      9 C9         -1.9934   -0.5216    0.8525 C.3       1 <0>         0.0000
     10 C10        -3.3537   -0.6434    0.1832 C.3       1 <0>         0.0000
     11 N1          4.1043    3.6663   -1.7126 N.ar      1 <0>         0.0000
     12 N2          4.1872    4.6039    0.9273 N.ar      1 <0>         0.0000
     13 N3         -0.9191   -0.5897   -0.1082 N.3       1 <0>         0.0000
     14 N4          1.8767    1.2561   -0.3574 N.am      1 <0>         0.0000
     15 O1          1.5867    2.3872   -2.3188 O.2       1 <0>         0.0000
     16 F1         -4.3423   -0.5330    1.1087 F         1 <0>         0.0000
     17 F2         -3.5513    0.3375   -0.7341 F         1 <0>         0.0000
     18 F3         -3.5186   -1.8247   -0.4466 F         1 <0>         0.0000
     19 Cl1         6.2642    6.1709    0.4825 Cl        1 <0>         0.0000
     20 H1          2.5497    3.3842    1.2709 H         1 <0>         0.0000
     21 H2          5.7301    4.9088   -2.0552 H         1 <0>         0.0000
     22 H3          0.8519   -1.7233    0.4613 H         1 <0>         0.0000
     23 H4          0.5904   -0.2149    1.4003 H         1 <0>         0.0000
     24 H5         -0.7689    1.5637   -0.3464 H         1 <0>         0.0000
     25 H6         -0.9591    0.6760   -1.8913 H         1 <0>         0.0000
     26 H7          1.2828   -0.3399   -1.5996 H         1 <0>         0.0000
     27 H8         -1.9091   -1.3592    1.5514 H         1 <0>         0.0000
     28 H9         -2.0048    0.4137    1.4402 H         1 <0>         0.0000
     29 H10         2.5537    1.0426    0.3653 H         1 <0>         0.0000
@<TRIPOS>BOND
     1    1    3 ar
     2    1   12 ar
     3    1   20 1
     4    2    4 ar
     5    2   11 ar
     6    2   21 1
     7    3    5 1
     8    3   11 ar
     9    4   12 ar
    10    4   19 1
    11    5   14 am
    12    5   15 2
    13    6    8 1
    14    6   13 1
    15    6   22 1
    16    6   23 1
    17    7    8 1
    18    7   13 1
    19    7   24 1
    20    7   25 1
    21    8   14 1
    22    8   26 1
    23    9   10 1
    24    9   13 1
    25    9   27 1
    26    9   28 1
    27   10   16 1
    28   10   17 1
    29   10   18 1
    30   14   29 1
