@<TRIPOS>MOLECULE
*****
   32    32     0     0     0
SMALL
NO_CHARGES

@<TRIPOS>ATOM
      1 C1          0.7240   -1.1596    0.3623 C.3       1 <0>         0.0000
      2 C2         -0.2795   -2.2575    0.7583 C.3       1 <0>         0.0000
      3 C3          0.9607   -1.4610   -1.1195 C.3       1 <0>         0.0000
      4 C4          0.1233   -3.4739   -0.1127 C.3       1 <0>         0.0000
      5 C5          0.8223   -4.5724    0.7083 C.3       1 <0>         0.0000
      6 C6          0.7116   -8.6430   -2.9236 C.3       1 <0>         0.0000
      7 C7          1.5725   -5.6003   -0.1410 C.3       1 <0>         0.0000
      8 C8          1.5067   -7.8514   -1.8866 C.3       1 <0>         0.0000
      9 C9          1.5195   -9.7970   -3.4767 C.3       1 <0>         0.0000
     10 N1          1.0440   -2.9299   -1.1395 N.3       1 <0>         0.0000
     11 O1          0.1482   -5.6291   -2.4262 O.2       1 <0>         0.0000
     12 O2         -0.6373   -7.0916   -0.4883 O.2       1 <0>         0.0000
     13 F1          2.6595   -9.3735   -4.0827 F         1 <0>         0.0000
     14 F2          1.8910  -10.6691   -2.5033 F         1 <0>         0.0000
     15 F3          0.8125  -10.4951   -4.3936 F         1 <0>         0.0000
     16 S1          0.4621   -6.4926   -1.2676 S.o2      1 <0>         0.0000
     17 H1          0.3465   -0.1486    0.5388 H         1 <0>         0.0000
     18 H2          1.6620   -1.2747    0.9166 H         1 <0>         0.0000
     19 H3         -0.2656   -2.4875    1.8280 H         1 <0>         0.0000
     20 H4         -1.2963   -1.9398    0.5066 H         1 <0>         0.0000
     21 H5          0.1216   -1.0689   -1.7187 H         1 <0>         0.0000
     22 H6          1.8854   -1.0170   -1.5035 H         1 <0>         0.0000
     23 H7         -0.7683   -3.9082   -0.5791 H         1 <0>         0.0000
     24 H8          0.0958   -5.0803    1.3509 H         1 <0>         0.0000
     25 H9          1.5750   -4.1078    1.3568 H         1 <0>         0.0000
     26 H10         0.4262   -8.0017   -3.7606 H         1 <0>         0.0000
     27 H11        -0.1973   -9.0556   -2.4795 H         1 <0>         0.0000
     28 H12         2.3174   -5.1090   -0.7714 H         1 <0>         0.0000
     29 H13         2.0444   -6.3639    0.4845 H         1 <0>         0.0000
     30 H14         1.7769   -8.4680   -1.0267 H         1 <0>         0.0000
     31 H15         2.4015   -7.3995   -2.3212 H         1 <0>         0.0000
     32 H16         0.8250   -3.3237   -2.0508 H         1 <0>         0.0000
@<TRIPOS>BOND
     1    1    2 1
     2    1    3 1
     3    1   17 1
     4    1   18 1
     5    2    4 1
     6    2   19 1
     7    2   20 1
     8    3   10 1
     9    3   21 1
    10    3   22 1
    11    4    5 1
    12    4   10 1
    13    4   23 1
    14    5    7 1
    15    5   24 1
    16    5   25 1
    17    6    8 1
    18    6    9 1
    19    6   26 1
    20    6   27 1
    21    7   16 1
    22    7   28 1
    23    7   29 1
    24    8   16 1
    25    8   30 1
    26    8   31 1
    27    9   13 1
    28    9   14 1
    29    9   15 1
    30   10   32 1
    31   11   16 2
    32   12   16 2
