@<TRIPOS>MOLECULE
*****
   66    68     0     0     0
SMALL
NO_CHARGES

@<TRIPOS>ATOM
      1 C1          1.1226   -7.5063   -3.8848 C.ar      1 <0>         0.0000
      2 C2          0.8666   -7.0347   -2.5992 C.ar      1 <0>         0.0000
      3 C3         -1.2717   -2.1557   -0.3965 C.ar      1 <0>         0.0000
      4 C4          1.1102   -2.4269   -0.2317 C.ar      1 <0>         0.0000
      5 C5         -0.9370   -5.6628   -3.4810 C.ar      1 <0>         0.0000
      6 C6         -1.4269   -3.5021   -0.7444 C.ar      1 <0>         0.0000
      7 C7          0.3765   -7.0720   -4.9883 C.ar      1 <0>         0.0000
      8 C8         -0.0162   -1.6025   -0.1214 C.ar      1 <0>         0.0000
      9 C9         -0.1569   -6.1112   -2.3981 C.ar      1 <0>         0.0000
     10 C10        -0.2873   -4.3152   -0.8344 C.ar      1 <0>         0.0000
     11 C11         0.9850   -3.7690   -0.5945 C.ar      1 <0>         0.0000
     12 C12        -0.6530   -6.1473   -4.7733 C.ar      1 <0>         0.0000
     13 C13        -2.0102   -4.6635   -3.2184 C.2       1 <0>         0.0000
     14 C14        -2.8051   -4.0344   -1.0764 C.3       1 <0>         0.0000
     15 C15         0.1248   -0.1570    0.2961 C.3       1 <0>         0.0000
     16 C16         4.4080   -5.7775   -4.2149 C.3       1 <0>         0.0000
     17 C17         2.9191   -4.6322   -7.7364 C.3       1 <0>         0.0000
     18 C18         0.5533   -5.1378   -8.4448 C.3       1 <0>         0.0000
     19 C19         4.9799   -4.8676   -0.4449 C.3       1 <0>         0.0000
     20 C20        -2.7219   -6.2354   -5.9376 C.3       1 <0>         0.0000
     21 C21         5.0351   -5.1415   -2.9684 C.3       1 <0>         0.0000
     22 C22         1.8637   -6.8058   -7.0268 C.3       1 <0>         0.0000
     23 C23         2.9384   -4.3389   -1.8172 C.3       1 <0>         0.0000
     24 C24         0.7006   -7.5801   -6.3779 C.3       1 <0>         0.0000
     25 C25         1.6049   -5.3217   -7.3405 C.3       1 <0>         0.0000
     26 C26         4.1706   -5.2297   -1.6970 C.3       1 <0>         0.0000
     27 O1         -2.2170   -3.6457   -3.8413 O.2       1 <0>         0.0000
     28 O2         -0.3826   -5.6790   -1.0988 O.3       1 <0>         0.0000
     29 O3         -2.7325   -5.0347   -2.1106 O.3       1 <0>         0.0000
     30 O4          1.0515   -8.9708   -6.2410 O.3       1 <0>         0.0000
     31 O5         -1.3884   -5.7136   -5.8542 O.3       1 <0>         0.0000
     32 O6          2.0865   -4.5858   -0.6788 O.3       1 <0>         0.0000
     33 H1          1.9069   -8.2381   -4.0477 H         1 <0>         0.0000
     34 H2          1.4542   -7.3512   -1.7442 H         1 <0>         0.0000
     35 H3         -2.1542   -1.5203   -0.3605 H         1 <0>         0.0000
     36 H4          2.1038   -2.0343   -0.0289 H         1 <0>         0.0000
     37 H5         -3.2539   -4.5569   -0.2280 H         1 <0>         0.0000
     38 H6         -3.4616   -3.2136   -1.3799 H         1 <0>         0.0000
     39 H7          0.2147   -0.0719    1.3858 H         1 <0>         0.0000
     40 H8          1.0168    0.3006   -0.1425 H         1 <0>         0.0000
     41 H9         -0.7436    0.4327   -0.0105 H         1 <0>         0.0000
     42 H10         4.1827   -6.8353   -4.0422 H         1 <0>         0.0000
     43 H11         3.4734   -5.2894   -4.5049 H         1 <0>         0.0000
     44 H12         5.0908   -5.7171   -5.0689 H         1 <0>         0.0000
     45 H13         3.3414   -5.0858   -8.6419 H         1 <0>         0.0000
     46 H14         2.7557   -3.5690   -7.9443 H         1 <0>         0.0000
     47 H15         3.6694   -4.7089   -6.9432 H         1 <0>         0.0000
     48 H16         0.8819   -5.6176   -9.3759 H         1 <0>         0.0000
     49 H17        -0.4128   -5.5571   -8.1569 H         1 <0>         0.0000
     50 H18         0.3978   -4.0742   -8.6555 H         1 <0>         0.0000
     51 H19         5.3872   -3.8518   -0.5262 H         1 <0>         0.0000
     52 H20         5.8229   -5.5543   -0.3131 H         1 <0>         0.0000
     53 H21         4.3571   -4.9127    0.4524 H         1 <0>         0.0000
     54 H22        -3.1524   -5.8206   -6.8506 H         1 <0>         0.0000
     55 H23        -3.3310   -5.9259   -5.0825 H         1 <0>         0.0000
     56 H24        -2.7030   -7.3306   -5.9963 H         1 <0>         0.0000
     57 H25         5.2769   -4.0885   -3.1692 H         1 <0>         0.0000
     58 H26         5.9927   -5.6348   -2.7629 H         1 <0>         0.0000
     59 H27         2.1271   -7.3150   -7.9674 H         1 <0>         0.0000
     60 H28         2.7317   -6.9020   -6.3648 H         1 <0>         0.0000
     61 H29         2.3707   -4.5528   -2.7294 H         1 <0>         0.0000
     62 H30         3.2361   -3.2812   -1.8364 H         1 <0>         0.0000
     63 H31        -0.1925   -7.4898   -7.0044 H         1 <0>         0.0000
     64 H32         1.2293   -4.8381   -6.4302 H         1 <0>         0.0000
     65 H33         3.8140   -6.2631   -1.5946 H         1 <0>         0.0000
     66 H34         1.3719   -9.2753   -7.1047 H         1 <0>         0.0000
@<TRIPOS>BOND
     1    1    2 ar
     2    1    7 ar
     3    1   33 1
     4    2    9 ar
     5    2   34 1
     6    3    6 ar
     7    3    8 ar
     8    3   35 1
     9    4    8 ar
    10    4   11 ar
    11    4   36 1
    12    5    9 ar
    13    5   12 ar
    14    5   13 1
    15    6   10 ar
    16    6   14 1
    17    7   12 ar
    18    7   24 1
    19    8   15 1
    20    9   28 1
    21   10   11 ar
    22   10   28 1
    23   11   32 1
    24   12   31 1
    25   13   27 2
    26   13   29 1
    27   14   29 1
    28   14   37 1
    29   14   38 1
    30   15   39 1
    31   15   40 1
    32   15   41 1
    33   16   21 1
    34   16   42 1
    35   16   43 1
    36   16   44 1
    37   17   25 1
    38   17   45 1
    39   17   46 1
    40   17   47 1
    41   18   25 1
    42   18   48 1
    43   18   49 1
    44   18   50 1
    45   19   26 1
    46   19   51 1
    47   19   52 1
    48   19   53 1
    49   20   31 1
    50   20   54 1
    51   20   55 1
    52   20   56 1
    53   21   26 1
    54   21   57 1
    55   21   58 1
    56   22   24 1
    57   22   25 1
    58   22   59 1
    59   22   60 1
    60   23   26 1
    61   23   32 1
    62   23   61 1
    63   23   62 1
    64   24   30 1
    65   24   63 1
    66   25   64 1
    67   26   65 1
    68   30   66 1
