@<TRIPOS>MOLECULE
*****
   64    69     0     0     0
SMALL
NO_CHARGES

@<TRIPOS>ATOM
      1 C1          0.1809   -8.4404    1.3069 C.ar      1 <0>         0.0000
      2 C2         -0.0541   -8.2867   -1.0934 C.ar      1 <0>         0.0000
      3 C3         -1.5065   -3.3418    3.1222 C.ar      1 <0>         0.0000
      4 C4          0.2770   -7.0523    1.3863 C.ar      1 <0>         0.0000
      5 C5          0.0119   -6.8974   -1.0037 C.ar      1 <0>         0.0000
      6 C6         -1.1234   -4.3178    2.1987 C.ar      1 <0>         0.0000
      7 C7          0.0196   -9.0835    0.0647 C.ar      1 <0>         0.0000
      8 C8         -0.8939   -2.0911    3.1242 C.ar      1 <0>         0.0000
      9 C9          0.1831   -6.2573    0.2331 C.ar      1 <0>         0.0000
     10 C10         0.1361   -1.8709    2.1723 C.ar      1 <0>         0.0000
     11 C11        -0.1142   -3.9934    1.2783 C.ar      1 <0>         0.0000
     12 C12        -0.5403    0.1019    4.1180 C.2       1 <0>         0.0000
     13 C13         1.5714    1.2160    0.6978 C.3       1 <0>         0.0000
     14 C14         3.1092   -0.6878    1.2334 C.3       1 <0>         0.0000
     15 C15        -0.7544  -11.2122   -1.0673 C.3       1 <0>         0.0000
     16 C16        -0.5427  -11.3479    1.0484 C.3       1 <0>         0.0000
     17 C17         2.4501    1.4820   -0.5296 C.3       1 <0>         0.0000
     18 C18         3.8982   -0.3159   -0.0243 C.3       1 <0>         0.0000
     19 C19        -0.3874  -13.7263   -0.1920 C.3       1 <0>         0.0000
     20 C20        -2.3541  -13.0979    0.0449 C.3       1 <0>         0.0000
     21 C21         0.8391    0.0350    3.4652 C.3       1 <0>         0.0000
     22 C22         1.6392   -0.2744    1.0546 C.3       1 <0>         0.0000
     23 C23        -1.0252  -12.3337   -0.0392 C.3       1 <0>         0.0000
     24 C24         1.8220   -0.6232    4.4567 C.3       1 <0>         0.0000
     25 C25        -2.6097   -1.0953    4.6233 C.3       1 <0>         0.0000
     26 N1          0.5063   -2.7976    1.2844 N.ar      1 <0>         0.0000
     27 N2         -1.3172   -1.0205    3.9494 N.am      1 <0>         0.0000
     28 N3         -0.0311  -10.4713   -0.0192 N.pl3     1 <0>         0.0000
     29 N4          0.7510   -0.6330    2.1650 N.pl3     1 <0>         0.0000
     30 N5          0.3001   -4.8463    0.2662 N.pl3     1 <0>         0.0000
     31 O1         -0.8866    1.0740    4.7880 O.2       1 <0>         0.0000
     32 O2          3.8014    1.0776   -0.3189 O.3       1 <0>         0.0000
     33 O3         -1.6836  -14.3773   -0.1039 O.3       1 <0>         0.0000
     34 H1          0.2607   -9.0324    2.2146 H         1 <0>         0.0000
     35 H2         -0.1723   -8.7557   -2.0663 H         1 <0>         0.0000
     36 H3         -2.3100   -3.5607    3.8177 H         1 <0>         0.0000
     37 H4          0.4377   -6.5830    2.3518 H         1 <0>         0.0000
     38 H5         -0.0753   -6.2940   -1.9041 H         1 <0>         0.0000
     39 H6         -1.6221   -5.2785    2.1687 H         1 <0>         0.0000
     40 H7          1.9380    1.8374    1.5220 H         1 <0>         0.0000
     41 H8          0.5365    1.5107    0.4895 H         1 <0>         0.0000
     42 H9          3.1738   -1.7649    1.4171 H         1 <0>         0.0000
     43 H10         3.5506   -0.1637    2.0875 H         1 <0>         0.0000
     44 H11        -0.1513  -11.4803   -1.9428 H         1 <0>         0.0000
     45 H12        -1.6729  -10.7051   -1.4019 H         1 <0>         0.0000
     46 H13        -1.3706  -10.8984    1.6191 H         1 <0>         0.0000
     47 H14         0.2176  -11.7169    1.7468 H         1 <0>         0.0000
     48 H15         2.0381    0.9557   -1.4067 H         1 <0>         0.0000
     49 H16         2.4864    2.5497   -0.7609 H         1 <0>         0.0000
     50 H17         4.9640   -0.5245    0.0996 H         1 <0>         0.0000
     51 H18         3.5326   -0.9026   -0.8837 H         1 <0>         0.0000
     52 H19         0.0989  -13.9198   -1.1561 H         1 <0>         0.0000
     53 H20         0.2771  -14.0335    0.6250 H         1 <0>         0.0000
     54 H21        -2.8803  -13.0234    1.0051 H         1 <0>         0.0000
     55 H22        -3.0585  -12.9097   -0.7754 H         1 <0>         0.0000
     56 H23         1.1294    1.0713    3.3032 H         1 <0>         0.0000
     57 H24         1.2516   -0.8371    0.2006 H         1 <0>         0.0000
     58 H25         1.5601   -1.6728    4.6221 H         1 <0>         0.0000
     59 H26         1.7828   -0.0985    5.4160 H         1 <0>         0.0000
     60 H27         2.8459   -0.5815    4.0802 H         1 <0>         0.0000
     61 H28        -2.5976   -1.8549    5.4133 H         1 <0>         0.0000
     62 H29        -3.3956   -1.3413    3.9026 H         1 <0>         0.0000
     63 H30        -2.8092   -0.1232    5.0710 H         1 <0>         0.0000
     64 H31         0.9874   -4.4253   -0.3473 H         1 <0>         0.0000
@<TRIPOS>BOND
     1    1    4 ar
     2    1    7 ar
     3    1   34 1
     4    2    5 ar
     5    2    7 ar
     6    2   35 1
     7    3    6 ar
     8    3    8 ar
     9    3   36 1
    10    4    9 ar
    11    4   37 1
    12    5    9 ar
    13    5   38 1
    14    6   11 ar
    15    6   39 1
    16    7   28 1
    17    8   10 ar
    18    8   27 1
    19    9   30 1
    20   10   26 ar
    21   10   29 1
    22   11   26 ar
    23   11   30 1
    24   12   21 1
    25   12   27 am
    26   12   31 2
    27   13   17 1
    28   13   22 1
    29   13   40 1
    30   13   41 1
    31   14   18 1
    32   14   22 1
    33   14   42 1
    34   14   43 1
    35   15   23 1
    36   15   28 1
    37   15   44 1
    38   15   45 1
    39   16   23 1
    40   16   28 1
    41   16   46 1
    42   16   47 1
    43   17   32 1
    44   17   48 1
    45   17   49 1
    46   18   32 1
    47   18   50 1
    48   18   51 1
    49   19   23 1
    50   19   33 1
    51   19   52 1
    52   19   53 1
    53   20   23 1
    54   20   33 1
    55   20   54 1
    56   20   55 1
    57   21   24 1
    58   21   29 1
    59   21   56 1
    60   22   29 1
    61   22   57 1
    62   24   58 1
    63   24   59 1
    64   24   60 1
    65   25   27 1
    66   25   61 1
    67   25   62 1
    68   25   63 1
    69   30   64 1
