@<TRIPOS>MOLECULE
*****
   67    70     0     0     0
SMALL
NO_CHARGES

@<TRIPOS>ATOM
      1 C1          2.4908    1.9118    0.6394 C.ar      1 <0>         0.0000
      2 C2          3.2619    2.5750   -1.5986 C.ar      1 <0>         0.0000
      3 C3          1.0871    1.5341   -1.2419 C.ar      1 <0>         0.0000
      4 C4          1.2897    1.4266    0.1380 C.ar      1 <0>         0.0000
      5 C5         -0.0358    1.1168   -2.0083 C.2       1 <0>         0.0000
      6 C6          3.4704    2.4909   -0.2183 C.ar      1 <0>         0.0000
      7 C7          2.0515    2.0845   -2.1107 C.ar      1 <0>         0.0000
      8 C8          0.2435    1.4065   -3.3286 C.2       1 <0>         0.0000
      9 C9         -0.5914    0.6756    4.8459 C.2       1 <0>         0.0000
     10 C10        -1.2195    0.5500   -1.2873 C.3       1 <0>         0.0000
     11 C11         0.7013   -0.0524    2.1115 C.3       1 <0>         0.0000
     12 C12        -1.2628   -1.5999    1.9381 C.3       1 <0>         0.0000
     13 C13         0.1639    0.7819    0.9411 C.3       1 <0>         0.0000
     14 C14        -0.3901   -0.7927    2.8950 C.3       1 <0>         0.0000
     15 C15        -0.6838   -0.1124    0.0002 C.3       1 <0>         0.0000
     16 C16         4.7507    3.0139    0.3926 C.3       1 <0>         0.0000
     17 C17        -5.2992    0.4641    2.0319 C.3       1 <0>         0.0000
     18 C18        -0.2276    3.3440    6.6760 C.3       1 <0>         0.0000
     19 C19        -3.8401    0.7490    5.8111 C.3       1 <0>         0.0000
     20 C20         0.0737   -0.2211   -5.5689 C.3       1 <0>         0.0000
     21 C21        -4.1522   -0.5325    1.8165 C.3       1 <0>         0.0000
     22 C22        -0.8404    1.9593    6.8935 C.3       1 <0>         0.0000
     23 C23        -2.7915    1.7535    5.3169 C.3       1 <0>         0.0000
     24 C24        -2.9561    0.1716    1.1796 C.3       1 <0>         0.0000
     25 N1          1.5185    1.9916   -3.3852 N.pl3     1 <0>         0.0000
     26 N2         -1.2204    0.1222    3.6942 N.am      1 <0>         0.0000
     27 N3         -1.4165    1.3912    5.6637 N.am      1 <0>         0.0000
     28 N4         -1.8280   -0.7729    0.7926 N.4       1 <0>         0.0000
     29 O1          0.6117    0.5149    5.0523 O.2       1 <0>         0.0000
     30 S1         -0.7645    1.2002   -4.7534 S.3       1 <0>         0.0000
     31 H1          2.7131    1.8600    1.7022 H         1 <0>         0.0000
     32 H2          4.0223    3.0088   -2.2428 H         1 <0>         0.0000
     33 H3         -1.9139    1.3611   -1.0443 H         1 <0>         0.0000
     34 H4         -1.7651   -0.1782   -1.9009 H         1 <0>         0.0000
     35 H5          1.4110   -0.7933    1.7242 H         1 <0>         0.0000
     36 H6          1.2522    0.5726    2.8110 H         1 <0>         0.0000
     37 H7         -0.6510   -2.3735    1.4689 H         1 <0>         0.0000
     38 H8         -2.0990   -2.0916    2.4362 H         1 <0>         0.0000
     39 H9         -0.4787    1.5787    1.3368 H         1 <0>         0.0000
     40 H10         0.1056   -1.5213    3.5498 H         1 <0>         0.0000
     41 H11        -0.0594   -0.9602   -0.3024 H         1 <0>         0.0000
     42 H12         5.2709    2.2290    0.9523 H         1 <0>         0.0000
     43 H13         5.4355    3.3914   -0.3706 H         1 <0>         0.0000
     44 H14         4.5470    3.8311    1.0934 H         1 <0>         0.0000
     45 H15        -4.9894    1.2864    2.6847 H         1 <0>         0.0000
     46 H16        -5.6400    0.8934    1.0848 H         1 <0>         0.0000
     47 H17        -6.1514   -0.0328    2.5013 H         1 <0>         0.0000
     48 H18         0.5981    3.2845    5.9623 H         1 <0>         0.0000
     49 H19        -0.9678    4.0571    6.2971 H         1 <0>         0.0000
     50 H20         0.1620    3.7359    7.6208 H         1 <0>         0.0000
     51 H21        -3.7014   -0.2442    5.3671 H         1 <0>         0.0000
     52 H22        -3.7823    0.6279    6.8964 H         1 <0>         0.0000
     53 H23        -4.8491    1.0916    5.5595 H         1 <0>         0.0000
     54 H24        -0.5029   -0.4402   -6.4706 H         1 <0>         0.0000
     55 H25         0.0743   -1.0950   -4.9147 H         1 <0>         0.0000
     56 H26         1.0956    0.0348   -5.8537 H         1 <0>         0.0000
     57 H27        -4.4923   -1.3538    1.1722 H         1 <0>         0.0000
     58 H28        -3.8868   -0.9774    2.7800 H         1 <0>         0.0000
     59 H29        -1.6404    1.9995    7.6395 H         1 <0>         0.0000
     60 H30        -0.0827    1.2649    7.2583 H         1 <0>         0.0000
     61 H31        -2.9933    2.7330    5.7595 H         1 <0>         0.0000
     62 H32        -2.8636    1.8906    4.2337 H         1 <0>         0.0000
     63 H33        -3.2741    0.6526    0.2559 H         1 <0>         0.0000
     64 H34        -2.5286    0.9207    1.8417 H         1 <0>         0.0000
     65 H35         1.9111    2.3909   -4.2276 H         1 <0>         0.0000
     66 H36        -2.1243   -0.2762    3.9267 H         1 <0>         0.0000
     67 H37        -2.2499   -1.4469    0.1457 H         1 <0>         0.0000
@<TRIPOS>BOND
     1    1    4 ar
     2    1    6 ar
     3    1   31 1
     4    2    6 ar
     5    2    7 ar
     6    2   32 1
     7    3    4 ar
     8    3    5 1
     9    3    7 ar
    10    4   13 1
    11    5    8 2
    12    5   10 1
    13    6   16 1
    14    7   25 1
    15    8   25 1
    16    8   30 1
    17    9   26 am
    18    9   27 am
    19    9   29 2
    20   10   15 1
    21   10   33 1
    22   10   34 1
    23   11   13 1
    24   11   14 1
    25   11   35 1
    26   11   36 1
    27   12   14 1
    28   12   28 1
    29   12   37 1
    30   12   38 1
    31   13   15 1
    32   13   39 1
    33   14   26 1
    34   14   40 1
    35   15   28 1
    36   15   41 1
    37   16   42 1
    38   16   43 1
    39   16   44 1
    40   17   21 1
    41   17   45 1
    42   17   46 1
    43   17   47 1
    44   18   22 1
    45   18   48 1
    46   18   49 1
    47   18   50 1
    48   19   23 1
    49   19   51 1
    50   19   52 1
    51   19   53 1
    52   20   30 1
    53   20   54 1
    54   20   55 1
    55   20   56 1
    56   21   24 1
    57   21   57 1
    58   21   58 1
    59   22   27 1
    60   22   59 1
    61   22   60 1
    62   23   27 1
    63   23   61 1
    64   23   62 1
    65   24   28 1
    66   24   63 1
    67   24   64 1
    68   25   65 1
    69   26   66 1
    70   28   67 1
