@<TRIPOS>MOLECULE
*****
   64    69     0     0     0
SMALL
NO_CHARGES

@<TRIPOS>ATOM
      1 C1          1.4819   -5.4681   -2.4982 C.ar      1 <0>         0.0000
      2 C2          0.1874   -3.4619   -2.8879 C.ar      1 <0>         0.0000
      3 C3         -0.6280   -3.1330    3.7821 C.ar      1 <0>         0.0000
      4 C4          0.8869   -5.5967   -1.2411 C.ar      1 <0>         0.0000
      5 C5         -0.4146   -3.6094   -1.6426 C.ar      1 <0>         0.0000
      6 C6         -0.8515   -4.1220    2.8201 C.ar      1 <0>         0.0000
      7 C7          1.1562   -4.3842   -3.3329 C.ar      1 <0>         0.0000
      8 C8          0.0045   -1.9408    3.4334 C.ar      1 <0>         0.0000
      9 C9         -0.0626   -4.6699   -0.7962 C.ar      1 <0>         0.0000
     10 C10         0.4307   -1.8011    2.0879 C.ar      1 <0>         0.0000
     11 C11        -0.4305   -3.8664    1.5055 C.ar      1 <0>         0.0000
     12 C12         0.9810    0.2042    4.0282 C.2       1 <0>         0.0000
     13 C13         1.5869    1.0268   -0.0821 C.3       1 <0>         0.0000
     14 C14         2.5869   -1.2634   -0.2479 C.3       1 <0>         0.0000
     15 C15         1.2080   -3.5237   -5.7167 C.3       1 <0>         0.0000
     16 C16         2.3560   -5.2864   -5.3753 C.3       1 <0>         0.0000
     17 C17         1.7884    1.1435   -1.5974 C.3       1 <0>         0.0000
     18 C18         2.7426   -1.0113   -1.7489 C.3       1 <0>         0.0000
     19 C19         3.1947   -3.8651   -7.4936 C.3       1 <0>         0.0000
     20 C20         1.5368   -5.0336   -7.9468 C.3       1 <0>         0.0000
     21 C21         1.8288    0.0489    2.7659 C.3       1 <0>         0.0000
     22 C22         1.3953   -0.4477    0.2863 C.3       1 <0>         0.0000
     23 C23         2.0554   -4.4371   -6.6310 C.3       1 <0>         0.0000
     24 C24         3.1648   -0.6214    3.1503 C.3       1 <0>         0.0000
     25 C25        -0.6094   -0.8267    5.5697 C.3       1 <0>         0.0000
     26 N1          0.1994   -2.7370    1.1641 N.ar      1 <0>         0.0000
     27 N2          0.1524   -0.8509    4.3250 N.am      1 <0>         0.0000
     28 N3          1.8015   -4.2002   -4.5505 N.pl3     1 <0>         0.0000
     29 N4          1.0842   -0.6446    1.7125 N.pl3     1 <0>         0.0000
     30 N5         -0.6674   -4.7963    0.4865 N.pl3     1 <0>         0.0000
     31 O1          1.1002    1.1950    4.7485 O.2       1 <0>         0.0000
     32 O2          2.9024    0.3792   -2.0475 O.3       1 <0>         0.0000
     33 O3          2.6480   -4.4733   -8.6951 O.3       1 <0>         0.0000
     34 H1          2.2238   -6.1944   -2.8181 H         1 <0>         0.0000
     35 H2         -0.0909   -2.6251   -3.5226 H         1 <0>         0.0000
     36 H3         -0.9712   -3.2950    4.7985 H         1 <0>         0.0000
     37 H4          1.1790   -6.4205   -0.5930 H         1 <0>         0.0000
     38 H5         -1.1584   -2.8934   -1.3092 H         1 <0>         0.0000
     39 H6         -1.3548   -5.0483    3.0807 H         1 <0>         0.0000
     40 H7          2.4730    1.4447    0.4080 H         1 <0>         0.0000
     41 H8          0.7178    1.6195    0.2271 H         1 <0>         0.0000
     42 H9          2.4156   -2.3279   -0.0699 H         1 <0>         0.0000
     43 H10         3.5107   -0.9661    0.2585 H         1 <0>         0.0000
     44 H11         1.4050   -2.4469   -5.7745 H         1 <0>         0.0000
     45 H12         0.1257   -3.7010   -5.8173 H         1 <0>         0.0000
     46 H13         1.7613   -6.2124   -5.3301 H         1 <0>         0.0000
     47 H14         3.4083   -5.5238   -5.1798 H         1 <0>         0.0000
     48 H15         0.8747    0.8171   -2.1226 H         1 <0>         0.0000
     49 H16         1.9927    2.1786   -1.8839 H         1 <0>         0.0000
     50 H17         3.6320   -1.5093   -2.1426 H         1 <0>         0.0000
     51 H18         1.8679   -1.4079   -2.2849 H         1 <0>         0.0000
     52 H19         3.2240   -2.7712   -7.5701 H         1 <0>         0.0000
     53 H20         4.1978   -4.2464   -7.2664 H         1 <0>         0.0000
     54 H21         1.5245   -6.1299   -7.9957 H         1 <0>         0.0000
     55 H22         0.5728   -4.6399   -8.2938 H         1 <0>         0.0000
     56 H23         2.0215    1.0689    2.4393 H         1 <0>         0.0000
     57 H24         0.5080   -0.8098   -0.2425 H         1 <0>         0.0000
     58 H25         3.0063   -1.6687    3.4257 H         1 <0>         0.0000
     59 H26         3.6095   -0.0966    4.0010 H         1 <0>         0.0000
     60 H27         3.8708   -0.5882    2.3181 H         1 <0>         0.0000
     61 H28        -0.2511   -1.5955    6.2636 H         1 <0>         0.0000
     62 H29        -1.6708   -0.9971    5.3640 H         1 <0>         0.0000
     63 H30        -0.4733    0.1525    6.0255 H         1 <0>         0.0000
     64 H31        -0.7794   -5.7468    0.8156 H         1 <0>         0.0000
@<TRIPOS>BOND
     1    1    4 ar
     2    1    7 ar
     3    1   34 1
     4    2    5 ar
     5    2    7 ar
     6    2   35 1
     7    3    6 ar
     8    3    8 ar
     9    3   36 1
    10    4    9 ar
    11    4   37 1
    12    5    9 ar
    13    5   38 1
    14    6   11 ar
    15    6   39 1
    16    7   28 1
    17    8   10 ar
    18    8   27 1
    19    9   30 1
    20   10   26 ar
    21   10   29 1
    22   11   26 ar
    23   11   30 1
    24   12   21 1
    25   12   27 am
    26   12   31 2
    27   13   17 1
    28   13   22 1
    29   13   40 1
    30   13   41 1
    31   14   18 1
    32   14   22 1
    33   14   42 1
    34   14   43 1
    35   15   23 1
    36   15   28 1
    37   15   44 1
    38   15   45 1
    39   16   23 1
    40   16   28 1
    41   16   46 1
    42   16   47 1
    43   17   32 1
    44   17   48 1
    45   17   49 1
    46   18   32 1
    47   18   50 1
    48   18   51 1
    49   19   23 1
    50   19   33 1
    51   19   52 1
    52   19   53 1
    53   20   23 1
    54   20   33 1
    55   20   54 1
    56   20   55 1
    57   21   24 1
    58   21   29 1
    59   21   56 1
    60   22   29 1
    61   22   57 1
    62   24   58 1
    63   24   59 1
    64   24   60 1
    65   25   27 1
    66   25   61 1
    67   25   62 1
    68   25   63 1
    69   30   64 1
