@<TRIPOS>MOLECULE
*****
   40    42     0     0     0
SMALL
NO_CHARGES

@<TRIPOS>ATOM
      1 C1         -0.5932   -1.2033   -2.0940 C.ar      1 <0>         0.0000
      2 C2         -1.6555   -0.3595   -2.4396 C.ar      1 <0>         0.0000
      3 C3         -1.4318    0.8336   -0.3512 C.ar      1 <0>         0.0000
      4 C4          1.4583    3.7698   -0.4629 C.ar      1 <0>         0.0000
      5 C5          1.3602    4.6894    1.7228 C.ar      1 <0>         0.0000
      6 C6          1.5606    4.9122    0.3436 C.ar      1 <0>         0.0000
      7 C7          0.0537   -1.0173   -0.8725 C.ar      1 <0>         0.0000
      8 C8         -0.3641    0.0055   -0.0192 C.ar      1 <0>         0.0000
      9 C9         -2.0916    0.6614   -1.5770 C.ar      1 <0>         0.0000
     10 C10         1.0011    2.4690    1.3454 C.ar      1 <0>         0.0000
     11 C11         1.8629    6.2743   -0.1586 C.2       1 <0>         0.0000
     12 C12         1.1894   -1.8023   -0.2519 C.3       1 <0>         0.0000
     13 C13         0.4626   -0.0175    1.2519 C.3       1 <0>         0.0000
     14 C14         1.7226   -0.8689    0.8708 C.3       1 <0>         0.0000
     15 C15        -3.2610    1.5433   -1.9538 C.3       1 <0>         0.0000
     16 C16         2.0712    6.4645   -1.6521 C.3       1 <0>         0.0000
     17 C17         2.9162   -0.0416    0.3864 C.3       1 <0>         0.0000
     18 N1          1.1899    2.5558    0.0129 N.ar      1 <0>         0.0000
     19 N2          1.0812    3.4998    2.2336 N.ar      1 <0>         0.0000
     20 N3          0.6971    1.2671    1.9027 N.pl3     1 <0>         0.0000
     21 O1          1.9433    7.2272    0.6132 O.2       1 <0>         0.0000
     22 H1         -0.2745   -1.9868   -2.7785 H         1 <0>         0.0000
     23 H2         -2.1538   -0.4921   -3.3979 H         1 <0>         0.0000
     24 H3         -1.7392    1.6303    0.3235 H         1 <0>         0.0000
     25 H4          1.6022    3.8263   -1.5411 H         1 <0>         0.0000
     26 H5          1.4330    5.5260    2.4148 H         1 <0>         0.0000
     27 H6          0.8097   -2.7422    0.1708 H         1 <0>         0.0000
     28 H7          1.9717   -2.0686   -0.9705 H         1 <0>         0.0000
     29 H8         -0.1005   -0.5941    1.9973 H         1 <0>         0.0000
     30 H9          2.0377   -1.4526    1.7427 H         1 <0>         0.0000
     31 H10        -4.2056    1.1252   -1.5844 H         1 <0>         0.0000
     32 H11        -3.1589    2.5458   -1.5270 H         1 <0>         0.0000
     33 H12        -3.3518    1.6457   -3.0395 H         1 <0>         0.0000
     34 H13         1.1834    6.1556   -2.2148 H         1 <0>         0.0000
     35 H14         2.9125    5.8608   -2.0098 H         1 <0>         0.0000
     36 H15         2.2746    7.5178   -1.8487 H         1 <0>         0.0000
     37 H16         2.6690    0.5169   -0.5189 H         1 <0>         0.0000
     38 H17         3.7601   -0.7062    0.1710 H         1 <0>         0.0000
     39 H18         3.2418    0.6756    1.1461 H         1 <0>         0.0000
     40 H19         0.5881    1.3146    2.9073 H         1 <0>         0.0000
@<TRIPOS>BOND
     1    1    2 ar
     2    1    7 ar
     3    1   22 1
     4    2    9 ar
     5    2   23 1
     6    3    8 ar
     7    3    9 ar
     8    3   24 1
     9    4    6 ar
    10    4   18 ar
    11    4   25 1
    12    5    6 ar
    13    5   19 ar
    14    5   26 1
    15    6   11 1
    16    7    8 ar
    17    7   12 1
    18    8   13 1
    19    9   15 1
    20   10   19 ar
    21   10   18 ar
    22   10   20 1
    23   11   16 1
    24   11   21 2
    25   12   14 1
    26   12   27 1
    27   12   28 1
    28   13   14 1
    29   13   20 1
    30   13   29 1
    31   14   17 1
    32   14   30 1
    33   15   31 1
    34   15   32 1
    35   15   33 1
    36   16   34 1
    37   16   35 1
    38   16   36 1
    39   17   37 1
    40   17   38 1
    41   17   39 1
    42   20   40 1
