@<TRIPOS>MOLECULE
*****
   27    28     0     0     0
SMALL
NO_CHARGES

@<TRIPOS>ATOM
      1 C1          0.6664    2.2498   -1.7818 C.1       1 <0>         0.0000
      2 C2          2.3761   -1.1549    0.3080 C.ar      1 <0>         0.0000
      3 C3          1.1102   -0.7197    0.7029 C.ar      1 <0>         0.0000
      4 C4          3.3891   -1.3533    1.2505 C.ar      1 <0>         0.0000
      5 C5          1.8420   -0.7172    3.0167 C.ar      1 <0>         0.0000
      6 C6          1.1735    2.3718   -0.4596 C.2       1 <0>         0.0000
      7 C7          0.8418   -0.4782    2.0609 C.ar      1 <0>         0.0000
      8 C8          3.1042   -1.1353    2.6007 C.ar      1 <0>         0.0000
      9 C9          0.4918    2.1149    0.7034 C.2       1 <0>         0.0000
     10 C10         2.5701    2.6348    1.1396 C.2       1 <0>         0.0000
     11 C11        -0.4679    0.0337    2.5231 C.2       1 <0>         0.0000
     12 C12         3.7489    2.7948    2.0287 C.3       1 <0>         0.0000
     13 N1          0.2202    2.1225   -2.8516 N.1       1 <0>         0.0000
     14 N2          2.4953    2.7158   -0.1524 N.2       1 <0>         0.0000
     15 N3         -1.2141    0.9725    2.0496 N.2       1 <0>         0.0000
     16 N4         -0.8098    1.7221    0.9545 N.pl3     1 <0>         0.0000
     17 O1          1.3697    2.3021    1.7375 O.3       1 <0>         0.0000
     18 Cl1         4.3675   -1.3746    3.7986 Cl        1 <0>         0.0000
     19 H1          2.5826   -1.3308   -0.7437 H         1 <0>         0.0000
     20 H2          0.3313   -0.5743   -0.0381 H         1 <0>         0.0000
     21 H3          4.3797   -1.6757    0.9460 H         1 <0>         0.0000
     22 H4          1.6465   -0.5416    4.0705 H         1 <0>         0.0000
     23 H5         -0.8943   -0.4393    3.4076 H         1 <0>         0.0000
     24 H6          3.5614    3.5469    2.8009 H         1 <0>         0.0000
     25 H7          3.9748    1.8464    2.5277 H         1 <0>         0.0000
     26 H8          4.6064    3.0979    1.4275 H         1 <0>         0.0000
     27 H9         -1.5236    2.3982    0.7096 H         1 <0>         0.0000
@<TRIPOS>BOND
     1    1    6 1
     2    1   13 3
     3    2    3 ar
     4    2    4 ar
     5    2   19 1
     6    3    7 ar
     7    3   20 1
     8    4    8 ar
     9    4   21 1
    10    5    7 ar
    11    5    8 ar
    12    5   22 1
    13    6    9 2
    14    6   14 1
    15    7   11 1
    16    8   18 1
    17    9   16 1
    18    9   17 1
    19   10   12 1
    20   10   14 2
    21   10   17 1
    22   11   15 2
    23   11   23 1
    24   12   24 1
    25   12   25 1
    26   12   26 1
    27   15   16 1
    28   16   27 1
