@<TRIPOS>MOLECULE
*****
   18    18     0     0     0
SMALL
NO_CHARGES

@<TRIPOS>ATOM
      1 C1          4.2843   -2.5221   -0.1117 C.1       1 <0>         0.0000
      2 C2          2.3017   -1.1263   -0.1394 C.ar      1 <0>         0.0000
      3 C3          1.2574   -0.4515    0.4807 C.ar      1 <0>         0.0000
      4 C4          2.0308   -1.2193    2.6383 C.ar      1 <0>         0.0000
      5 C5          3.2398   -1.8571    0.6157 C.ar      1 <0>         0.0000
      6 C6          1.1045   -0.5051    1.8742 C.ar      1 <0>         0.0000
      7 C7          3.0845   -1.8822    2.0131 C.ar      1 <0>         0.0000
      8 C8         -0.0406    0.2628    2.4806 C.2       1 <0>         0.0000
      9 N1          5.0529   -3.0013   -0.8437 N.1       1 <0>         0.0000
     10 N2          4.0361   -2.6110    2.8779 N.pl3     1 <0>         0.0000
     11 O1          4.9945   -3.1585    2.3346 O.3       1 <0>         0.0000
     12 O2         -0.5717    1.1848    1.9059 O.2       1 <0>         0.0000
     13 O3          3.8025   -2.6224    4.0906 O.2       1 <0>         0.0000
     14 O4         -0.4628   -0.1173    3.7142 O.3       1 <0>         0.0000
     15 H1          2.4130   -1.0966   -1.2182 H         1 <0>         0.0000
     16 H2          0.5466    0.1269   -0.1005 H         1 <0>         0.0000
     17 H3          1.9942   -1.2573    3.7217 H         1 <0>         0.0000
     18 H4         -0.0520   -0.9543    3.9886 H         1 <0>         0.0000
@<TRIPOS>BOND
     1    1    5 1
     2    1    9 3
     3    2    3 ar
     4    2    5 ar
     5    2   15 1
     6    3    6 ar
     7    3   16 1
     8    4    6 ar
     9    4    7 ar
    10    4   17 1
    11    5    7 ar
    12    6    8 1
    13    7   10 1
    14    8   12 2
    15    8   14 1
    16   10   11 1
    17   10   13 2
    18   14   18 1
