@<TRIPOS>MOLECULE
*****
   27    28     0     0     0
SMALL
NO_CHARGES

@<TRIPOS>ATOM
      1 C1         -2.3189   -0.9486    0.4904 C.1       1 <0>         0.0000
      2 C2          1.5300   -2.4820    0.8742 C.ar      1 <0>         0.0000
      3 C3          0.7012   -1.8164    1.7794 C.ar      1 <0>         0.0000
      4 C4          2.3343   -1.7634   -0.0136 C.ar      1 <0>         0.0000
      5 C5          1.4865    0.3153    0.9287 C.ar      1 <0>         0.0000
      6 C6         -1.6234    0.0134   -0.2914 C.2       1 <0>         0.0000
      7 C7          0.6545   -0.4148    1.7951 C.ar      1 <0>         0.0000
      8 C8          2.3046   -0.3672    0.0343 C.ar      1 <0>         0.0000
      9 C9         -1.1560    1.2388    0.1169 C.2       1 <0>         0.0000
     10 C10        -0.6363    0.8825   -1.9801 C.2       1 <0>         0.0000
     11 C11        -0.2787    0.2607    2.7260 C.2       1 <0>         0.0000
     12 C12        -0.0323    1.2320   -3.2914 C.3       1 <0>         0.0000
     13 N1         -2.8721   -1.7255    1.1604 N.1       1 <0>         0.0000
     14 N2         -1.2641   -0.1963   -1.6273 N.2       1 <0>         0.0000
     15 N3         -1.0395    1.2868    2.5573 N.2       1 <0>         0.0000
     16 N4         -1.0858    1.9319    1.3182 N.pl3     1 <0>         0.0000
     17 O1         -0.5261    1.8069   -0.9622 O.3       1 <0>         0.0000
     18 Cl1         3.3044    0.5549   -1.0816 Cl        1 <0>         0.0000
     19 H1          1.5429   -3.5678    0.8480 H         1 <0>         0.0000
     20 H2          0.0550   -2.3819    2.4445 H         1 <0>         0.0000
     21 H3          2.9714   -2.2726   -0.7296 H         1 <0>         0.0000
     22 H4          1.4842    1.3992    0.9434 H         1 <0>         0.0000
     23 H5         -0.3643   -0.1682    3.7240 H         1 <0>         0.0000
     24 H6         -0.4613    2.1590   -3.6845 H         1 <0>         0.0000
     25 H7          1.0479    1.3739   -3.1863 H         1 <0>         0.0000
     26 H8         -0.2227    0.4199   -3.9935 H         1 <0>         0.0000
     27 H9         -1.7104    2.7288    1.3834 H         1 <0>         0.0000
@<TRIPOS>BOND
     1    1    6 1
     2    1   13 3
     3    2    3 ar
     4    2    4 ar
     5    2   19 1
     6    3    7 ar
     7    3   20 1
     8    4    8 ar
     9    4   21 1
    10    5    7 ar
    11    5    8 ar
    12    5   22 1
    13    6    9 2
    14    6   14 1
    15    7   11 1
    16    8   18 1
    17    9   16 1
    18    9   17 1
    19   10   12 1
    20   10   14 2
    21   10   17 1
    22   11   15 2
    23   11   23 1
    24   12   24 1
    25   12   25 1
    26   12   26 1
    27   15   16 1
    28   16   27 1
