@<TRIPOS>MOLECULE
*****
   41    43     0     0     0
SMALL
NO_CHARGES

@<TRIPOS>ATOM
      1 C1          0.2776    3.5884   -3.7430 C.ar      1 <0>         0.0000
      2 C2          1.2959    3.1666   -2.8777 C.ar      1 <0>         0.0000
      3 C3         -0.3875    2.6460   -4.5339 C.ar      1 <0>         0.0000
      4 C4          1.6361    1.8141   -2.7946 C.ar      1 <0>         0.0000
      5 C5         -0.0440    1.2923   -4.4478 C.ar      1 <0>         0.0000
      6 C6          0.9609    0.8605   -3.5731 C.ar      1 <0>         0.0000
      7 C7          1.4919   -1.0271   -1.9662 C.2       1 <0>         0.0000
      8 C8         -1.5084    0.6054   -1.3506 C.3       1 <0>         0.0000
      9 C9         -0.3472   -0.7706    1.2883 C.3       1 <0>         0.0000
     10 C10        -0.9713   -0.8197   -1.5393 C.3       1 <0>         0.0000
     11 C11         0.7154   -1.2553    0.2994 C.3       1 <0>         0.0000
     12 C12        -1.8961    2.5972    0.1454 C.3       1 <0>         0.0000
     13 C13        -1.8580    1.0484    0.0777 C.3       1 <0>         0.0000
     14 C14        -0.8796    0.6644    1.1998 C.3       1 <0>         0.0000
     15 C15         1.2969   -0.6117   -3.4284 C.3       1 <0>         0.0000
     16 N1         -0.5072    3.0970    0.2029 N.pl3     1 <0>         0.0000
     17 N2          0.4133   -0.9946   -1.1128 N.am      1 <0>         0.0000
     18 O1          2.6154   -1.3302   -1.5618 O.2       1 <0>         0.0000
     19 O2          1.6159    1.6659    0.4373 O.2       1 <0>         0.0000
     20 O3          0.4970    2.5398    2.5434 O.2       1 <0>         0.0000
     21 S1          0.3976    2.0142    1.1806 S.o2      1 <0>         0.0000
     22 H1          0.0115    4.6405   -3.8037 H         1 <0>         0.0000
     23 H2          1.8281    3.8902   -2.2650 H         1 <0>         0.0000
     24 H3         -1.1753    2.9621   -5.2131 H         1 <0>         0.0000
     25 H4          2.4012    1.4959   -2.0933 H         1 <0>         0.0000
     26 H5         -0.5774    0.5635   -5.0551 H         1 <0>         0.0000
     27 H6         -0.7726    1.2842   -1.7811 H         1 <0>         0.0000
     28 H7         -2.4139    0.7163   -1.9594 H         1 <0>         0.0000
     29 H8         -1.2299   -1.4207    1.2565 H         1 <0>         0.0000
     30 H9          0.0830   -0.9116    2.2855 H         1 <0>         0.0000
     31 H10        -1.6000   -1.5476   -1.0128 H         1 <0>         0.0000
     32 H11        -1.0471   -1.0759   -2.5961 H         1 <0>         0.0000
     33 H12         1.6715   -0.7807    0.5118 H         1 <0>         0.0000
     34 H13         0.8541   -2.3330    0.4583 H         1 <0>         0.0000
     35 H14        -2.3827    3.0358   -0.7287 H         1 <0>         0.0000
     36 H15        -2.4267    2.9395    1.0392 H         1 <0>         0.0000
     37 H16        -2.8387    0.6407    0.3505 H         1 <0>         0.0000
     38 H17        -1.3847    0.8765    2.1472 H         1 <0>         0.0000
     39 H18         0.5393   -1.2237   -3.9278 H         1 <0>         0.0000
     40 H19         2.2539   -0.8323   -3.9075 H         1 <0>         0.0000
     41 H20        -0.0689    3.0948   -0.7204 H         1 <0>         0.0000
@<TRIPOS>BOND
     1    1    3 ar
     2    1    2 ar
     3    1   22 1
     4    2    4 ar
     5    2   23 1
     6    3    5 ar
     7    3   24 1
     8    4    6 ar
     9    4   25 1
    10    5    6 ar
    11    5   26 1
    12    6   15 1
    13    7   15 1
    14    7   17 am
    15    7   18 2
    16    8   10 1
    17    8   13 1
    18    8   27 1
    19    8   28 1
    20    9   11 1
    21    9   14 1
    22    9   29 1
    23    9   30 1
    24   10   17 1
    25   10   31 1
    26   10   32 1
    27   11   17 1
    28   11   33 1
    29   11   34 1
    30   12   13 1
    31   12   16 1
    32   12   35 1
    33   12   36 1
    34   13   14 1
    35   13   37 1
    36   14   21 1
    37   14   38 1
    38   15   39 1
    39   15   40 1
    40   16   21 1
    41   16   41 1
    42   19   21 2
    43   20   21 2
