@<TRIPOS>MOLECULE
*****
   19    19     0     0     0
SMALL
NO_CHARGES

@<TRIPOS>ATOM
      1 C1          4.1234   -2.1390    2.5912 C.1       1 <0>         0.0000
      2 C2          1.6957   -1.3976   -0.1982 C.ar      1 <0>         0.0000
      3 C3          0.7295   -0.6762    0.5009 C.ar      1 <0>         0.0000
      4 C4          2.0269   -0.9438    2.5375 C.ar      1 <0>         0.0000
      5 C5          2.9973   -1.6702    1.8263 C.ar      1 <0>         0.0000
      6 C6          2.8348   -1.9027    0.4428 C.ar      1 <0>         0.0000
      7 C7          0.9068   -0.4561    1.8686 C.ar      1 <0>         0.0000
      8 C8          3.8627   -2.6735   -0.3183 C.2       1 <0>         0.0000
      9 C9          4.4907   -3.5363   -2.4230 C.3       1 <0>         0.0000
     10 N1          4.9639   -2.4482    3.3357 N.1       1 <0>         0.0000
     11 O1          4.8750   -3.1363    0.1696 O.2       1 <0>         0.0000
     12 O2          3.5367   -2.7999   -1.6258 O.3       1 <0>         0.0000
     13 Br1        -0.4061    0.5298    2.8431 Br        1 <0>         0.0000
     14 H1          1.5697   -1.5752   -1.2597 H         1 <0>         0.0000
     15 H2         -0.1475   -0.2910   -0.0087 H         1 <0>         0.0000
     16 H3          2.1597   -0.7703    3.5994 H         1 <0>         0.0000
     17 H4          4.0789   -3.5441   -3.4316 H         1 <0>         0.0000
     18 H5          4.5984   -4.5531   -2.0395 H         1 <0>         0.0000
     19 H6          5.4626   -3.0386   -2.4042 H         1 <0>         0.0000
@<TRIPOS>BOND
     1    1    5 1
     2    1   10 3
     3    2    3 ar
     4    2    6 ar
     5    2   14 1
     6    3    7 ar
     7    3   15 1
     8    4    5 ar
     9    4    7 ar
    10    4   16 1
    11    5    6 ar
    12    6    8 1
    13    7   13 1
    14    8   11 2
    15    8   12 1
    16    9   12 1
    17    9   17 1
    18    9   18 1
    19    9   19 1
