@<TRIPOS>MOLECULE
*****
   29    30     0     0     0
SMALL
NO_CHARGES

@<TRIPOS>ATOM
      1 C1         -2.3110   -3.6234    4.0285 C.1       1 <0>         0.0000
      2 C2         -5.1451    0.7528    1.6926 C.2       1 <0>         0.0000
      3 C3         -0.9270   -3.8436    3.8033 C.2       1 <0>         0.0000
      4 C4         -2.8243    0.1730    1.2738 C.2       1 <0>         0.0000
      5 C5         -3.2193    1.4243    0.8237 C.2       1 <0>         0.0000
      6 C6         -0.0766   -3.1993    2.9333 C.2       1 <0>         0.0000
      7 C7          1.0124   -4.7569    4.0133 C.2       1 <0>         0.0000
      8 C8         -1.5322   -0.5081    1.2093 C.2       1 <0>         0.0000
      9 C9         -2.3827    2.4811    0.1515 C.3       1 <0>         0.0000
     10 C10         2.2225   -5.5497    4.3519 C.3       1 <0>         0.0000
     11 C11        -0.4810   -0.1094    0.1994 C.3       1 <0>         0.0000
     12 N1         -3.4505   -3.4652    4.2218 N.1       1 <0>         0.0000
     13 N2         -4.5431    1.7312    1.0673 N.2       1 <0>         0.0000
     14 N3         -0.1873   -4.8349    4.4761 N.2       1 <0>         0.0000
     15 N4         -1.3821   -1.4974    2.0324 N.2       1 <0>         0.0000
     16 N5         -0.2105   -2.2048    2.0024 N.pl3     1 <0>         0.0000
     17 O1          1.1588   -3.7576    3.0443 O.3       1 <0>         0.0000
     18 S1         -4.1699   -0.6283    2.0595 S.3       1 <0>         0.0000
     19 H1         -6.1899    0.7888    1.9846 H         1 <0>         0.0000
     20 H2         -2.3353    2.3311   -0.9338 H         1 <0>         0.0000
     21 H3         -2.8482    3.4533    0.3258 H         1 <0>         0.0000
     22 H4         -1.3612    2.5121    0.5366 H         1 <0>         0.0000
     23 H5          2.6106   -6.0706    3.4705 H         1 <0>         0.0000
     24 H6          3.0185   -4.9061    4.7407 H         1 <0>         0.0000
     25 H7          1.9545   -6.2842    5.1118 H         1 <0>         0.0000
     26 H8          0.3382    0.4546    0.6641 H         1 <0>         0.0000
     27 H9         -0.0538   -1.0055   -0.2653 H         1 <0>         0.0000
     28 H10        -0.8977    0.5036   -0.5962 H         1 <0>         0.0000
     29 H11         0.6506   -1.7894    1.6538 H         1 <0>         0.0000
@<TRIPOS>BOND
     1    1    3 1
     2    1   12 3
     3    2   13 2
     4    2   18 1
     5    2   19 1
     6    3    6 2
     7    3   14 1
     8    4    5 2
     9    4    8 1
    10    4   18 1
    11    5    9 1
    12    5   13 1
    13    6   16 1
    14    6   17 1
    15    7   10 1
    16    7   14 2
    17    7   17 1
    18    8   11 1
    19    8   15 2
    20    9   20 1
    21    9   21 1
    22    9   22 1
    23   10   23 1
    24   10   24 1
    25   10   25 1
    26   11   26 1
    27   11   27 1
    28   11   28 1
    29   15   16 1
    30   16   29 1
