@<TRIPOS>MOLECULE
*****
   27    28     0     0     0
SMALL
NO_CHARGES

@<TRIPOS>ATOM
      1 C1          0.9265    3.7395   -1.0792 C.1       1 <0>         0.0000
      2 C2          1.0637   -3.0162    0.8496 C.ar      1 <0>         0.0000
      3 C3          0.3498   -2.0875    1.6064 C.ar      1 <0>         0.0000
      4 C4          2.3283   -2.7001    0.3439 C.ar      1 <0>         0.0000
      5 C5          2.1624   -0.4938    1.3601 C.ar      1 <0>         0.0000
      6 C6          0.4749    4.1712    0.1927 C.2       1 <0>         0.0000
      7 C7          0.8828   -0.8098    1.8551 C.ar      1 <0>         0.0000
      8 C8          2.8669   -1.4408    0.6168 C.ar      1 <0>         0.0000
      9 C9          0.3112    3.3787    1.3085 C.2       1 <0>         0.0000
     10 C10        -0.2425    5.4351    1.7674 C.2       1 <0>         0.0000
     11 C11         0.0943    0.1356    2.6739 C.2       1 <0>         0.0000
     12 C12        -0.7439    6.5116    2.6599 C.3       1 <0>         0.0000
     13 N1          1.3034    3.3114   -2.0984 N.1       1 <0>         0.0000
     14 N2          0.1143    5.4856    0.5275 N.2       1 <0>         0.0000
     15 N3         -0.0447    1.4127    2.5607 N.2       1 <0>         0.0000
     16 N4          0.5973    2.0588    1.5370 N.pl3     1 <0>         0.0000
     17 O1         -0.1405    4.1557    2.3188 O.3       1 <0>         0.0000
     18 Cl1         4.4656   -1.0403    0.0213 Cl        1 <0>         0.0000
     19 H1          0.6393   -3.9963    0.6510 H         1 <0>         0.0000
     20 H2         -0.6300   -2.3445    2.0003 H         1 <0>         0.0000
     21 H3          2.8912   -3.4180   -0.2439 H         1 <0>         0.0000
     22 H4          2.6297    0.4579    1.5899 H         1 <0>         0.0000
     23 H5         -0.4891   -0.2915    3.4882 H         1 <0>         0.0000
     24 H6         -1.7546    6.2846    3.0144 H         1 <0>         0.0000
     25 H7         -0.0982    6.6260    3.5364 H         1 <0>         0.0000
     26 H8         -0.7616    7.4479    2.1014 H         1 <0>         0.0000
     27 H9          0.8969    1.5338    0.7144 H         1 <0>         0.0000
@<TRIPOS>BOND
     1    1    6 1
     2    1   13 3
     3    2    3 ar
     4    2    4 ar
     5    2   19 1
     6    3    7 ar
     7    3   20 1
     8    4    8 ar
     9    4   21 1
    10    5    7 ar
    11    5    8 ar
    12    5   22 1
    13    6    9 2
    14    6   14 1
    15    7   11 1
    16    8   18 1
    17    9   16 1
    18    9   17 1
    19   10   12 1
    20   10   14 2
    21   10   17 1
    22   11   15 2
    23   11   23 1
    24   12   24 1
    25   12   25 1
    26   12   26 1
    27   15   16 1
    28   16   27 1
