@<TRIPOS>MOLECULE
*****
   23    24     0     0     0
SMALL
NO_CHARGES

@<TRIPOS>ATOM
      1 C1         -0.9554    1.9265   -0.4813 C.2       1 <0>         0.0000
      2 C2         -1.8599    0.8909   -0.1046 C.2       1 <0>         0.0000
      3 C3          0.2150    1.4423   -1.0116 C.2       1 <0>         0.0000
      4 C4         -7.8590   -1.5661   -0.8110 C.2       1 <0>         0.0000
      5 C5         -1.3664   -0.3820   -0.3485 C.2       1 <0>         0.0000
      6 C6         -7.3356   -2.6557   -0.1742 C.2       1 <0>         0.0000
      7 C7         -5.4557   -1.5116   -0.4036 C.2       1 <0>         0.0000
      8 C8         -1.9357   -1.6999   -0.0781 C.2       1 <0>         0.0000
      9 C9         -8.1048   -3.8585    0.2858 C.3       1 <0>         0.0000
     10 N1         -5.9674   -2.6124    0.0565 N.2       1 <0>         0.0000
     11 N2         -3.1786   -2.0565   -0.0361 N.2       1 <0>         0.0000
     12 N3         -4.1294   -1.1186   -0.2993 N.pl3     1 <0>         0.0000
     13 S1          0.2338   -0.2855   -1.0532 S.3       1 <0>         0.0000
     14 S2         -6.6015   -0.4037   -1.1681 S.3       1 <0>         0.0000
     15 H1         -1.1607    2.9846   -0.3565 H         1 <0>         0.0000
     16 H2         -2.8025    1.0785    0.3982 H         1 <0>         0.0000
     17 H3          1.0631    2.0030   -1.3834 H         1 <0>         0.0000
     18 H4         -8.8860   -1.3703   -1.0885 H         1 <0>         0.0000
     19 H5         -1.2391   -2.5168    0.1009 H         1 <0>         0.0000
     20 H6         -7.7149   -4.7641   -0.1907 H         1 <0>         0.0000
     21 H7         -7.9982   -3.9877    1.3679 H         1 <0>         0.0000
     22 H8         -9.1668   -3.7649    0.0458 H         1 <0>         0.0000
     23 H9         -3.8575   -0.2899   -0.8276 H         1 <0>         0.0000
@<TRIPOS>BOND
     1    1    2 1
     2    1    3 2
     3    1   15 1
     4    2    5 2
     5    2   16 1
     6    3   13 1
     7    3   17 1
     8    4    6 2
     9    4   14 1
    10    4   18 1
    11    5    8 1
    12    5   13 1
    13    6    9 1
    14    6   10 1
    15    7   10 2
    16    7   12 1
    17    7   14 1
    18    8   11 2
    19    8   19 1
    20    9   20 1
    21    9   21 1
    22    9   22 1
    23   11   12 1
    24   12   23 1
