@<TRIPOS>MOLECULE
*****
   21    22     0     0     0
SMALL
NO_CHARGES

@<TRIPOS>ATOM
      1 C1         -0.2198    0.6378    0.8761 C.ar      1 <0>         0.0000
      2 C2          0.7408    1.8848    2.7555 C.ar      1 <0>         0.0000
      3 C3         -1.4307    0.4257    1.5844 C.ar      1 <0>         0.0000
      4 C4         -0.4445    1.6677    3.4269 C.ar      1 <0>         0.0000
      5 C5         -1.5132    0.9575    2.8684 C.ar      1 <0>         0.0000
      6 C6          0.8217    1.3453    1.4552 C.ar      1 <0>         0.0000
      7 C7         -2.5661   -0.3280    0.9930 C.2       1 <0>         0.0000
      8 C8         -2.1117    1.6149    4.9321 C.3       1 <0>         0.0000
      9 C9         -3.3413   -1.5035   -0.9026 C.3       1 <0>         0.0000
     10 O1         -3.6258   -0.5404    1.5528 O.2       1 <0>         0.0000
     11 O2         -0.7725    2.0840    4.6937 O.3       1 <0>         0.0000
     12 O3         -2.5454    0.9031    3.7604 O.3       1 <0>         0.0000
     13 O4         -2.2845   -0.7609   -0.2618 O.3       1 <0>         0.0000
     14 Br1         2.4421    1.6100    0.4639 Br        1 <0>         0.0000
     15 H1         -0.1253    0.2366   -0.1246 H         1 <0>         0.0000
     16 H2          1.5589    2.4373    3.2034 H         1 <0>         0.0000
     17 H3         -2.1111    0.9328    5.7881 H         1 <0>         0.0000
     18 H4         -2.7730    2.4715    5.0984 H         1 <0>         0.0000
     19 H5         -2.9517   -1.7735   -1.8839 H         1 <0>         0.0000
     20 H6         -4.2365   -0.8848   -0.9994 H         1 <0>         0.0000
     21 H7         -3.5835   -2.3976   -0.3236 H         1 <0>         0.0000
@<TRIPOS>BOND
     1    1    3 ar
     2    1    6 ar
     3    1   15 1
     4    2    4 ar
     5    2    6 ar
     6    2   16 1
     7    3    5 ar
     8    3    7 1
     9    4    5 ar
    10    4   11 1
    11    5   12 1
    12    6   14 1
    13    7   10 2
    14    7   13 1
    15    8   11 1
    16    8   12 1
    17    8   17 1
    18    8   18 1
    19    9   13 1
    20    9   19 1
    21    9   20 1
    22    9   21 1
