@<TRIPOS>MOLECULE
*****
   23    24     0     0     0
SMALL
NO_CHARGES

@<TRIPOS>ATOM
      1 C1         -3.1830    1.4209    3.1162 C.2       1 <0>         0.0000
      2 C2         -3.7368    0.2748    2.4754 C.2       1 <0>         0.0000
      3 C3         -1.8257    1.5269    2.9366 C.2       1 <0>         0.0000
      4 C4         -7.6564   -3.2157   -1.7899 C.2       1 <0>         0.0000
      5 C5         -2.7896   -0.4905    1.8110 C.2       1 <0>         0.0000
      6 C6         -8.0536   -1.9488   -1.4675 C.2       1 <0>         0.0000
      7 C7         -6.1149   -1.9694   -0.4003 C.2       1 <0>         0.0000
      8 C8         -2.9101   -1.7429    1.0746 C.2       1 <0>         0.0000
      9 C9         -9.3294   -1.2846   -1.8938 C.3       1 <0>         0.0000
     10 N1         -7.1636   -1.2419   -0.6686 N.2       1 <0>         0.0000
     11 N2         -3.9366   -2.2251    0.4509 N.2       1 <0>         0.0000
     12 N3         -5.0920   -1.5149    0.4143 N.pl3     1 <0>         0.0000
     13 S1         -1.2007    0.2257    1.9871 S.3       1 <0>         0.0000
     14 S2         -6.0946   -3.5804   -1.0868 S.3       1 <0>         0.0000
     15 H1         -3.7657    2.1326    3.6917 H         1 <0>         0.0000
     16 H2         -4.7794   -0.0085    2.5671 H         1 <0>         0.0000
     17 H3         -1.1608    2.2984    3.3037 H         1 <0>         0.0000
     18 H4         -8.1729   -3.9488   -2.3954 H         1 <0>         0.0000
     19 H5         -2.0257   -2.3739    1.0150 H         1 <0>         0.0000
     20 H6         -9.9238   -0.9981   -1.0196 H         1 <0>         0.0000
     21 H7         -9.1161   -0.3703   -2.4578 H         1 <0>         0.0000
     22 H8         -9.9290   -1.9492   -2.5206 H         1 <0>         0.0000
     23 H9         -5.0843   -0.5063    0.5688 H         1 <0>         0.0000
@<TRIPOS>BOND
     1    1    2 1
     2    1    3 2
     3    1   15 1
     4    2    5 2
     5    2   16 1
     6    3   13 1
     7    3   17 1
     8    4    6 2
     9    4   14 1
    10    4   18 1
    11    5    8 1
    12    5   13 1
    13    6    9 1
    14    6   10 1
    15    7   10 2
    16    7   12 1
    17    7   14 1
    18    8   11 2
    19    8   19 1
    20    9   20 1
    21    9   21 1
    22    9   22 1
    23   11   12 1
    24   12   23 1
