@<TRIPOS>MOLECULE
*****
   28    29     0     0     0
SMALL
NO_CHARGES

@<TRIPOS>ATOM
      1 C1          2.7658   -2.4315   -5.0107 C.1       1 <0>         0.0000
      2 C2          3.1036   -0.2798    1.1891 C.ar      1 <0>         0.0000
      3 C3          2.0583    0.4125    1.8063 C.ar      1 <0>         0.0000
      4 C4          1.5275   -1.8734    0.2797 C.ar      1 <0>         0.0000
      5 C5          3.1008   -2.7912   -3.6837 C.2       1 <0>         0.0000
      6 C6          2.8475   -1.4268    0.4295 C.ar      1 <0>         0.0000
      7 C7          0.7546   -0.0446    1.6490 C.ar      1 <0>         0.0000
      8 C8          0.4786   -1.1825    0.8854 C.ar      1 <0>         0.0000
      9 C9          3.1707   -4.0935   -3.0903 C.2       1 <0>         0.0000
     10 C10         3.4098   -1.9000   -2.6474 C.2       1 <0>         0.0000
     11 C11         2.9234   -5.4083   -3.7582 C.3       1 <0>         0.0000
     12 C12         3.9845   -2.1943   -0.2227 C.3       1 <0>         0.0000
     13 N1          2.4879   -2.1088   -6.0990 N.1       1 <0>         0.0000
     14 N2          3.4889   -4.0096   -1.8058 N.2       1 <0>         0.0000
     15 N3          3.6531   -2.6620   -1.5551 N.pl3     1 <0>         0.0000
     16 N4          3.5494   -0.5220   -2.6458 N.pl3     1 <0>         0.0000
     17 F1         -0.2506    0.6320    2.2381 F         1 <0>         0.0000
     18 Br1        -1.3196   -1.7718    0.6747 Br        1 <0>         0.0000
     19 H1          4.1228    0.0811    1.3026 H         1 <0>         0.0000
     20 H2          2.2352    1.3044    2.3998 H         1 <0>         0.0000
     21 H3          1.3175   -2.7578   -0.3142 H         1 <0>         0.0000
     22 H4          3.6248   -5.5632   -4.5846 H         1 <0>         0.0000
     23 H5          3.0429   -6.2192   -3.0370 H         1 <0>         0.0000
     24 H6          1.9124   -5.4510   -4.1763 H         1 <0>         0.0000
     25 H7          4.8803   -1.5664   -0.2740 H         1 <0>         0.0000
     26 H8          4.2319   -3.0900    0.3513 H         1 <0>         0.0000
     27 H9          3.2392   -0.1000   -3.5159 H         1 <0>         0.0000
     28 H10         3.1263   -0.0610   -1.8444 H         1 <0>         0.0000
@<TRIPOS>BOND
     1    1    5 1
     2    1   13 3
     3    2    3 ar
     4    2    6 ar
     5    2   19 1
     6    3    7 ar
     7    3   20 1
     8    4    6 ar
     9    4    8 ar
    10    4   21 1
    11    5    9 1
    12    5   10 2
    13    6   12 1
    14    7    8 ar
    15    7   17 1
    16    8   18 1
    17    9   11 1
    18    9   14 2
    19   10   15 1
    20   10   16 1
    21   11   22 1
    22   11   23 1
    23   11   24 1
    24   12   15 1
    25   12   25 1
    26   12   26 1
    27   14   15 1
    28   16   27 1
    29   16   28 1
