@<TRIPOS>MOLECULE
*****
   31    33     0     0     0
SMALL
NO_CHARGES

@<TRIPOS>ATOM
      1 C1          8.7252    3.9057   -0.8648 C.ar      1 <0>         0.0000
      2 C2          8.6956    4.9134    0.1297 C.ar      1 <0>         0.0000
      3 C3          8.0126    2.7348   -0.6899 C.ar      1 <0>         0.0000
      4 C4          7.3016   -2.9553   -2.4729 C.ar      1 <0>         0.0000
      5 C5          7.9518    4.7406    1.2795 C.ar      1 <0>         0.0000
      6 C6          7.9408   -2.9935   -3.7084 C.ar      1 <0>         0.0000
      7 C7          6.5163   -0.7211   -2.9460 C.ar      1 <0>         0.0000
      8 C8          5.7960    2.2921    2.7495 C.ar      1 <0>         0.0000
      9 C9          7.2463    2.5299    0.4869 C.ar      1 <0>         0.0000
     10 C10         6.5950   -1.8112   -2.0625 C.ar      1 <0>         0.0000
     11 C11         7.2084    3.5492    1.4828 C.ar      1 <0>         0.0000
     12 C12         7.8798   -1.8943   -4.5728 C.ar      1 <0>         0.0000
     13 C13         7.1535   -0.7573   -4.1882 C.ar      1 <0>         0.0000
     14 C14         6.4660    1.3540    0.7847 C.ar      1 <0>         0.0000
     15 C15         5.9305   -1.8107   -0.7390 C.2       1 <0>         0.0000
     16 N1          6.4697    3.4167    2.6299 N.ar      1 <0>         0.0000
     17 N2          5.7499    1.2445    1.8878 N.ar      1 <0>         0.0000
     18 N3          5.8444   -0.8611    0.1298 N.2       1 <0>         0.0000
     19 N4          6.4524    0.3235   -0.1380 N.pl3     1 <0>         0.0000
     20 Cl1         8.7031   -1.9755   -6.1055 Cl        1 <0>         0.0000
     21 Cl2         7.0157    0.6313   -5.2362 Cl        1 <0>         0.0000
     22 H1          9.3077    4.0553   -1.7695 H         1 <0>         0.0000
     23 H2          9.2610    5.8296   -0.0193 H         1 <0>         0.0000
     24 H3          8.0490    1.9874   -1.4786 H         1 <0>         0.0000
     25 H4          7.3603   -3.8172   -1.8137 H         1 <0>         0.0000
     26 H5          7.9088    5.5009    2.0535 H         1 <0>         0.0000
     27 H6          8.4953   -3.8744   -4.0159 H         1 <0>         0.0000
     28 H7          5.9173    0.1491   -2.6981 H         1 <0>         0.0000
     29 H8          5.1967    2.1715    3.6509 H         1 <0>         0.0000
     30 H9          5.4687   -2.7443   -0.4216 H         1 <0>         0.0000
     31 H10         7.1250    0.3684   -0.8970 H         1 <0>         0.0000
@<TRIPOS>BOND
     1    1    2 ar
     2    1    3 ar
     3    1   22 1
     4    2    5 ar
     5    2   23 1
     6    3    9 ar
     7    3   24 1
     8    4    6 ar
     9    4   10 ar
    10    4   25 1
    11    5   11 ar
    12    5   26 1
    13    6   12 ar
    14    6   27 1
    15    7   10 ar
    16    7   13 ar
    17    7   28 1
    18    8   16 ar
    19    8   17 ar
    20    8   29 1
    21    9   11 ar
    22    9   14 ar
    23   10   15 1
    24   11   16 ar
    25   12   13 ar
    26   12   20 1
    27   13   21 1
    28   14   17 ar
    29   14   19 1
    30   15   18 2
    31   15   30 1
    32   18   19 1
    33   19   31 1
