@<TRIPOS>MOLECULE
*****
   37    39     0     0     0
SMALL
NO_CHARGES

@<TRIPOS>ATOM
      1 C1         -1.6060    4.9840    2.3460 C.1       1 <0>         0.0000
      2 C2         -5.9409    3.2104    5.9547 C.ar      1 <0>         0.0000
      3 C3         -4.9659    5.4388    5.8452 C.ar      1 <0>         0.0000
      4 C4         -6.8138    3.6313    6.9618 C.ar      1 <0>         0.0000
      5 C5         -5.8384    5.8680    6.8488 C.ar      1 <0>         0.0000
      6 C6         -5.0054    4.1044    5.4061 C.ar      1 <0>         0.0000
      7 C7         -6.7658    4.9642    7.3746 C.ar      1 <0>         0.0000
      8 C8         -2.4480    2.6034    2.3883 C.2       1 <0>         0.0000
      9 C9         -2.0465    0.7231    1.3471 C.2       1 <0>         0.0000
     10 C10        -2.4692    3.9765    2.8924 C.2       1 <0>         0.0000
     11 C11        -1.4665   -0.2785    0.4049 C.3       1 <0>         0.0000
     12 C12        -1.5489    0.1473   -1.0757 C.3       1 <0>         0.0000
     13 C13        -0.5412    1.2294   -1.4905 C.3       1 <0>         0.0000
     14 C14        -0.6812    2.5894   -0.7905 C.3       1 <0>         0.0000
     15 C15        -0.4508    2.5601    0.7245 C.3       1 <0>         0.0000
     16 N1         -0.9034    5.7905    1.8799 N.1       1 <0>         0.0000
     17 N2         -3.3260    1.6888    2.8012 N.2       1 <0>         0.0000
     18 N3         -3.0766    0.5130    2.1441 N.2       1 <0>         0.0000
     19 N4         -3.2757    4.4266    3.8335 N.2       1 <0>         0.0000
     20 N5         -1.6025    2.0203    1.4627 N.pl3     1 <0>         0.0000
     21 N6         -4.1552    3.6280    4.3982 N.pl3     1 <0>         0.0000
     22 I1         -7.6236    5.4423    9.4664 I         1 <0>         0.0000
     23 H1         -5.9816    2.1822    5.6026 H         1 <0>         0.0000
     24 H2         -4.2524    6.1269    5.4058 H         1 <0>         0.0000
     25 H3         -7.5200    2.9308    7.3946 H         1 <0>         0.0000
     26 H4         -5.7978    6.8950    7.1961 H         1 <0>         0.0000
     27 H5         -0.4213   -0.4864    0.6711 H         1 <0>         0.0000
     28 H6         -2.0263   -1.2030    0.5642 H         1 <0>         0.0000
     29 H7         -1.3710   -0.7413   -1.6913 H         1 <0>         0.0000
     30 H8         -2.5709    0.4791   -1.2948 H         1 <0>         0.0000
     31 H9          0.4760    0.8503   -1.3196 H         1 <0>         0.0000
     32 H10        -0.6280    1.3884   -2.5714 H         1 <0>         0.0000
     33 H11         0.0581    3.2774   -1.2153 H         1 <0>         0.0000
     34 H12        -1.6658    3.0292   -0.9888 H         1 <0>         0.0000
     35 H13         0.4207    1.9433    0.9704 H         1 <0>         0.0000
     36 H14        -0.2494    3.5606    1.0934 H         1 <0>         0.0000
     37 H15        -4.2171    2.6489    4.0689 H         1 <0>         0.0000
@<TRIPOS>BOND
     1    1   10 1
     2    1   16 3
     3    2    4 ar
     4    2    6 ar
     5    2   23 1
     6    3    5 ar
     7    3    6 ar
     8    3   24 1
     9    4    7 ar
    10    4   25 1
    11    5    7 ar
    12    5   26 1
    13    6   21 1
    14    7   22 1
    15    8   10 1
    16    8   17 2
    17    8   20 1
    18    9   11 1
    19    9   18 2
    20    9   20 1
    21   10   19 2
    22   11   12 1
    23   11   27 1
    24   11   28 1
    25   12   13 1
    26   12   29 1
    27   12   30 1
    28   13   14 1
    29   13   31 1
    30   13   32 1
    31   14   15 1
    32   14   33 1
    33   14   34 1
    34   15   20 1
    35   15   35 1
    36   15   36 1
    37   17   18 1
    38   19   21 1
    39   21   37 1
