@<TRIPOS>MOLECULE
*****
   44    46     0     0     0
SMALL
NO_CHARGES

@<TRIPOS>ATOM
      1 C1         -5.1341   -0.9655   -4.8285 C.1       1 <0>         0.0000
      2 C2         -3.7596    0.2011   -3.1785 C.2       1 <0>         0.0000
      3 C3         -4.3796    0.1746   -4.4096 C.2       1 <0>         0.0000
      4 C4         -3.0086    1.3149   -2.7230 C.2       1 <0>         0.0000
      5 C5         -2.9309    2.4303   -3.5429 C.2       1 <0>         0.0000
      6 C6         -4.2804    1.3142   -5.3158 C.2       1 <0>         0.0000
      7 C7          0.9640   -1.0131    1.2763 C.2       1 <0>         0.0000
      8 C8         -2.4088    1.3465   -1.3484 C.2       1 <0>         0.0000
      9 C9          2.6568    0.2390   -0.8483 C.3       1 <0>         0.0000
     10 C10         1.2632    0.7611   -0.4675 C.3       1 <0>         0.0000
     11 C11         0.0011   -1.4052   -1.0455 C.3       1 <0>         0.0000
     12 C12         3.0869   -0.9727    0.0088 C.3       1 <0>         0.0000
     13 C13        -1.1218   -0.7567   -1.8750 C.3       1 <0>         0.0000
     14 C14        -1.0621    0.1973    0.3590 C.3       1 <0>         0.0000
     15 C15         0.3368   -0.3550    0.0444 C.3       1 <0>         0.0000
     16 C16        -2.2430    3.7183   -3.1908 C.3       1 <0>         0.0000
     17 C17         3.0010   -1.8075    2.3498 C.3       1 <0>         0.0000
     18 N1         -5.7334   -1.9159   -5.1388 N.1       1 <0>         0.0000
     19 N2         -3.5349    2.3811   -4.7625 N.am      1 <0>         0.0000
     20 N3          2.3338   -1.1006    1.2606 N.am      1 <0>         0.0000
     21 N4         -1.7283    0.2273   -0.9541 N.am      1 <0>         0.0000
     22 O1         -4.7595    1.4203   -6.4388 O.2       1 <0>         0.0000
     23 O2          0.2803   -1.4103    2.2218 O.2       1 <0>         0.0000
     24 O3         -2.5513    2.3358   -0.6208 O.2       1 <0>         0.0000
     25 H1         -3.8774   -0.6555   -2.5219 H         1 <0>         0.0000
     26 H2          2.6819   -0.0575   -1.9014 H         1 <0>         0.0000
     27 H3          3.3832    1.0491   -0.7385 H         1 <0>         0.0000
     28 H4          1.3543    1.5058    0.3296 H         1 <0>         0.0000
     29 H5          0.8048    1.2765   -1.3185 H         1 <0>         0.0000
     30 H6         -0.3692   -2.3136   -0.5615 H         1 <0>         0.0000
     31 H7          0.8528   -1.6820   -1.6707 H         1 <0>         0.0000
     32 H8          2.9920   -1.9028   -0.5694 H         1 <0>         0.0000
     33 H9          4.1434   -0.8863    0.2754 H         1 <0>         0.0000
     34 H10        -0.7345   -0.2518   -2.7658 H         1 <0>         0.0000
     35 H11        -1.8404   -1.5097   -2.2086 H         1 <0>         0.0000
     36 H12        -1.5879   -0.4696    1.0467 H         1 <0>         0.0000
     37 H13        -1.0498    1.2004    0.7841 H         1 <0>         0.0000
     38 H14        -1.9423    4.2587   -4.0935 H         1 <0>         0.0000
     39 H15        -1.3676    3.5425   -2.5661 H         1 <0>         0.0000
     40 H16        -2.9203    4.3496   -2.6077 H         1 <0>         0.0000
     41 H17         3.2038   -2.8534    2.0823 H         1 <0>         0.0000
     42 H18         2.3576   -1.7919    3.2280 H         1 <0>         0.0000
     43 H19         3.9502   -1.3125    2.5774 H         1 <0>         0.0000
     44 H20        -3.4726    3.1868   -5.3796 H         1 <0>         0.0000
@<TRIPOS>BOND
     1    1    3 1
     2    1   18 3
     3    2    3 2
     4    2    4 1
     5    2   25 1
     6    3    6 1
     7    4    5 2
     8    4    8 1
     9    5   16 1
    10    5   19 1
    11    6   19 am
    12    6   22 2
    13    7   15 1
    14    7   20 am
    15    7   23 2
    16    8   21 am
    17    8   24 2
    18    9   10 1
    19    9   12 1
    20    9   26 1
    21    9   27 1
    22   10   15 1
    23   10   28 1
    24   10   29 1
    25   11   13 1
    26   11   15 1
    27   11   30 1
    28   11   31 1
    29   12   20 1
    30   12   32 1
    31   12   33 1
    32   13   21 1
    33   13   34 1
    34   13   35 1
    35   14   15 1
    36   14   21 1
    37   14   36 1
    38   14   37 1
    39   16   38 1
    40   16   39 1
    41   16   40 1
    42   17   20 1
    43   17   41 1
    44   17   42 1
    45   17   43 1
    46   19   44 1
