@<TRIPOS>MOLECULE
*****
   32    33     0     0     0
SMALL
NO_CHARGES

@<TRIPOS>ATOM
      1 C1          2.8504    0.6798   -0.7126 C.ar      1 <0>         0.0000
      2 C2          3.3650   -0.2334   -1.6287 C.ar      1 <0>         0.0000
      3 C3          1.8834    1.6204   -1.1050 C.ar      1 <0>         0.0000
      4 C4          2.4142   -0.5748   -5.1391 C.2       1 <0>         0.0000
      5 C5          2.8509   -0.2298   -2.9315 C.ar      1 <0>         0.0000
      6 C6          1.8074    0.6614   -3.3134 C.ar      1 <0>         0.0000
      7 C7          3.2099   -0.9809   -4.1139 C.2       1 <0>         0.0000
      8 C8          1.3785    1.6420   -2.4074 C.ar      1 <0>         0.0000
      9 C9          0.2685    0.6227   -5.2860 C.2       1 <0>         0.0000
     10 C10        -1.4088    1.8784   -7.4653 C.3       1 <0>         0.0000
     11 C11        -0.1783    0.1841   -8.8673 C.3       1 <0>         0.0000
     12 C12        -1.7750   -0.6132   -7.0886 C.3       1 <0>         0.0000
     13 C13        -0.7858    0.4811   -7.4959 C.3       1 <0>         0.0000
     14 N1          1.5188    0.4184   -4.6660 N.am      1 <0>         0.0000
     15 O1         -0.7464    0.8997   -4.6835 O.2       1 <0>         0.0000
     16 O2          4.1605   -1.9642   -4.1980 O.3       1 <0>         0.0000
     17 O3          0.4035    0.4441   -6.6107 O.3       1 <0>         0.0000
     18 Br1         0.2731    3.1252   -2.8919 Br        1 <0>         0.0000
     19 H1          3.2185    0.6975    0.3092 H         1 <0>         0.0000
     20 H2          4.1457   -0.9306   -1.3336 H         1 <0>         0.0000
     21 H3          1.5435    2.3711   -0.3994 H         1 <0>         0.0000
     22 H4          2.3594   -0.9149   -6.1604 H         1 <0>         0.0000
     23 H5         -1.8419    2.1004   -6.4897 H         1 <0>         0.0000
     24 H6         -0.6549    2.6360   -7.7004 H         1 <0>         0.0000
     25 H7         -2.1982    1.9363   -8.2217 H         1 <0>         0.0000
     26 H8          0.2999   -0.7999   -8.8742 H         1 <0>         0.0000
     27 H9          0.5714    0.9366   -9.1279 H         1 <0>         0.0000
     28 H10        -0.9612    0.1941   -9.6310 H         1 <0>         0.0000
     29 H11        -1.2737   -1.5856   -7.0499 H         1 <0>         0.0000
     30 H12        -2.2253   -0.4066   -6.1174 H         1 <0>         0.0000
     31 H13        -2.5719   -0.6722   -7.8368 H         1 <0>         0.0000
     32 H14         4.8399   -1.8009   -3.5251 H         1 <0>         0.0000
@<TRIPOS>BOND
     1    1    2 ar
     2    1    3 ar
     3    1   19 1
     4    2    5 ar
     5    2   20 1
     6    3    8 ar
     7    3   21 1
     8    4    7 2
     9    4   14 1
    10    4   22 1
    11    5    6 ar
    12    5    7 1
    13    6    8 ar
    14    6   14 1
    15    7   16 1
    16    8   18 1
    17    9   14 am
    18    9   15 2
    19    9   17 1
    20   10   13 1
    21   10   23 1
    22   10   24 1
    23   10   25 1
    24   11   13 1
    25   11   26 1
    26   11   27 1
    27   11   28 1
    28   12   13 1
    29   12   29 1
    30   12   30 1
    31   12   31 1
    32   13   17 1
    33   16   32 1
