@<TRIPOS>MOLECULE
*****
   23    24     0     0     0
SMALL
NO_CHARGES

@<TRIPOS>ATOM
      1 C1         -4.0142    3.3438    0.6977 C.2       1 <0>         0.0000
      2 C2         -2.8098    3.4155    1.4758 C.2       1 <0>         0.0000
      3 C3         -4.3103    4.5278    0.0861 C.2       1 <0>         0.0000
      4 C4         -2.2466    4.6666    1.4404 C.2       1 <0>         0.0000
      5 C5         -2.3460    2.2451    2.2908 C.2       1 <0>         0.0000
      6 C6          0.7875    0.9800    0.7305 C.3       1 <0>         0.0000
      7 C7         -0.2130    2.1389    0.8843 C.3       1 <0>         0.0000
      8 C8          1.1667    0.5509    2.1439 C.3       1 <0>         0.0000
      9 N1         -1.0569    1.8055    2.0454 N.am      1 <0>         0.0000
     10 O1         -3.0791    1.7076    3.1056 O.2       1 <0>         0.0000
     11 O2         -0.3174    0.8766    4.3995 O.2       1 <0>         0.0000
     12 O3         -1.1101   -0.7677    2.6216 O.2       1 <0>         0.0000
     13 S1         -3.1555    5.7857    0.4581 S.3       1 <0>         0.0000
     14 S2         -0.4321    0.4690    3.0048 S.o2      1 <0>         0.0000
     15 Cl1        -5.6507    4.8596   -0.9517 Cl        1 <0>         0.0000
     16 Cl2        -0.8597    5.2295    2.3079 Cl        1 <0>         0.0000
     17 H1         -4.6193    2.4481    0.6176 H         1 <0>         0.0000
     18 H2          0.3237    0.1420    0.2038 H         1 <0>         0.0000
     19 H3          1.6638    1.3029    0.1640 H         1 <0>         0.0000
     20 H4          0.3175    3.0776    1.0679 H         1 <0>         0.0000
     21 H5         -0.8320    2.2537   -0.0075 H         1 <0>         0.0000
     22 H6          1.6161   -0.4403    2.2135 H         1 <0>         0.0000
     23 H7          1.7769    1.2896    2.6690 H         1 <0>         0.0000
@<TRIPOS>BOND
     1    1    2 1
     2    1    3 2
     3    1   17 1
     4    2    4 2
     5    2    5 1
     6    3   13 1
     7    3   15 1
     8    4   13 1
     9    4   16 1
    10    5    9 am
    11    5   10 2
    12    6    7 1
    13    6    8 1
    14    6   18 1
    15    6   19 1
    16    7    9 1
    17    7   20 1
    18    7   21 1
    19    8   14 1
    20    8   22 1
    21    8   23 1
    22    9   14 1
    23   11   14 2
    24   12   14 2
