@<TRIPOS>MOLECULE
*****
   32    33     0     0     0
SMALL
NO_CHARGES

@<TRIPOS>ATOM
      1 C1          4.5868    0.2430   -0.8133 C.1       1 <0>         0.0000
      2 C2          2.6513    1.7475   -1.0326 C.ar      1 <0>         0.0000
      3 C3          2.8704    0.3555    0.9532 C.ar      1 <0>         0.0000
      4 C4          1.4650    2.2681   -0.5225 C.ar      1 <0>         0.0000
      5 C5          1.6869    0.8804    1.4532 C.ar      1 <0>         0.0000
      6 C6         -4.7112    5.2210    1.7425 C.ar      1 <0>         0.0000
      7 C7          3.3630    0.7857   -0.2961 C.ar      1 <0>         0.0000
      8 C8          0.9641    1.8461    0.7229 C.ar      1 <0>         0.0000
      9 C9         -3.6189    4.9665    0.9130 C.ar      1 <0>         0.0000
     10 C10        -4.7899    4.5197    2.9577 C.ar      1 <0>         0.0000
     11 C11        -2.8345    3.4633    2.4361 C.ar      1 <0>         0.0000
     12 C12        -0.2901    2.4280    1.2117 C.2       1 <0>         0.0000
     13 C13        -3.4329    5.6589   -0.4097 C.3       1 <0>         0.0000
     14 C14        -5.9232    4.7239    3.9270 C.3       1 <0>         0.0000
     15 N1          5.5813   -0.1982   -1.2333 N.1       1 <0>         0.0000
     16 N2         -2.6671    4.0785    1.2593 N.ar      1 <0>         0.0000
     17 N3         -3.8500    3.6376    3.3071 N.ar      1 <0>         0.0000
     18 N4         -0.7571    2.0453    2.3557 N.2       1 <0>         0.0000
     19 N5         -1.9070    2.5326    2.8778 N.pl3     1 <0>         0.0000
     20 H1          3.0317    2.0778   -1.9943 H         1 <0>         0.0000
     21 H2          3.4252   -0.3882    1.5175 H         1 <0>         0.0000
     22 H3          0.9164    3.0123   -1.0949 H         1 <0>         0.0000
     23 H4          1.3017    0.5543    2.4136 H         1 <0>         0.0000
     24 H5         -5.4757    5.9367    1.4594 H         1 <0>         0.0000
     25 H6         -0.7891    3.1672    0.5911 H         1 <0>         0.0000
     26 H7         -2.4825    6.2021   -0.4158 H         1 <0>         0.0000
     27 H8         -3.3883    4.9188   -1.2150 H         1 <0>         0.0000
     28 H9         -4.2433    6.3608   -0.6182 H         1 <0>         0.0000
     29 H10        -6.4054    3.7663    4.1452 H         1 <0>         0.0000
     30 H11        -5.5368    5.1144    4.8739 H         1 <0>         0.0000
     31 H12        -6.6700    5.4192    3.5371 H         1 <0>         0.0000
     32 H13        -2.1354    2.1323    3.7791 H         1 <0>         0.0000
@<TRIPOS>BOND
     1    1    7 1
     2    1   15 3
     3    2    4 ar
     4    2    7 ar
     5    2   20 1
     6    3    5 ar
     7    3    7 ar
     8    3   21 1
     9    4    8 ar
    10    4   22 1
    11    5    8 ar
    12    5   23 1
    13    6   10 ar
    14    6    9 ar
    15    6   24 1
    16    8   12 1
    17    9   13 1
    18    9   16 ar
    19   10   14 1
    20   10   17 ar
    21   11   17 ar
    22   11   16 ar
    23   11   19 1
    24   12   18 2
    25   12   25 1
    26   13   26 1
    27   13   27 1
    28   13   28 1
    29   14   29 1
    30   14   30 1
    31   14   31 1
    32   18   19 1
    33   19   32 1
