@<TRIPOS>MOLECULE
*****
   35    37     0     0     0
SMALL
NO_CHARGES

@<TRIPOS>ATOM
      1 C1          7.9105   -2.0988    2.1265 C.1       1 <0>         0.0000
      2 C2          6.9035   -8.4064    3.8796 C.ar      1 <0>         0.0000
      3 C3          0.2816   -1.0227    2.2323 C.ar      1 <0>         0.0000
      4 C4          6.0866   -7.6996    2.9881 C.ar      1 <0>         0.0000
      5 C5          8.0362   -7.7908    4.4226 C.ar      1 <0>         0.0000
      6 C6          0.2757   -0.2570    1.0625 C.ar      1 <0>         0.0000
      7 C7          1.4293   -1.7307    2.5771 C.ar      1 <0>         0.0000
      8 C8          6.3802   -6.3788    2.6589 C.ar      1 <0>         0.0000
      9 C9          8.3444   -6.4760    4.0768 C.ar      1 <0>         0.0000
     10 C10         1.4137   -0.2146    0.2550 C.ar      1 <0>         0.0000
     11 C11         2.5799   -1.6867    1.7667 C.ar      1 <0>         0.0000
     12 C12         7.5073   -5.7391    3.2129 C.ar      1 <0>         0.0000
     13 C13         2.5840   -0.9186    0.5781 C.ar      1 <0>         0.0000
     14 C14         3.7471   -2.4693    2.2077 C.2       1 <0>         0.0000
     15 C15         5.7305   -3.1261    2.4932 C.2       1 <0>         0.0000
     16 C16         7.9130   -4.3746    2.8859 C.2       1 <0>         0.0000
     17 C17         7.1865   -3.2817    2.5131 C.2       1 <0>         0.0000
     18 C18         3.7682   -0.8315   -0.3576 C.3       1 <0>         0.0000
     19 N1          8.5237   -1.1577    1.8173 N.1       1 <0>         0.0000
     20 N2          5.0588   -2.2120    1.8466 N.2       1 <0>         0.0000
     21 N3          3.6222   -3.4943    3.0350 N.2       1 <0>         0.0000
     22 O1          4.9449   -3.9260    3.2413 O.3       1 <0>         0.0000
     23 H1          6.6655   -9.4349    4.1375 H         1 <0>         0.0000
     24 H2         -0.5960   -1.0627    2.8717 H         1 <0>         0.0000
     25 H3          5.2192   -8.1820    2.5463 H         1 <0>         0.0000
     26 H4          8.6825   -8.3373    5.1037 H         1 <0>         0.0000
     27 H5         -0.6102    0.3056    0.7792 H         1 <0>         0.0000
     28 H6          1.4532   -2.3224    3.4867 H         1 <0>         0.0000
     29 H7          5.7475   -5.8553    1.9522 H         1 <0>         0.0000
     30 H8          9.2329   -6.0035    4.4890 H         1 <0>         0.0000
     31 H9          1.3980    0.3788   -0.6559 H         1 <0>         0.0000
     32 H10         8.9861   -4.2018    2.9408 H         1 <0>         0.0000
     33 H11         4.6058   -0.3024    0.1033 H         1 <0>         0.0000
     34 H12         4.1437   -1.8212   -0.6318 H         1 <0>         0.0000
     35 H13         3.4840   -0.3061   -1.2731 H         1 <0>         0.0000
@<TRIPOS>BOND
     1    1   17 1
     2    1   19 3
     3    2    5 ar
     4    2    4 ar
     5    2   23 1
     6    3    6 ar
     7    3    7 ar
     8    3   24 1
     9    4    8 ar
    10    4   25 1
    11    5    9 ar
    12    5   26 1
    13    6   10 ar
    14    6   27 1
    15    7   11 ar
    16    7   28 1
    17    8   12 ar
    18    8   29 1
    19    9   12 ar
    20    9   30 1
    21   10   13 ar
    22   10   31 1
    23   11   13 ar
    24   11   14 1
    25   12   16 1
    26   13   18 1
    27   14   20 1
    28   14   21 2
    29   15   17 1
    30   15   20 2
    31   15   22 1
    32   16   17 2
    33   16   32 1
    34   18   33 1
    35   18   34 1
    36   18   35 1
    37   21   22 1
