@<TRIPOS>MOLECULE
*****
   23    24     0     0     0
SMALL
NO_CHARGES

@<TRIPOS>ATOM
      1 C1          0.1003   -0.8915   -3.7731 C.2       1 <0>         0.0000
      2 C2         -0.2166   -1.4603   -2.5084 C.2       1 <0>         0.0000
      3 C3         -1.0072   -0.7111   -4.5652 C.2       1 <0>         0.0000
      4 C4         -8.0657   -1.7315   -0.6764 C.2       1 <0>         0.0000
      5 C5         -1.5671   -1.7113   -2.3326 C.2       1 <0>         0.0000
      6 C6         -7.4627   -2.6817    0.0982 C.2       1 <0>         0.0000
      7 C7         -5.6637   -1.9989   -0.9935 C.2       1 <0>         0.0000
      8 C8         -2.1340   -2.3236   -1.1400 C.2       1 <0>         0.0000
      9 C9         -8.1461   -3.5570    1.1067 C.3       1 <0>         0.0000
     10 N1         -6.0958   -2.8290   -0.0936 N.2       1 <0>         0.0000
     11 N2         -3.3514   -2.4437   -0.7203 N.2       1 <0>         0.0000
     12 N3         -4.3606   -1.9043   -1.4591 N.pl3     1 <0>         0.0000
     13 S1         -2.4507   -1.2504   -3.7793 S.3       1 <0>         0.0000
     14 S2         -6.8915   -0.9486   -1.7098 S.3       1 <0>         0.0000
     15 H1          1.1047   -0.6283   -4.0874 H         1 <0>         0.0000
     16 H2          0.5178   -1.6813   -1.7401 H         1 <0>         0.0000
     17 H3         -1.0584   -0.3112   -5.5699 H         1 <0>         0.0000
     18 H4         -9.1089   -1.4477   -0.7134 H         1 <0>         0.0000
     19 H5         -1.3985   -2.7629   -0.4677 H         1 <0>         0.0000
     20 H6         -8.0043   -4.6126    0.8526 H         1 <0>         0.0000
     21 H7         -7.7149   -3.4001    2.1010 H         1 <0>         0.0000
     22 H8         -9.2176   -3.3470    1.1517 H         1 <0>         0.0000
     23 H9         -4.1661   -1.1180   -2.0770 H         1 <0>         0.0000
@<TRIPOS>BOND
     1    1    2 1
     2    1    3 2
     3    1   15 1
     4    2    5 2
     5    2   16 1
     6    3   13 1
     7    3   17 1
     8    4    6 2
     9    4   14 1
    10    4   18 1
    11    5    8 1
    12    5   13 1
    13    6    9 1
    14    6   10 1
    15    7   10 2
    16    7   12 1
    17    7   14 1
    18    8   11 2
    19    8   19 1
    20    9   20 1
    21    9   21 1
    22    9   22 1
    23   11   12 1
    24   12   23 1
