@<TRIPOS>MOLECULE
*****
   44    46     0     0     0
SMALL
NO_CHARGES

@<TRIPOS>ATOM
      1 C1          0.9931   -4.6671    1.7911 C.2       1 <0>         0.0000
      2 C2          1.1373   -3.2594   -0.1843 C.2       1 <0>         0.0000
      3 C3          1.3496   -3.4304    1.1709 C.2       1 <0>         0.0000
      4 C4          0.4626   -5.6902    1.0509 C.2       1 <0>         0.0000
      5 C5          0.5532   -4.3103   -0.9964 C.2       1 <0>         0.0000
      6 C6         -1.1092    0.6878    1.8412 C.2       1 <0>         0.0000
      7 C7          1.5937   -2.0010   -0.8708 C.2       1 <0>         0.0000
      8 C8         -1.5264   -0.1328   -1.2220 C.3       1 <0>         0.0000
      9 C9          0.6251    1.1749   -1.2046 C.3       1 <0>         0.0000
     10 C10        -0.7952   -1.4795   -1.4001 C.3       1 <0>         0.0000
     11 C11         1.0332    0.0069   -2.1247 C.3       1 <0>         0.0000
     12 C12        -1.4421    2.1008    0.0259 C.3       1 <0>         0.0000
     13 C13        -0.6630    0.8554   -0.4328 C.3       1 <0>         0.0000
     14 C14         1.9429   -2.3346    2.0215 C.3       1 <0>         0.0000
     15 C15         0.0706   -7.0305    1.6035 C.3       1 <0>         0.0000
     16 C16        -2.6325    2.5886    2.2154 C.3       1 <0>         0.0000
     17 N1          0.2680   -5.4911   -0.2880 N.am      1 <0>         0.0000
     18 N2         -1.9085    1.6900    1.3370 N.am      1 <0>         0.0000
     19 N3          0.6464   -1.2600   -1.5191 N.am      1 <0>         0.0000
     20 O1          0.2902   -4.2556   -2.2052 O.2       1 <0>         0.0000
     21 O2         -1.0831    0.2522    2.9745 O.2       1 <0>         0.0000
     22 O3          2.7825   -1.6641   -0.8329 O.2       1 <0>         0.0000
     23 O4         -0.3084    0.2132    0.8359 O.3       1 <0>         0.0000
     24 H1          1.1428   -4.8037    2.8562 H         1 <0>         0.0000
     25 H2         -1.7555    0.3191   -2.1941 H         1 <0>         0.0000
     26 H3         -2.4801   -0.2978   -0.7110 H         1 <0>         0.0000
     27 H4          1.4140    1.3840   -0.4772 H         1 <0>         0.0000
     28 H5          0.4741    2.0821   -1.8019 H         1 <0>         0.0000
     29 H6         -0.9779   -2.1055   -0.5274 H         1 <0>         0.0000
     30 H7         -1.1720   -2.0133   -2.2790 H         1 <0>         0.0000
     31 H8          0.5377    0.0903   -3.0991 H         1 <0>         0.0000
     32 H9          2.1091   -0.0049   -2.2901 H         1 <0>         0.0000
     33 H10        -0.7902    2.9861    0.0916 H         1 <0>         0.0000
     34 H11        -2.2731    2.3323   -0.6486 H         1 <0>         0.0000
     35 H12         2.9900   -2.1769    1.7490 H         1 <0>         0.0000
     36 H13         1.8822   -2.5868    3.0828 H         1 <0>         0.0000
     37 H14         1.4190   -1.3889    1.8618 H         1 <0>         0.0000
     38 H15        -0.9940   -7.2298    1.4341 H         1 <0>         0.0000
     39 H16         0.2591   -7.0721    2.6774 H         1 <0>         0.0000
     40 H17         0.6411   -7.8341    1.1236 H         1 <0>         0.0000
     41 H18        -2.0670    3.5126    2.4004 H         1 <0>         0.0000
     42 H19        -2.7969    2.0796    3.1660 H         1 <0>         0.0000
     43 H20        -3.5997    2.8494    1.7740 H         1 <0>         0.0000
     44 H21        -0.1320   -6.2278   -0.8617 H         1 <0>         0.0000
@<TRIPOS>BOND
     1    1    3 1
     2    1    4 2
     3    1   24 1
     4    2    3 2
     5    2    5 1
     6    2    7 1
     7    3   14 1
     8    4   15 1
     9    4   17 1
    10    5   17 am
    11    5   20 2
    12    6   18 am
    13    6   21 2
    14    6   23 1
    15    7   19 am
    16    7   22 2
    17    8   10 1
    18    8   13 1
    19    8   25 1
    20    8   26 1
    21    9   11 1
    22    9   13 1
    23    9   27 1
    24    9   28 1
    25   10   19 1
    26   10   29 1
    27   10   30 1
    28   11   19 1
    29   11   31 1
    30   11   32 1
    31   12   13 1
    32   12   18 1
    33   12   33 1
    34   12   34 1
    35   13   23 1
    36   14   35 1
    37   14   36 1
    38   14   37 1
    39   15   38 1
    40   15   39 1
    41   15   40 1
    42   16   18 1
    43   16   41 1
    44   16   42 1
    45   16   43 1
    46   17   44 1
