@<TRIPOS>MOLECULE
*****
   23    24     0     0     0
SMALL
NO_CHARGES

@<TRIPOS>ATOM
      1 C1         -4.4956    0.8446    2.3680 C.2       1 <0>         0.0000
      2 C2         -4.0619    0.0930    1.2421 C.2       1 <0>         0.0000
      3 C3         -4.1434    0.2643    3.5652 C.2       1 <0>         0.0000
      4 C4         -7.4633   -1.5460   -1.1994 C.2       1 <0>         0.0000
      5 C5         -3.3695   -1.0547    1.5888 C.2       1 <0>         0.0000
      6 C6         -6.9832   -2.1925   -0.0968 C.2       1 <0>         0.0000
      7 C7         -5.0345   -1.7506   -1.0611 C.2       1 <0>         0.0000
      8 C8         -2.6927   -2.0559    0.7818 C.2       1 <0>         0.0000
      9 C9         -7.8028   -2.7778    1.0141 C.3       1 <0>         0.0000
     10 N1         -5.6005   -2.3018   -0.0303 N.2       1 <0>         0.0000
     11 N2         -2.7400   -2.3251   -0.4816 N.2       1 <0>         0.0000
     12 N3         -3.6609   -1.6282   -1.2786 N.pl3     1 <0>         0.0000
     13 S1         -3.2650   -1.2006    3.3308 S.3       1 <0>         0.0000
     14 S2         -6.1469   -1.0061   -2.2183 S.3       1 <0>         0.0000
     15 H1         -5.0504    1.7745    2.2983 H         1 <0>         0.0000
     16 H2         -4.2373    0.3903    0.2165 H         1 <0>         0.0000
     17 H3         -4.3598    0.6147    4.5665 H         1 <0>         0.0000
     18 H4         -8.4913   -1.3571   -1.4790 H         1 <0>         0.0000
     19 H5         -1.9674   -2.6774    1.3077 H         1 <0>         0.0000
     20 H6         -7.6068   -3.8509    1.1099 H         1 <0>         0.0000
     21 H7         -7.5345   -2.3102    1.9675 H         1 <0>         0.0000
     22 H8         -8.8713   -2.6304    0.8385 H         1 <0>         0.0000
     23 H9         -3.4123   -1.7761   -2.2513 H         1 <0>         0.0000
@<TRIPOS>BOND
     1    1    2 1
     2    1    3 2
     3    1   15 1
     4    2    5 2
     5    2   16 1
     6    3   13 1
     7    3   17 1
     8    4    6 2
     9    4   14 1
    10    4   18 1
    11    5    8 1
    12    5   13 1
    13    6    9 1
    14    6   10 1
    15    7   10 2
    16    7   12 1
    17    7   14 1
    18    8   11 2
    19    8   19 1
    20    9   20 1
    21    9   21 1
    22    9   22 1
    23   11   12 1
    24   12   23 1
