@<TRIPOS>MOLECULE
*****
   20    21     0     0     0
SMALL
NO_CHARGES

@<TRIPOS>ATOM
      1 C1          1.4673   -1.3718   -0.3301 C.ar      1 <0>         0.0000
      2 C2          0.3942   -0.9167    0.4317 C.ar      1 <0>         0.0000
      3 C3          7.3561   -1.2251   -0.7724 C.2       1 <0>         0.0000
      4 C4          7.0712    0.0171   -0.2519 C.2       1 <0>         0.0000
      5 C5          2.7247   -1.6130    0.2462 C.ar      1 <0>         0.0000
      6 C6          0.5727   -0.7246    1.7993 C.ar      1 <0>         0.0000
      7 C7          2.8658   -1.4260    1.6246 C.ar      1 <0>         0.0000
      8 C8          1.8000   -0.9842    2.4077 C.ar      1 <0>         0.0000
      9 C9          5.1788   -1.4919   -0.5202 C.2       1 <0>         0.0000
     10 C10         3.8311   -2.1197   -0.6375 C.2       1 <0>         0.0000
     11 N1          6.2859   -2.0599   -0.9292 N.2       1 <0>         0.0000
     12 O1          3.6058   -2.9753   -1.4786 O.2       1 <0>         0.0000
     13 F1         -0.4444   -0.2944    2.5654 F         1 <0>         0.0000
     14 F2          4.0232   -1.7098    2.2497 F         1 <0>         0.0000
     15 F3          1.9519   -0.8274    3.7306 F         1 <0>         0.0000
     16 S1          5.3881    0.1495    0.0783 S.3       1 <0>         0.0000
     17 H1          1.3491   -1.5466   -1.3944 H         1 <0>         0.0000
     18 H2         -0.5760   -0.7125   -0.0092 H         1 <0>         0.0000
     19 H3          8.3464   -1.5648   -1.0564 H         1 <0>         0.0000
     20 H4          7.7511    0.8371   -0.0595 H         1 <0>         0.0000
@<TRIPOS>BOND
     1    1    2 ar
     2    1    5 ar
     3    1   17 1
     4    2    6 ar
     5    2   18 1
     6    3    4 2
     7    3   11 1
     8    3   19 1
     9    4   16 1
    10    4   20 1
    11    5    7 ar
    12    5   10 1
    13    6    8 ar
    14    6   13 1
    15    7    8 ar
    16    7   14 1
    17    8   15 1
    18    9   10 1
    19    9   11 2
    20    9   16 1
    21   10   12 2
