@<TRIPOS>MOLECULE
*****
   31    32     0     0     0
SMALL
NO_CHARGES

@<TRIPOS>ATOM
      1 C1          4.1352    1.5754   -1.2067 C.ar      1 <0>         0.0000
      2 C2          4.4386    0.4435   -1.9573 C.ar      1 <0>         0.0000
      3 C3          3.2059    2.5214   -1.6733 C.ar      1 <0>         0.0000
      4 C4          3.8688   -0.7865   -4.1780 C.2       1 <0>         0.0000
      5 C5          2.9746   -0.4941   -5.1602 C.2       1 <0>         0.0000
      6 C6          3.7500    0.2324   -3.1601 C.ar      1 <0>         0.0000
      7 C7          2.7470    1.1470   -3.5945 C.ar      1 <0>         0.0000
      8 C8          2.5309    2.3341   -2.8806 C.ar      1 <0>         0.0000
      9 C9          0.9707    0.9158   -5.3557 C.2       1 <0>         0.0000
     10 C10        -0.8120    2.0059   -7.5342 C.3       1 <0>         0.0000
     11 C11         0.1067    0.0112   -8.7694 C.3       1 <0>         0.0000
     12 C12        -1.3554   -0.3548   -6.7497 C.3       1 <0>         0.0000
     13 C13        -0.3224    0.5616   -7.4091 C.3       1 <0>         0.0000
     14 N1          2.2588    0.6741   -4.8262 N.am      1 <0>         0.0000
     15 O1          0.0561    1.3806   -4.7119 O.2       1 <0>         0.0000
     16 O2          0.9471    0.5280   -6.6414 O.3       1 <0>         0.0000
     17 Br1         1.4956    3.8004   -3.5461 Br        1 <0>         0.0000
     18 H1          4.6463    1.7618   -0.2662 H         1 <0>         0.0000
     19 H2          5.2003   -0.2581   -1.6286 H         1 <0>         0.0000
     20 H3          3.0333    3.4331   -1.1111 H         1 <0>         0.0000
     21 H4          4.5485   -1.6290   -4.1692 H         1 <0>         0.0000
     22 H5          2.7337   -1.0140   -6.0747 H         1 <0>         0.0000
     23 H6         -1.1224    2.4075   -6.5694 H         1 <0>         0.0000
     24 H7         -0.0216    2.6411   -7.9456 H         1 <0>         0.0000
     25 H8         -1.6657    2.0370   -8.2189 H         1 <0>         0.0000
     26 H9          0.4937   -1.0074   -8.6711 H         1 <0>         0.0000
     27 H10         0.8870    0.6383   -9.2101 H         1 <0>         0.0000
     28 H11        -0.7494   -0.0080   -9.4498 H         1 <0>         0.0000
     29 H12        -0.9424   -1.3592   -6.6116 H         1 <0>         0.0000
     30 H13        -1.6779    0.0331   -5.7830 H         1 <0>         0.0000
     31 H14        -2.2309   -0.4355   -7.4019 H         1 <0>         0.0000
@<TRIPOS>BOND
     1    1    2 ar
     2    1    3 ar
     3    1   18 1
     4    2    6 ar
     5    2   19 1
     6    3    8 ar
     7    3   20 1
     8    4    5 2
     9    4    6 1
    10    4   21 1
    11    5   14 1
    12    5   22 1
    13    6    7 ar
    14    7    8 ar
    15    7   14 1
    16    8   17 1
    17    9   14 am
    18    9   15 2
    19    9   16 1
    20   10   13 1
    21   10   23 1
    22   10   24 1
    23   10   25 1
    24   11   13 1
    25   11   26 1
    26   11   27 1
    27   11   28 1
    28   12   13 1
    29   12   29 1
    30   12   30 1
    31   12   31 1
    32   13   16 1
