@<TRIPOS>MOLECULE
*****
   41    42     0     0     0
SMALL
NO_CHARGES

@<TRIPOS>ATOM
      1 C1          0.8023   -1.4884    0.8702 C.2       1 <0>         0.0000
      2 C2         -0.4621    0.3816   -3.1347 C.3       1 <0>         0.0000
      3 C3         -0.4344    1.8156   -2.5399 C.3       1 <0>         0.0000
      4 C4         -0.0069   -0.5573   -1.9978 C.3       1 <0>         0.0000
      5 C5          0.0015    1.6496   -1.0710 C.3       1 <0>         0.0000
      6 C6         -1.4580    0.5249    1.9812 C.3       1 <0>         0.0000
      7 C7          0.0411    0.6296    1.6941 C.3       1 <0>         0.0000
      8 C8         -1.8625    0.0543   -0.3690 C.3       1 <0>         0.0000
      9 C9         -0.3590    0.1883   -0.6936 C.3       1 <0>         0.0000
     10 C10         0.4351   -4.4994    0.9864 C.3       1 <0>         0.0000
     11 C11         1.0566   -4.2907   -1.4426 C.3       1 <0>         0.0000
     12 C12         2.7600   -3.7110    0.3161 C.3       1 <0>         0.0000
     13 C13         1.2700   -3.7233   -0.0365 C.3       1 <0>         0.0000
     14 N1         -2.2129    0.8990    0.7783 N.3       1 <0>         0.0000
     15 N2          0.3872   -0.2139    0.5346 N.am      1 <0>         0.0000
     16 O1          1.1866   -1.7957    1.9957 O.2       1 <0>         0.0000
     17 O2          0.7642   -2.3480   -0.1746 O.3       1 <0>         0.0000
     18 H1         -1.4708    0.1210   -3.4710 H         1 <0>         0.0000
     19 H2          0.1905    0.2818   -4.0069 H         1 <0>         0.0000
     20 H3          0.2498    2.4747   -3.0818 H         1 <0>         0.0000
     21 H4         -1.4243    2.2786   -2.5966 H         1 <0>         0.0000
     22 H5         -0.4664   -1.5432   -2.0596 H         1 <0>         0.0000
     23 H6          1.0755   -0.7036   -2.0342 H         1 <0>         0.0000
     24 H7          1.0870    1.7609   -0.9716 H         1 <0>         0.0000
     25 H8         -0.4798    2.3797   -0.4201 H         1 <0>         0.0000
     26 H9         -1.6732   -0.5060    2.3153 H         1 <0>         0.0000
     27 H10        -1.7275    1.2075    2.7946 H         1 <0>         0.0000
     28 H11         0.3145    1.6633    1.4751 H         1 <0>         0.0000
     29 H12         0.6206    0.2900    2.5496 H         1 <0>         0.0000
     30 H13        -2.4640    0.3728   -1.2261 H         1 <0>         0.0000
     31 H14        -2.0680   -1.0175   -0.1925 H         1 <0>         0.0000
     32 H15         0.5885   -4.1153    1.9947 H         1 <0>         0.0000
     33 H16        -0.6288   -4.4287    0.7369 H         1 <0>         0.0000
     34 H17         0.7202   -5.5566    0.9612 H         1 <0>         0.0000
     35 H18         1.6141   -3.7084   -2.1821 H         1 <0>         0.0000
     36 H19        -0.0038   -4.2662   -1.7117 H         1 <0>         0.0000
     37 H20         1.4008   -5.3284   -1.4851 H         1 <0>         0.0000
     38 H21         3.3139   -3.0985   -0.4029 H         1 <0>         0.0000
     39 H22         2.9259   -3.3171    1.3188 H         1 <0>         0.0000
     40 H23         3.1533   -4.7320    0.2671 H         1 <0>         0.0000
     41 H24        -3.2106    0.8272    0.9613 H         1 <0>         0.0000
@<TRIPOS>BOND
     1    1   15 am
     2    1   16 2
     3    1   17 1
     4    2    3 1
     5    2    4 1
     6    2   18 1
     7    2   19 1
     8    3    5 1
     9    3   20 1
    10    3   21 1
    11    4    9 1
    12    4   22 1
    13    4   23 1
    14    5    9 1
    15    5   24 1
    16    5   25 1
    17    6    7 1
    18    6   14 1
    19    6   26 1
    20    6   27 1
    21    7   15 1
    22    7   28 1
    23    7   29 1
    24    8    9 1
    25    8   14 1
    26    8   30 1
    27    8   31 1
    28    9   15 1
    29   10   13 1
    30   10   32 1
    31   10   33 1
    32   10   34 1
    33   11   13 1
    34   11   35 1
    35   11   36 1
    36   11   37 1
    37   12   13 1
    38   12   38 1
    39   12   39 1
    40   12   40 1
    41   13   17 1
    42   14   41 1
