@<TRIPOS>MOLECULE
*****
   32    34     0     0     0
SMALL
NO_CHARGES

@<TRIPOS>ATOM
      1 C1          5.2701   -3.9309   -4.8711 C.1       1 <0>         0.0000
      2 C2          1.7576   -1.4585   -0.2097 C.ar      1 <0>         0.0000
      3 C3          1.1796   -0.1858   -0.1113 C.ar      1 <0>         0.0000
      4 C4          6.1075   -4.0322   -2.5584 C.ar      1 <0>         0.0000
      5 C5          5.0912   -1.9775   -3.3847 C.ar      1 <0>         0.0000
      6 C6          6.3198   -3.4225   -1.3250 C.ar      1 <0>         0.0000
      7 C7          5.2855   -1.3860   -2.1400 C.ar      1 <0>         0.0000
      8 C8          3.1031   -1.6336    0.1055 C.ar      1 <0>         0.0000
      9 C9          1.9449    0.8978    0.3152 C.ar      1 <0>         0.0000
     10 C10         5.4893   -3.3096   -3.5942 C.ar      1 <0>         0.0000
     11 C11         5.8910   -2.1074   -1.1007 C.ar      1 <0>         0.0000
     12 C12         3.8987   -0.5409    0.4801 C.ar      1 <0>         0.0000
     13 C13         3.3010    0.7280    0.6175 C.ar      1 <0>         0.0000
     14 C14         6.2146   -1.4788    0.2255 C.2       1 <0>         0.0000
     15 C15         5.7032    0.2810    1.8542 C.3       1 <0>         0.0000
     16 C16         5.3773    1.6797    1.3507 C.3       1 <0>         0.0000
     17 N1          5.0895   -4.4355   -5.9060 N.1       1 <0>         0.0000
     18 N2          5.2716   -0.6657    0.8242 N.am      1 <0>         0.0000
     19 O1          7.3224   -1.6588    0.7325 O.2       1 <0>         0.0000
     20 O2          3.9764    1.8325    1.0690 O.3       1 <0>         0.0000
     21 H1          1.1610   -2.3128   -0.5150 H         1 <0>         0.0000
     22 H2          0.1297   -0.0409   -0.3497 H         1 <0>         0.0000
     23 H3          6.4235   -5.0562   -2.7310 H         1 <0>         0.0000
     24 H4          4.6284   -1.4203   -4.1931 H         1 <0>         0.0000
     25 H5          6.8241   -3.9559   -0.5254 H         1 <0>         0.0000
     26 H6          4.9639   -0.3624   -1.9797 H         1 <0>         0.0000
     27 H7          3.5485   -2.6213    0.0562 H         1 <0>         0.0000
     28 H8          1.5153    1.8894    0.4231 H         1 <0>         0.0000
     29 H9          6.7745    0.1616    2.0118 H         1 <0>         0.0000
     30 H10         5.1790    0.0718    2.7928 H         1 <0>         0.0000
     31 H11         5.6143    2.4391    2.0996 H         1 <0>         0.0000
     32 H12         5.9497    1.8879    0.4386 H         1 <0>         0.0000
@<TRIPOS>BOND
     1    1   10 1
     2    1   17 3
     3    2    3 ar
     4    2    8 ar
     5    2   21 1
     6    3    9 ar
     7    3   22 1
     8    4    6 ar
     9    4   10 ar
    10    4   23 1
    11    5    7 ar
    12    5   10 ar
    13    5   24 1
    14    6   11 ar
    15    6   25 1
    16    7   11 ar
    17    7   26 1
    18    8   12 ar
    19    8   27 1
    20    9   13 ar
    21    9   28 1
    22   11   14 1
    23   12   13 ar
    24   12   18 1
    25   13   20 1
    26   14   18 am
    27   14   19 2
    28   15   16 1
    29   15   18 1
    30   15   29 1
    31   15   30 1
    32   16   20 1
    33   16   31 1
    34   16   32 1
