@<TRIPOS>MOLECULE
*****
   38    39     0     0     0
SMALL
NO_CHARGES

@<TRIPOS>ATOM
      1 C1          5.5497   -0.2331    5.5186 C.ar      1 <0>         0.0000
      2 C2          5.1593    0.5442    4.4335 C.ar      1 <0>         0.0000
      3 C3          3.5058   -1.5123    5.3291 C.ar      1 <0>         0.0000
      4 C4          4.7287   -1.2775    5.9771 C.ar      1 <0>         0.0000
      5 C5          3.9367    0.3098    3.7900 C.ar      1 <0>         0.0000
      6 C6          3.0974   -0.7229    4.2530 C.ar      1 <0>         0.0000
      7 C7          5.1959   -2.1014    7.1363 C.2       1 <0>         0.0000
      8 C8          0.0956    1.4595    3.1932 C.3       1 <0>         0.0000
      9 C9         -0.5333    0.2410    2.4539 C.3       1 <0>         0.0000
     10 C10         0.5964    0.9189    4.5553 C.3       1 <0>         0.0000
     11 C11        -0.4802   -0.9303    3.4610 C.3       1 <0>         0.0000
     12 C12         0.7037   -0.5971    4.3647 C.3       1 <0>         0.0000
     13 C13         4.8991   -3.9874    8.8240 C.3       1 <0>         0.0000
     14 C14         3.3857    0.5187    1.4820 C.3       1 <0>         0.0000
     15 C15         4.3054   -3.2349    7.6342 C.3       1 <0>         0.0000
     16 O1          6.2735   -1.8678    7.6744 O.2       1 <0>         0.0000
     17 O2          1.8989   -0.9616    3.6177 O.3       1 <0>         0.0000
     18 O3          3.5705    1.1444    2.7643 O.3       1 <0>         0.0000
     19 H1          6.4939   -0.0561    6.0235 H         1 <0>         0.0000
     20 H2          5.7837    1.3527    4.0639 H         1 <0>         0.0000
     21 H3          2.8451   -2.3117    5.6485 H         1 <0>         0.0000
     22 H4          0.9308    1.8702    2.6225 H         1 <0>         0.0000
     23 H5         -0.6277    2.2680    3.3333 H         1 <0>         0.0000
     24 H6         -1.5556    0.4386    2.1188 H         1 <0>         0.0000
     25 H7          0.0522   -0.0071    1.5643 H         1 <0>         0.0000
     26 H8          1.5394    1.3678    4.8766 H         1 <0>         0.0000
     27 H9         -0.1392    1.1080    5.3460 H         1 <0>         0.0000
     28 H10        -1.3870   -0.9541    4.0763 H         1 <0>         0.0000
     29 H11        -0.3681   -1.9099    2.9889 H         1 <0>         0.0000
     30 H12         0.6999   -1.1510    5.3108 H         1 <0>         0.0000
     31 H13         5.8652   -4.4286    8.5658 H         1 <0>         0.0000
     32 H14         5.0651   -3.3149    9.6696 H         1 <0>         0.0000
     33 H15         4.2245   -4.7883    9.1429 H         1 <0>         0.0000
     34 H16         3.1312    1.3245    0.7910 H         1 <0>         0.0000
     35 H17         2.5806   -0.2183    1.5138 H         1 <0>         0.0000
     36 H18         4.3185    0.0411    1.1586 H         1 <0>         0.0000
     37 H19         3.3250   -2.8139    7.8930 H         1 <0>         0.0000
     38 H20         4.1197   -3.9198    6.7967 H         1 <0>         0.0000
@<TRIPOS>BOND
     1    1    2 ar
     2    1    4 ar
     3    1   19 1
     4    2    5 ar
     5    2   20 1
     6    3    4 ar
     7    3    6 ar
     8    3   21 1
     9    4    7 1
    10    5    6 ar
    11    5   18 1
    12    6   17 1
    13    7   15 1
    14    7   16 2
    15    8    9 1
    16    8   10 1
    17    8   22 1
    18    8   23 1
    19    9   11 1
    20    9   24 1
    21    9   25 1
    22   10   12 1
    23   10   26 1
    24   10   27 1
    25   11   12 1
    26   11   28 1
    27   11   29 1
    28   12   17 1
    29   12   30 1
    30   13   15 1
    31   13   31 1
    32   13   32 1
    33   13   33 1
    34   14   18 1
    35   14   34 1
    36   14   35 1
    37   14   36 1
    38   15   37 1
    39   15   38 1
