@<TRIPOS>MOLECULE
*****
   28    29     0     0     0
SMALL
NO_CHARGES

@<TRIPOS>ATOM
      1 C1         -3.1757    3.4059    2.8333 C.ar      1 <0>         0.0000
      2 C2         -3.9569    2.9056    3.8765 C.ar      1 <0>         0.0000
      3 C3         -1.9129    2.8597    2.5877 C.ar      1 <0>         0.0000
      4 C4         -3.4699    1.8628    4.6687 C.ar      1 <0>         0.0000
      5 C5         -1.3978    1.8103    3.3618 C.ar      1 <0>         0.0000
      6 C6         -2.2077    1.3282    4.4056 C.ar      1 <0>         0.0000
      7 C7          0.6933   -1.0704    2.3386 C.2       1 <0>         0.0000
      8 C8          1.8819   -2.8685    1.8821 C.3       1 <0>         0.0000
      9 C9          2.5396   -2.1206    3.0709 C.3       1 <0>         0.0000
     10 C10         0.9199    2.0800    2.2734 C.3       1 <0>         0.0000
     11 C11        -0.0405    1.1866    3.0692 C.3       1 <0>         0.0000
     12 N1          0.7837   -1.9933    1.4514 N.2       1 <0>         0.0000
     13 N2         -0.2755   -0.1060    2.4074 N.pl3     1 <0>         0.0000
     14 O1          1.6073   -1.0441    3.3632 O.3       1 <0>         0.0000
     15 Cl1        -1.6457    0.0206    5.4377 Cl        1 <0>         0.0000
     16 H1         -3.5441    4.2186    2.2135 H         1 <0>         0.0000
     17 H2         -4.9398    3.3216    4.0803 H         1 <0>         0.0000
     18 H3         -1.3144    3.2632    1.7775 H         1 <0>         0.0000
     19 H4         -4.0611    1.4637    5.4868 H         1 <0>         0.0000
     20 H5          2.5884   -3.0350    1.0621 H         1 <0>         0.0000
     21 H6          1.4901   -3.8483    2.1833 H         1 <0>         0.0000
     22 H7          2.6494   -2.7216    3.9759 H         1 <0>         0.0000
     23 H8          3.5029   -1.6680    2.8154 H         1 <0>         0.0000
     24 H9          0.5615    2.2631    1.2555 H         1 <0>         0.0000
     25 H10         1.0681    3.0439    2.7710 H         1 <0>         0.0000
     26 H11         1.8895    1.5803    2.1983 H         1 <0>         0.0000
     27 H12         0.4330    0.9540    4.0245 H         1 <0>         0.0000
     28 H13        -0.8543   -0.0807    1.5756 H         1 <0>         0.0000
@<TRIPOS>BOND
     1    1    2 ar
     2    1    3 ar
     3    1   16 1
     4    2    4 ar
     5    2   17 1
     6    3    5 ar
     7    3   18 1
     8    4    6 ar
     9    4   19 1
    10    5    6 ar
    11    5   11 1
    12    6   15 1
    13    7   12 2
    14    7   13 1
    15    7   14 1
    16    8    9 1
    17    8   12 1
    18    8   20 1
    19    8   21 1
    20    9   14 1
    21    9   22 1
    22    9   23 1
    23   10   11 1
    24   10   24 1
    25   10   25 1
    26   10   26 1
    27   11   13 1
    28   11   27 1
    29   13   28 1
