@<TRIPOS>MOLECULE
*****
   32    33     0     0     0
SMALL
NO_CHARGES

@<TRIPOS>ATOM
      1 C1         -0.8174   -2.7342    1.5768 C.ar      1 <0>         0.0000
      2 C2         -0.5456   -1.4472    1.1169 C.ar      1 <0>         0.0000
      3 C3          1.1076   -2.3563   -0.3937 C.ar      1 <0>         0.0000
      4 C4         -0.1388   -3.8632    1.0786 C.ar      1 <0>         0.0000
      5 C5          0.8318   -3.6465    0.0751 C.ar      1 <0>         0.0000
      6 C6          0.4228   -1.2511    0.1266 C.ar      1 <0>         0.0000
      7 C7          0.5251   -6.1951    1.3336 C.2       1 <0>         0.0000
      8 C8         -0.3967   -5.2384    1.5756 C.2       1 <0>         0.0000
      9 C9         -2.2250   -6.9543    2.1914 C.2       1 <0>         0.0000
     10 C10         1.5239   -4.8503   -0.5225 C.3       1 <0>         0.0000
     11 C11         1.7812   -5.9191    0.5432 C.3       1 <0>         0.0000
     12 C12        -1.3200   -5.2924    3.9119 C.3       1 <0>         0.0000
     13 C13         1.5983    0.2806   -1.2855 C.3       1 <0>         0.0000
     14 C14        -1.6343   -5.5085    2.4180 C.3       1 <0>         0.0000
     15 O1         -3.3036   -6.9959    1.5437 O.co2     1 <0>         0.0000
     16 O2         -1.5562   -7.9053    2.6934 O.co2     1 <0>         0.0000
     17 O3          0.6337    0.0575   -0.2724 O.3       1 <0>         0.0000
     18 H1         -1.5726   -2.8635    2.3443 H         1 <0>         0.0000
     19 H2         -1.0739   -0.5840    1.5133 H         1 <0>         0.0000
     20 H3          1.8579   -2.2362   -1.1697 H         1 <0>         0.0000
     21 H4          0.3505   -7.1852    1.7480 H         1 <0>         0.0000
     22 H5          0.8628   -5.2818   -1.2892 H         1 <0>         0.0000
     23 H6          2.4526   -4.5521   -1.0247 H         1 <0>         0.0000
     24 H7          2.5867   -5.5834    1.2185 H         1 <0>         0.0000
     25 H8          2.1413   -6.8392    0.0674 H         1 <0>         0.0000
     26 H9         -0.6395   -6.0808    4.2448 H         1 <0>         0.0000
     27 H10        -2.2373   -5.3639    4.5096 H         1 <0>         0.0000
     28 H11        -0.8553   -4.3160    4.1081 H         1 <0>         0.0000
     29 H12         1.6129    1.3593   -1.4591 H         1 <0>         0.0000
     30 H13         1.3319   -0.2312   -2.2206 H         1 <0>         0.0000
     31 H14         2.5995   -0.0475   -0.9737 H         1 <0>         0.0000
     32 H15        -2.4233   -4.8167    2.1084 H         1 <0>         0.0000
@<TRIPOS>BOND
     1    1    2 ar
     2    1    4 ar
     3    1   18 1
     4    2    6 ar
     5    2   19 1
     6    3    5 ar
     7    3    6 ar
     8    3   20 1
     9    4    5 ar
    10    4    8 1
    11    5   10 1
    12    6   17 1
    13    7    8 2
    14    7   11 1
    15    7   21 1
    16    8   14 1
    17    9   14 1
    18    9   15 1
    19    9   16 2
    20   10   11 1
    21   10   22 1
    22   10   23 1
    23   11   24 1
    24   11   25 1
    25   12   14 1
    26   12   26 1
    27   12   27 1
    28   12   28 1
    29   13   17 1
    30   13   29 1
    31   13   30 1
    32   13   31 1
    33   14   32 1
