@<TRIPOS>MOLECULE
*****
   35    37     0     0     0
SMALL
NO_CHARGES

@<TRIPOS>ATOM
      1 C1          3.6354   -1.1206    3.6476 C.ar      1 <0>         0.0000
      2 C2          2.6569   -2.0725    3.9525 C.ar      1 <0>         0.0000
      3 C3          4.0118   -0.9256    2.3145 C.ar      1 <0>         0.0000
      4 C4          0.9715    2.5053    0.4064 C.ar      1 <0>         0.0000
      5 C5          1.2465    1.8839    1.6313 C.ar      1 <0>         0.0000
      6 C6          2.0635   -2.8214    2.9314 C.ar      1 <0>         0.0000
      7 C7          3.4167   -1.6793    1.3006 C.ar      1 <0>         0.0000
      8 C8          0.2585    1.8207   -0.5817 C.ar      1 <0>         0.0000
      9 C9          0.8237    0.5717    1.8669 C.ar      1 <0>         0.0000
     10 C10         2.4346   -2.6373    1.5933 C.ar      1 <0>         0.0000
     11 C11        -0.1753    0.5066   -0.3623 C.ar      1 <0>         0.0000
     12 C12         0.1309   -0.1055    0.8686 C.ar      1 <0>         0.0000
     13 C13        -1.0890   -1.4305   -1.1736 C.2       1 <0>         0.0000
     14 C14        -0.3735   -2.2017   -0.0756 C.3       1 <0>         0.0000
     15 C15         1.8119   -3.4607    0.4839 C.3       1 <0>         0.0000
     16 C16         1.0122   -2.6581   -0.5601 C.3       1 <0>         0.0000
     17 N1         -0.9570   -0.1585   -1.3252 N.2       1 <0>         0.0000
     18 N2         -1.7991   -2.1829   -2.0910 N.pl3     1 <0>         0.0000
     19 O1         -0.3100   -1.3928    1.1046 O.3       1 <0>         0.0000
     20 H1          4.0964   -0.5350    4.4389 H         1 <0>         0.0000
     21 H2          2.3519   -2.2292    4.9843 H         1 <0>         0.0000
     22 H3          4.7636   -0.1818    2.0635 H         1 <0>         0.0000
     23 H4          1.3054    3.5234    0.2243 H         1 <0>         0.0000
     24 H5          1.8000    2.4136    2.4020 H         1 <0>         0.0000
     25 H6          1.2923   -3.5481    3.1767 H         1 <0>         0.0000
     26 H7          3.7164   -1.5139    0.2678 H         1 <0>         0.0000
     27 H8          0.0152    2.2901   -1.5310 H         1 <0>         0.0000
     28 H9          1.0451    0.0601    2.7978 H         1 <0>         0.0000
     29 H10        -0.9587   -3.0777    0.2248 H         1 <0>         0.0000
     30 H11         2.6115   -3.9901   -0.0486 H         1 <0>         0.0000
     31 H12         1.1684   -4.2351    0.9175 H         1 <0>         0.0000
     32 H13         1.5822   -1.7810   -0.8830 H         1 <0>         0.0000
     33 H14         0.8538   -3.2746   -1.4524 H         1 <0>         0.0000
     34 H15        -2.3659   -1.6259   -2.7233 H         1 <0>         0.0000
     35 H16        -2.2691   -3.0061   -1.7339 H         1 <0>         0.0000
@<TRIPOS>BOND
     1    1    3 ar
     2    1    2 ar
     3    1   20 1
     4    2    6 ar
     5    2   21 1
     6    3    7 ar
     7    3   22 1
     8    4    5 ar
     9    4    8 ar
    10    4   23 1
    11    5    9 ar
    12    5   24 1
    13    6   10 ar
    14    6   25 1
    15    7   10 ar
    16    7   26 1
    17    8   11 ar
    18    8   27 1
    19    9   12 ar
    20    9   28 1
    21   10   15 1
    22   11   12 ar
    23   11   17 1
    24   12   19 1
    25   13   14 1
    26   13   17 2
    27   13   18 1
    28   14   16 1
    29   14   19 1
    30   14   29 1
    31   15   16 1
    32   15   30 1
    33   15   31 1
    34   16   32 1
    35   16   33 1
    36   18   34 1
    37   18   35 1
