@<TRIPOS>MOLECULE
*****
   29    30     0     0     0
SMALL
NO_CHARGES

@<TRIPOS>ATOM
      1 C1         -0.4698   -1.8243    0.3834 C.ar      1 <0>         0.0000
      2 C2          3.8971   -4.2922   -0.3067 C.ar      1 <0>         0.0000
      3 C3         -0.0195   -3.0662    0.7781 C.ar      1 <0>         0.0000
      4 C4          3.4506   -3.0499   -0.6951 C.ar      1 <0>         0.0000
      5 C5          0.3573   -0.9566   -0.3698 C.ar      1 <0>         0.0000
      6 C6          3.0740   -5.1626    0.4526 C.ar      1 <0>         0.0000
      7 C7          2.1412   -2.6285   -0.3366 C.ar      1 <0>         0.0000
      8 C8          1.2911   -3.4874    0.4261 C.ar      1 <0>         0.0000
      9 C9          1.6334   -1.3516   -0.7217 C.ar      1 <0>         0.0000
     10 C10         1.8017   -4.7664    0.8137 C.ar      1 <0>         0.0000
     11 C11         1.4812   -7.8210    0.9440 C.2       1 <0>         0.0000
     12 C12         0.3072   -7.2268    3.0761 C.3       1 <0>         0.0000
     13 C13         1.3607   -6.7693    2.0655 C.3       1 <0>         0.0000
     14 O1          0.8538   -7.7959   -0.0817 O.2       1 <0>         0.0000
     15 O2          2.4822   -0.5546   -1.4528 O.3       1 <0>         0.0000
     16 O3          2.3318   -8.8561    1.2224 O.3       1 <0>         0.0000
     17 O4          0.9299   -5.5230    1.5633 O.3       1 <0>         0.0000
     18 H1         -1.4725   -1.4990    0.6471 H         1 <0>         0.0000
     19 H2          4.8929   -4.6261   -0.5851 H         1 <0>         0.0000
     20 H3         -0.6551   -3.7329    1.3485 H         1 <0>         0.0000
     21 H4          4.0799   -2.3859   -1.2766 H         1 <0>         0.0000
     22 H5         -0.0156    0.0208   -0.6726 H         1 <0>         0.0000
     23 H6          3.4640   -6.1384    0.7188 H         1 <0>         0.0000
     24 H7         -0.6611   -7.3233    2.5791 H         1 <0>         0.0000
     25 H8          0.2245   -6.4876    3.8766 H         1 <0>         0.0000
     26 H9          0.5747   -8.1931    3.5141 H         1 <0>         0.0000
     27 H10         2.3327   -6.6486    2.5680 H         1 <0>         0.0000
     28 H11         2.0259    0.2751   -1.6645 H         1 <0>         0.0000
     29 H12         2.7776   -8.7077    2.0741 H         1 <0>         0.0000
@<TRIPOS>BOND
     1    1    3 ar
     2    1    5 ar
     3    1   18 1
     4    2    4 ar
     5    2    6 ar
     6    2   19 1
     7    3    8 ar
     8    3   20 1
     9    4    7 ar
    10    4   21 1
    11    5    9 ar
    12    5   22 1
    13    6   10 ar
    14    6   23 1
    15    7    8 ar
    16    7    9 ar
    17    8   10 ar
    18    9   15 1
    19   10   17 1
    20   11   13 1
    21   11   14 2
    22   11   16 1
    23   12   13 1
    24   12   24 1
    25   12   25 1
    26   12   26 1
    27   13   17 1
    28   13   27 1
    29   15   28 1
    30   16   29 1
