@<TRIPOS>MOLECULE
*****
   14    14     0     0     0
SMALL
NO_CHARGES

@<TRIPOS>ATOM
      1 C1          0.7749   -3.1955    0.5447 C.2       1 <0>         0.0000
      2 C2          0.2858   -1.9544    0.1894 C.2       1 <0>         0.0000
      3 C3          0.5919   -0.5814    0.7142 C.3       1 <0>         0.0000
      4 N1          0.2576   -4.2669   -0.1663 N.2       1 <0>         0.0000
      5 N2         -0.6263   -3.8698   -1.0678 N.2       1 <0>         0.0000
      6 N3          2.2076    1.0624    1.1061 N.3       1 <0>         0.0000
      7 N4          2.0000   -0.2416    0.5631 N.3       1 <0>         0.0000
      8 S1         -0.8473   -2.2093   -1.0737 S.3       1 <0>         0.0000
      9 H1          1.5105   -3.3819    1.3154 H         1 <0>         0.0000
     10 H2          0.0036    0.1749    0.1833 H         1 <0>         0.0000
     11 H3          0.3405   -0.5018    1.7771 H         1 <0>         0.0000
     12 H4          1.9877    1.0550    2.1018 H         1 <0>         0.0000
     13 H5          3.1988    1.2908    1.0416 H         1 <0>         0.0000
     14 H6          2.5695   -0.9128    1.0771 H         1 <0>         0.0000
@<TRIPOS>BOND
     1    1    2 2
     2    1    4 1
     3    1    9 1
     4    2    3 1
     5    2    8 1
     6    3    7 1
     7    3   10 1
     8    3   11 1
     9    4    5 2
    10    5    8 1
    11    6    7 1
    12    6   12 1
    13    6   13 1
    14    7   14 1
