@<TRIPOS>MOLECULE
*****
   21    22     0     0     0
SMALL
NO_CHARGES

@<TRIPOS>ATOM
      1 C1         -1.6713   -1.2230    0.5748 C.ar      1 <0>         0.0000
      2 C2         -0.3611   -1.0155    0.1421 C.ar      1 <0>         0.0000
      3 C3         -2.1667   -2.5170    0.7686 C.ar      1 <0>         0.0000
      4 C4          0.4989   -2.0901   -0.1118 C.ar      1 <0>         0.0000
      5 C5         -1.3143   -3.6032    0.5177 C.ar      1 <0>         0.0000
      6 C6         -0.0111   -3.3779    0.0867 C.ar      1 <0>         0.0000
      7 C7          1.8149   -4.9425   -0.4700 C.2       1 <0>         0.0000
      8 C8          3.3098   -6.8506   -0.9096 C.3       1 <0>         0.0000
      9 N1         -1.5367   -4.9450    0.6247 N.2       1 <0>         0.0000
     10 N2         -0.4244   -5.5760    0.2777 N.2       1 <0>         0.0000
     11 N3          0.5131   -4.6516   -0.0521 N.am      1 <0>         0.0000
     12 N4          2.0368   -6.3027   -0.5079 N.am      1 <0>         0.0000
     13 O1          2.5834   -4.0339   -0.7441 O.2       1 <0>         0.0000
     14 H1         -2.3165   -0.3690    0.7635 H         1 <0>         0.0000
     15 H2         -0.0003    0.0001   -0.0012 H         1 <0>         0.0000
     16 H3         -3.1869   -2.6708    1.1054 H         1 <0>         0.0000
     17 H4          1.5144   -1.9147   -0.4473 H         1 <0>         0.0000
     18 H5          3.3222   -7.0196   -1.9895 H         1 <0>         0.0000
     19 H6          3.4886   -7.8026   -0.4024 H         1 <0>         0.0000
     20 H7          4.1170   -6.1595   -0.6523 H         1 <0>         0.0000
     21 H8          1.2978   -6.9501   -0.2486 H         1 <0>         0.0000
@<TRIPOS>BOND
     1    1    2 ar
     2    1    3 ar
     3    1   14 1
     4    2    4 ar
     5    2   15 1
     6    3    5 ar
     7    3   16 1
     8    4    6 ar
     9    4   17 1
    10    5    6 ar
    11    5    9 1
    12    6   11 1
    13    7   11 am
    14    7   12 am
    15    7   13 2
    16    8   12 1
    17    8   18 1
    18    8   19 1
    19    8   20 1
    20    9   10 2
    21   10   11 1
    22   12   21 1
