@<TRIPOS>MOLECULE
*****
   28    30     0     0     0
SMALL
NO_CHARGES

@<TRIPOS>ATOM
      1 C1         -1.1693    1.6186   -1.7986 C.ar      1 <0>         0.0000
      2 C2         -0.5281    2.6522   -1.0993 C.ar      1 <0>         0.0000
      3 C3         -0.2246    0.0832   -0.1563 C.ar      1 <0>         0.0000
      4 C4          0.4379    1.0976    0.5471 C.ar      1 <0>         0.0000
      5 C5         -0.1945   -1.3190    0.1216 C.2       1 <0>         0.0000
      6 C6         -1.0057    0.3171   -1.3105 C.ar      1 <0>         0.0000
      7 C7          0.2504    2.3741    0.0395 C.ar      1 <0>         0.0000
      8 C8         -0.9325   -1.9263   -0.8691 C.2       1 <0>         0.0000
      9 C9          1.9116   -2.5437    0.8604 C.2       1 <0>         0.0000
     10 C10         1.3033    0.6476    1.7010 C.3       1 <0>         0.0000
     11 C11         0.7757   -0.6696    2.3176 C.3       1 <0>         0.0000
     12 C12         0.5713   -1.8294    1.3102 C.3       1 <0>         0.0000
     13 C13        -1.1906   -3.3764   -1.1149 C.3       1 <0>         0.0000
     14 N1         -1.4787   -0.9295   -1.7126 N.pl3     1 <0>         0.0000
     15 O1          2.9891   -1.9980    1.2149 O.co2     1 <0>         0.0000
     16 O2          1.7289   -3.6050    0.1994 O.co2     1 <0>         0.0000
     17 F1          0.8596    3.4455    0.6591 F         1 <0>         0.0000
     18 H1         -1.7618    1.8405   -2.6837 H         1 <0>         0.0000
     19 H2         -0.6136    3.6835   -1.4304 H         1 <0>         0.0000
     20 H3          2.3171    0.4513    1.3330 H         1 <0>         0.0000
     21 H4          1.3714    1.4309    2.4642 H         1 <0>         0.0000
     22 H5          1.4906   -1.0003    3.0757 H         1 <0>         0.0000
     23 H6         -0.1815   -0.4595    2.8187 H         1 <0>         0.0000
     24 H7         -0.0135   -2.6127    1.8081 H         1 <0>         0.0000
     25 H8         -2.1960   -3.6815   -0.7893 H         1 <0>         0.0000
     26 H9         -1.0994   -3.6225   -2.1820 H         1 <0>         0.0000
     27 H10        -0.4276   -3.9462   -0.5760 H         1 <0>         0.0000
     28 H11        -1.8015   -1.1313   -2.6485 H         1 <0>         0.0000
@<TRIPOS>BOND
     1    1    2 ar
     2    1    6 ar
     3    1   18 1
     4    2    7 ar
     5    2   19 1
     6    3    4 ar
     7    3    5 1
     8    3    6 ar
     9    4    7 ar
    10    4   10 1
    11    5    8 2
    12    5   12 1
    13    6   14 1
    14    7   17 1
    15    8   13 1
    16    8   14 1
    17    9   12 1
    18    9   15 1
    19    9   16 2
    20   10   11 1
    21   10   20 1
    22   10   21 1
    23   11   12 1
    24   11   22 1
    25   11   23 1
    26   12   24 1
    27   13   25 1
    28   13   26 1
    29   13   27 1
    30   14   28 1
