@<TRIPOS>MOLECULE
*****
   39    41     0     0     0
SMALL
NO_CHARGES

@<TRIPOS>ATOM
      1 C1         -1.3628    1.9723   -2.5428 C.ar      1 <0>         0.0000
      2 C2         -2.9553    0.5863   -1.3840 C.ar      1 <0>         0.0000
      3 C3         -2.1566    1.9495   -3.6936 C.ar      1 <0>         0.0000
      4 C4         -3.7646    0.5487   -2.5214 C.ar      1 <0>         0.0000
      5 C5          2.1382   -3.6145   -0.6654 C.2       1 <0>         0.0000
      6 C6          2.7947   -1.6175   -0.6587 C.2       1 <0>         0.0000
      7 C7         -1.7434    1.2949   -1.3752 C.ar      1 <0>         0.0000
      8 C8         -3.3475    1.2333   -3.6590 C.ar      1 <0>         0.0000
      9 C9          1.3682   -0.9490    2.1075 C.3       1 <0>         0.0000
     10 C10         0.5508    0.1753    2.7137 C.3       1 <0>         0.0000
     11 C11         0.9371    0.2121    1.2532 C.3       1 <0>         0.0000
     12 C12         2.0410    2.3703    1.4366 C.3       1 <0>         0.0000
     13 C13        -0.8473    1.3183   -0.1567 C.3       1 <0>         0.0000
     14 C14         0.5625   -0.5305   -1.1367 C.3       1 <0>         0.0000
     15 C15        -0.1131   -0.0127    0.1509 C.3       1 <0>         0.0000
     16 N1          3.2563   -2.8484   -0.4809 N.2       1 <0>         0.0000
     17 N2          1.0304   -2.9362   -0.9427 N.2       1 <0>         0.0000
     18 N3          1.4695   -1.6457   -0.9378 N.pl3     1 <0>         0.0000
     19 O1         -1.0459   -1.0229    0.5390 O.3       1 <0>         0.0000
     20 O2          1.9569    1.0921    0.8113 O.3       1 <0>         0.0000
     21 F1         -4.1314    1.2049   -4.7682 F         1 <0>         0.0000
     22 H1         -0.4292    2.5301   -2.5587 H         1 <0>         0.0000
     23 H2         -3.2682    0.0428   -0.4981 H         1 <0>         0.0000
     24 H3         -1.8664    2.4739   -4.5987 H         1 <0>         0.0000
     25 H4         -4.7017    0.0005   -2.5356 H         1 <0>         0.0000
     26 H5          2.1404   -4.6952   -0.6035 H         1 <0>         0.0000
     27 H6          3.3531   -0.6948   -0.5747 H         1 <0>         0.0000
     28 H7          2.4232   -0.9884    2.3569 H         1 <0>         0.0000
     29 H8          0.8876   -1.9059    1.9377 H         1 <0>         0.0000
     30 H9         -0.4831   -0.0200    2.9875 H         1 <0>         0.0000
     31 H10         1.0519    0.8603    3.3890 H         1 <0>         0.0000
     32 H11         2.6818    2.9823    0.7970 H         1 <0>         0.0000
     33 H12         2.5004    2.3046    2.4310 H         1 <0>         0.0000
     34 H13         1.0600    2.8503    1.5305 H         1 <0>         0.0000
     35 H14        -1.4260    1.5836    0.7375 H         1 <0>         0.0000
     36 H15        -0.0960    2.1007   -0.2850 H         1 <0>         0.0000
     37 H16        -0.2111   -0.8513   -1.8335 H         1 <0>         0.0000
     38 H17         1.1312    0.2831   -1.5887 H         1 <0>         0.0000
     39 H18        -1.5567   -0.6876    1.2926 H         1 <0>         0.0000
@<TRIPOS>BOND
     1    1    3 ar
     2    1    7 ar
     3    1   22 1
     4    2    4 ar
     5    2    7 ar
     6    2   23 1
     7    3    8 ar
     8    3   24 1
     9    4    8 ar
    10    4   25 1
    11    5   16 1
    12    5   17 2
    13    5   26 1
    14    6   16 2
    15    6   18 1
    16    6   27 1
    17    7   13 1
    18    8   21 1
    19    9   10 1
    20    9   11 1
    21    9   28 1
    22    9   29 1
    23   10   11 1
    24   10   30 1
    25   10   31 1
    26   11   15 1
    27   11   20 1
    28   12   20 1
    29   12   32 1
    30   12   33 1
    31   12   34 1
    32   13   15 1
    33   13   35 1
    34   13   36 1
    35   14   15 1
    36   14   18 1
    37   14   37 1
    38   14   38 1
    39   15   19 1
    40   17   18 1
    41   19   39 1
