@<TRIPOS>MOLECULE
*****
   36    38     0     0     0
SMALL
NO_CHARGES

@<TRIPOS>ATOM
      1 C1         -0.0033   -6.6154   -6.4414 C.1       1 <0>         0.0000
      2 C2          0.8084   -4.2874   -6.4456 C.ar      1 <0>         0.0000
      3 C3         -0.5984   -5.0623   -4.6266 C.ar      1 <0>         0.0000
      4 C4          0.8752   -3.0331   -5.8479 C.ar      1 <0>         0.0000
      5 C5         -0.5239   -3.7990   -4.0402 C.ar      1 <0>         0.0000
      6 C6          3.1611    0.6667   -4.8988 C.2       1 <0>         0.0000
      7 C7          1.7942    0.4993   -4.8763 C.2       1 <0>         0.0000
      8 C8          2.8143   -1.2620   -4.0157 C.2       1 <0>         0.0000
      9 C9          0.0696   -5.3154   -5.8341 C.ar      1 <0>         0.0000
     10 C10         0.2158   -2.7680   -4.6355 C.ar      1 <0>         0.0000
     11 C11        -0.3177    0.1230   -0.5370 C.3       1 <0>         0.0000
     12 C12         0.1396   -1.3250   -0.1936 C.3       1 <0>         0.0000
     13 C13        -0.2437    0.2365   -2.0818 C.3       1 <0>         0.0000
     14 C14         0.6996   -1.8964   -1.5095 C.3       1 <0>         0.0000
     15 C15        -0.1704   -1.2196   -2.5818 C.3       1 <0>         0.0000
     16 C16         0.2664   -1.3541   -4.0532 C.3       1 <0>         0.0000
     17 N1         -0.0647   -7.6700   -6.9338 N.1       1 <0>         0.0000
     18 N2          3.7878   -0.4398   -4.3614 N.2       1 <0>         0.0000
     19 N3          1.5757   -0.7437   -4.3051 N.pl3     1 <0>         0.0000
     20 H1          1.3251   -4.4785   -7.3811 H         1 <0>         0.0000
     21 H2         -1.1700   -5.8538   -4.1518 H         1 <0>         0.0000
     22 H3          1.4552   -2.2494   -6.3256 H         1 <0>         0.0000
     23 H4         -1.0516   -3.6319   -3.1085 H         1 <0>         0.0000
     24 H5          3.7246    1.5124   -5.2714 H         1 <0>         0.0000
     25 H6          0.9752    1.1274   -5.1975 H         1 <0>         0.0000
     26 H7          2.9423   -2.2467   -3.5871 H         1 <0>         0.0000
     27 H8         -1.3343    0.3041   -0.1756 H         1 <0>         0.0000
     28 H9          0.3233    0.8706   -0.0618 H         1 <0>         0.0000
     29 H10         0.8767   -1.3528    0.6136 H         1 <0>         0.0000
     30 H11        -0.7165   -1.9243    0.1356 H         1 <0>         0.0000
     31 H12        -1.0927    0.7806   -2.5089 H         1 <0>         0.0000
     32 H13         0.6661    0.7678   -2.3777 H         1 <0>         0.0000
     33 H14         1.7408   -1.5819   -1.6357 H         1 <0>         0.0000
     34 H15         0.6783   -2.9894   -1.5463 H         1 <0>         0.0000
     35 H16        -1.1834   -1.6374   -2.5174 H         1 <0>         0.0000
     36 H17        -0.4409   -0.7566   -4.6412 H         1 <0>         0.0000
@<TRIPOS>BOND
     1    1    9 1
     2    1   17 3
     3    2    4 ar
     4    2    9 ar
     5    2   20 1
     6    3    5 ar
     7    3    9 ar
     8    3   21 1
     9    4   10 ar
    10    4   22 1
    11    5   10 ar
    12    5   23 1
    13    6    7 2
    14    6   18 1
    15    6   24 1
    16    7   19 1
    17    7   25 1
    18    8   18 2
    19    8   19 1
    20    8   26 1
    21   10   16 1
    22   11   12 1
    23   11   13 1
    24   11   27 1
    25   11   28 1
    26   12   14 1
    27   12   29 1
    28   12   30 1
    29   13   15 1
    30   13   31 1
    31   13   32 1
    32   14   15 1
    33   14   33 1
    34   14   34 1
    35   15   16 1
    36   15   35 1
    37   16   19 1
    38   16   36 1
