@<TRIPOS>MOLECULE
*****
   65    70     0     0     0
SMALL
NO_CHARGES

@<TRIPOS>ATOM
      1 C1         -1.4429  -10.7404   -1.2089 C.ar      1 <0>         0.0000
      2 C2         -1.5904   -9.3615   -1.3947 C.ar      1 <0>         0.0000
      3 C3         -1.0037  -11.2326    0.0255 C.ar      1 <0>         0.0000
      4 C4         -1.3057   -8.4790   -0.3495 C.ar      1 <0>         0.0000
      5 C5         -0.7104  -10.3514    1.0685 C.ar      1 <0>         0.0000
      6 C6         -2.3387   -8.4335    5.3277 C.ar      1 <0>         0.0000
      7 C7         -3.1507   -9.3029    3.2177 C.ar      1 <0>         0.0000
      8 C8         -3.3984   -9.0454    5.9887 C.ar      1 <0>         0.0000
      9 C9         -4.2136   -9.9116    3.8811 C.ar      1 <0>         0.0000
     10 C10         2.2851   -5.8433    1.1270 C.2       1 <0>         0.0000
     11 C11         1.3645   -6.8209    0.9114 C.2       1 <0>         0.0000
     12 C12        -2.1925   -8.5543    3.9298 C.ar      1 <0>         0.0000
     13 C13        -0.8650   -8.9651    0.8943 C.ar      1 <0>         0.0000
     14 C14        -4.3492   -9.7925    5.2733 C.ar      1 <0>         0.0000
     15 C15        -1.0684   -7.8713    3.2836 C.2       1 <0>         0.0000
     16 C16        -0.5588   -8.0395    1.9975 C.2       1 <0>         0.0000
     17 C17         2.2665   -5.1619    2.3948 C.2       1 <0>         0.0000
     18 C18         0.5279   -6.4212    3.1482 C.2       1 <0>         0.0000
     19 C19         3.3414   -0.5128    5.0240 C.2       1 <0>         0.0000
     20 C20         3.6047    0.0534    6.4164 C.3       1 <0>         0.0000
     21 C21         4.9831   -0.5089    6.8030 C.3       1 <0>         0.0000
     22 C22        -6.4707  -12.0530    6.9989 C.3       1 <0>         0.0000
     23 C23        -5.4482  -10.9547    7.4090 C.3       1 <0>         0.0000
     24 C24        -6.2234  -11.6796    5.5090 C.3       1 <0>         0.0000
     25 C25         5.1178   -1.7875    5.9485 C.3       1 <0>         0.0000
     26 C26        -5.5374  -10.3680    5.9746 C.3       1 <0>         0.0000
     27 C27         4.2075   -2.3309    3.6081 C.3       1 <0>         0.0000
     28 C28         3.1695   -3.4393    3.7708 C.3       1 <0>         0.0000
     29 N1         -0.3915   -6.8860    3.9763 N.2       1 <0>         0.0000
     30 N2          1.4333   -5.4432    3.3682 N.2       1 <0>         0.0000
     31 N3          0.4652   -7.1016    1.9096 N.pl3     1 <0>         0.0000
     32 N4          4.2725   -1.4972    4.7919 N.am      1 <0>         0.0000
     33 N5         -6.6192   -9.2394    5.9874 N.4       1 <0>         0.0000
     34 O1          2.4530   -0.1897    4.2416 O.2       1 <0>         0.0000
     35 O2          3.1815   -4.1919    2.5338 O.3       1 <0>         0.0000
     36 H1         -1.6633  -11.4262   -2.0223 H         1 <0>         0.0000
     37 H2         -1.9322   -8.9739   -2.3506 H         1 <0>         0.0000
     38 H3         -0.8765  -12.3020    0.1709 H         1 <0>         0.0000
     39 H4         -1.4426   -7.4095   -0.4896 H         1 <0>         0.0000
     40 H5         -0.3565  -10.7302    2.0235 H         1 <0>         0.0000
     41 H6         -1.6047   -7.8495    5.8723 H         1 <0>         0.0000
     42 H7         -3.0724   -9.4031    2.1416 H         1 <0>         0.0000
     43 H8         -3.4742   -8.9542    7.0710 H         1 <0>         0.0000
     44 H9         -4.9340  -10.4910    3.3068 H         1 <0>         0.0000
     45 H10         3.0147   -5.5746    0.3732 H         1 <0>         0.0000
     46 H11         1.2908   -7.3996   -0.0021 H         1 <0>         0.0000
     47 H12         3.5501    1.1435    6.4009 H         1 <0>         0.0000
     48 H13         2.8081   -0.3059    7.0782 H         1 <0>         0.0000
     49 H14         5.7676    0.1991    6.5212 H         1 <0>         0.0000
     50 H15         5.0855   -0.7172    7.8702 H         1 <0>         0.0000
     51 H16        -7.4908  -11.8417    7.3344 H         1 <0>         0.0000
     52 H17        -6.2256  -13.0749    7.2889 H         1 <0>         0.0000
     53 H18        -5.6980  -10.2964    8.2472 H         1 <0>         0.0000
     54 H19        -4.4486  -11.3590    7.5762 H         1 <0>         0.0000
     55 H20        -5.4856  -12.3298    5.0362 H         1 <0>         0.0000
     56 H21        -7.0871  -11.5961    4.8417 H         1 <0>         0.0000
     57 H22         6.1491   -1.9782    5.6345 H         1 <0>         0.0000
     58 H23         4.7599   -2.6761    6.4888 H         1 <0>         0.0000
     59 H24         5.1955   -2.7579    3.4116 H         1 <0>         0.0000
     60 H25         3.9272   -1.7011    2.7601 H         1 <0>         0.0000
     61 H26         2.1758   -3.0170    3.9321 H         1 <0>         0.0000
     62 H27         3.4066   -4.1113    4.6008 H         1 <0>         0.0000
     63 H28        -7.4920   -9.5196    6.4535 H         1 <0>         0.0000
     64 H29        -6.8380   -8.9597    5.0233 H         1 <0>         0.0000
     65 H30        -6.2454   -8.4093    6.4640 H         1 <0>         0.0000
@<TRIPOS>BOND
     1    1    3 ar
     2    1    2 ar
     3    1   36 1
     4    2    4 ar
     5    2   37 1
     6    3    5 ar
     7    3   38 1
     8    4   13 ar
     9    4   39 1
    10    5   13 ar
    11    5   40 1
    12    6    8 ar
    13    6   12 ar
    14    6   41 1
    15    7    9 ar
    16    7   12 ar
    17    7   42 1
    18    8   14 ar
    19    8   43 1
    20    9   14 ar
    21    9   44 1
    22   10   11 2
    23   10   17 1
    24   10   45 1
    25   11   31 1
    26   11   46 1
    27   12   15 1
    28   13   16 1
    29   14   26 1
    30   15   16 2
    31   15   29 1
    32   16   31 1
    33   17   30 2
    34   17   35 1
    35   18   29 2
    36   18   30 1
    37   18   31 1
    38   19   20 1
    39   19   32 am
    40   19   34 2
    41   20   21 1
    42   20   47 1
    43   20   48 1
    44   21   25 1
    45   21   49 1
    46   21   50 1
    47   22   24 1
    48   22   23 1
    49   22   51 1
    50   22   52 1
    51   23   26 1
    52   23   53 1
    53   23   54 1
    54   24   26 1
    55   24   55 1
    56   24   56 1
    57   25   32 1
    58   25   57 1
    59   25   58 1
    60   26   33 1
    61   27   28 1
    62   27   32 1
    63   27   59 1
    64   27   60 1
    65   28   35 1
    66   28   61 1
    67   28   62 1
    68   33   63 1
    69   33   64 1
    70   33   65 1
