@<TRIPOS>MOLECULE
*****
   24    24     0     0     0
SMALL
NO_CHARGES

@<TRIPOS>ATOM
      1 C1          1.7765   -0.6900    0.0963 C.ar      1 <0>         0.0000
      2 C2          0.8646   -0.3904    1.1136 C.ar      1 <0>         0.0000
      3 C3          3.2555   -1.6783    1.7342 C.ar      1 <0>         0.0000
      4 C4          2.9733   -1.3323    0.4058 C.ar      1 <0>         0.0000
      5 C5          1.1472   -0.7297    2.4361 C.ar      1 <0>         0.0000
      6 C6          2.3561   -1.3846    2.7620 C.ar      1 <0>         0.0000
      7 C7          3.1720   -0.5354    5.0436 C.2       1 <0>         0.0000
      8 C8          2.7104   -1.7280    4.1930 C.3       1 <0>         0.0000
      9 C9          3.9759   -1.6276   -0.6750 C.3       1 <0>         0.0000
     10 C10         0.1492   -0.4119    3.5270 C.3       1 <0>         0.0000
     11 O1          2.9908   -0.4693    6.2359 O.2       1 <0>         0.0000
     12 O2          3.8327    0.4550    4.3867 O.3       1 <0>         0.0000
     13 F1          4.4389   -2.9184   -0.5736 F         1 <0>         0.0000
     14 F2          5.0762   -0.8050   -0.5420 F         1 <0>         0.0000
     15 F3         -0.4446   -1.5765    3.9744 F         1 <0>         0.0000
     16 F4         -0.8535    0.3949    3.0569 F         1 <0>         0.0000
     17 H1          1.5477   -0.4197   -0.9316 H         1 <0>         0.0000
     18 H2         -0.0662    0.1142    0.8794 H         1 <0>         0.0000
     19 H3          4.1855   -2.1924    1.9631 H         1 <0>         0.0000
     20 H4          3.5345   -2.4493    4.2047 H         1 <0>         0.0000
     21 H5          1.8798   -2.1908    4.7265 H         1 <0>         0.0000
     22 H6          3.5797   -1.4897   -1.6848 H         1 <0>         0.0000
     23 H7          0.5851    0.0833    4.3990 H         1 <0>         0.0000
     24 H8          3.8656    0.2603    3.4319 H         1 <0>         0.0000
@<TRIPOS>BOND
     1    1    2 ar
     2    1    4 ar
     3    1   17 1
     4    2    5 ar
     5    2   18 1
     6    3    4 ar
     7    3    6 ar
     8    3   19 1
     9    4    9 1
    10    5    6 ar
    11    5   10 1
    12    6    8 1
    13    7    8 1
    14    7   11 2
    15    7   12 1
    16    8   20 1
    17    8   21 1
    18    9   13 1
    19    9   14 1
    20    9   22 1
    21   10   15 1
    22   10   16 1
    23   10   23 1
    24   12   24 1
