@<TRIPOS>MOLECULE
*****
   56    58     0     0     0
SMALL
NO_CHARGES

@<TRIPOS>ATOM
      1 C1          1.0424    2.3008    3.9050 C.ar      1 <0>         0.0000
      2 C2         -0.3965    0.3967    4.1501 C.ar      1 <0>         0.0000
      3 C3          1.1648    2.3988    5.2859 C.ar      1 <0>         0.0000
      4 C4         -0.2857    0.4799    5.5458 C.ar      1 <0>         0.0000
      5 C5          0.2581    1.2966    3.3054 C.ar      1 <0>         0.0000
      6 C6          0.4994    1.4854    6.1202 C.ar      1 <0>         0.0000
      7 C7         -2.1503   -0.5699   -0.7892 C.3       1 <0>         0.0000
      8 C8         -1.3319   -1.7753   -1.2655 C.3       1 <0>         0.0000
      9 C9          1.5095    0.5769    1.2217 C.3       1 <0>         0.0000
     10 C10         1.2758   -0.4224    0.0792 C.3       1 <0>         0.0000
     11 C11        -1.0098    0.4327    1.2564 C.3       1 <0>         0.0000
     12 C12        -1.0977    0.4497   -0.2777 C.3       1 <0>         0.0000
     13 C13        -0.1257   -1.1016   -1.9288 C.3       1 <0>         0.0000
     14 C14         0.2053    1.2103    1.7820 C.3       1 <0>         0.0000
     15 C15         0.2600    0.0667   -0.9712 C.3       1 <0>         0.0000
     16 C16         0.8447    1.2421   -1.7658 C.3       1 <0>         0.0000
     17 C17         1.6607   -1.3145   -4.4192 C.3       1 <0>         0.0000
     18 C18         2.3556   -3.4636   -3.3167 C.3       1 <0>         0.0000
     19 C19        -0.0243   -3.1705   -4.0696 C.3       1 <0>         0.0000
     20 C20         0.0273    0.7542    8.3477 C.3       1 <0>         0.0000
     21 C21         1.2127   -2.4605   -3.4985 C.3       1 <0>         0.0000
     22 O1          0.1683    2.5566    1.2393 O.3       1 <0>         0.0000
     23 O2          0.6794    1.6625    7.4675 O.3       1 <0>         0.0000
     24 O3          0.9757   -1.9732   -2.1594 O.3       1 <0>         0.0000
     25 H1          1.5580    3.0142    3.2693 H         1 <0>         0.0000
     26 H2         -1.0114   -0.3963    3.7364 H         1 <0>         0.0000
     27 H3          1.7704    3.1760    5.7437 H         1 <0>         0.0000
     28 H4         -0.8156   -0.2393    6.1605 H         1 <0>         0.0000
     29 H5         -2.7070   -0.1483   -1.6347 H         1 <0>         0.0000
     30 H6         -2.8871   -0.8279   -0.0210 H         1 <0>         0.0000
     31 H7         -0.9862   -2.3839   -0.4221 H         1 <0>         0.0000
     32 H8         -1.8806   -2.4337   -1.9445 H         1 <0>         0.0000
     33 H9          2.0406    0.0669    2.0300 H         1 <0>         0.0000
     34 H10         2.1513    1.4011    0.8977 H         1 <0>         0.0000
     35 H11         2.2262   -0.6469   -0.4124 H         1 <0>         0.0000
     36 H12         0.9339   -1.3748    0.4991 H         1 <0>         0.0000
     37 H13        -1.9316    0.8522    1.6800 H         1 <0>         0.0000
     38 H14        -0.9552   -0.6048    1.6043 H         1 <0>         0.0000
     39 H15        -1.3774    1.4617   -0.5806 H         1 <0>         0.0000
     40 H16        -0.4609   -0.6566   -2.8746 H         1 <0>         0.0000
     41 H17         0.1288    1.5950   -2.5183 H         1 <0>         0.0000
     42 H18         1.7586    0.9384   -2.2887 H         1 <0>         0.0000
     43 H19         1.0798    2.0869   -1.1142 H         1 <0>         0.0000
     44 H20         0.8759   -0.5635   -4.5492 H         1 <0>         0.0000
     45 H21         2.5413   -0.8182   -4.0008 H         1 <0>         0.0000
     46 H22         1.9184   -1.6990   -5.4117 H         1 <0>         0.0000
     47 H23         2.0450   -4.2738   -2.6502 H         1 <0>         0.0000
     48 H24         3.2235   -2.9684   -2.8711 H         1 <0>         0.0000
     49 H25         2.6538   -3.8942   -4.2779 H         1 <0>         0.0000
     50 H26        -0.3562   -3.9620   -3.3910 H         1 <0>         0.0000
     51 H27        -0.8565   -2.4773   -4.2257 H         1 <0>         0.0000
     52 H28         0.2134   -3.6234   -5.0378 H         1 <0>         0.0000
     53 H29         0.3018    1.0655    9.3566 H         1 <0>         0.0000
     54 H30         0.3645   -0.2767    8.1817 H         1 <0>         0.0000
     55 H31        -1.0635    0.8025    8.2376 H         1 <0>         0.0000
     56 H32        -0.6096    2.9977    1.6193 H         1 <0>         0.0000
@<TRIPOS>BOND
     1    1    3 ar
     2    1    5 ar
     3    1   25 1
     4    2    4 ar
     5    2    5 ar
     6    2   26 1
     7    3    6 ar
     8    3   27 1
     9    4    6 ar
    10    4   28 1
    11    5   14 1
    12    6   23 1
    13    7    8 1
    14    7   12 1
    15    7   29 1
    16    7   30 1
    17    8   13 1
    18    8   31 1
    19    8   32 1
    20    9   10 1
    21    9   14 1
    22    9   33 1
    23    9   34 1
    24   10   15 1
    25   10   35 1
    26   10   36 1
    27   11   12 1
    28   11   14 1
    29   11   37 1
    30   11   38 1
    31   12   15 1
    32   12   39 1
    33   13   15 1
    34   13   24 1
    35   13   40 1
    36   14   22 1
    37   15   16 1
    38   16   41 1
    39   16   42 1
    40   16   43 1
    41   17   21 1
    42   17   44 1
    43   17   45 1
    44   17   46 1
    45   18   21 1
    46   18   47 1
    47   18   48 1
    48   18   49 1
    49   19   21 1
    50   19   50 1
    51   19   51 1
    52   19   52 1
    53   20   23 1
    54   20   53 1
    55   20   54 1
    56   20   55 1
    57   21   24 1
    58   22   56 1
