@<TRIPOS>MOLECULE
*****
   30    31     0     0     0
SMALL
NO_CHARGES

@<TRIPOS>ATOM
      1 C1          7.3091   -3.9910    3.7141 C.1       1 <0>         0.0000
      2 C2          7.6742   -8.1154    1.0138 C.ar      1 <0>         0.0000
      3 C3          8.7922   -8.4636    1.7717 C.ar      1 <0>         0.0000
      4 C4          6.7077   -7.2629    1.5476 C.ar      1 <0>         0.0000
      5 C5          4.5157   -4.4824    1.3141 C.ar      1 <0>         0.0000
      6 C6          8.9437   -7.9595    3.0634 C.ar      1 <0>         0.0000
      7 C7          5.0964   -4.7544    0.0754 C.ar      1 <0>         0.0000
      8 C8          6.6322   -2.9164    0.3917 C.ar      1 <0>         0.0000
      9 C9          6.8592   -6.7587    2.8393 C.ar      1 <0>         0.0000
     10 C10         4.9931   -3.4272    2.0916 C.ar      1 <0>         0.0000
     11 C11         6.1547   -3.9715   -0.3858 C.ar      1 <0>         0.0000
     12 C12         7.9772   -7.1070    3.5972 C.ar      1 <0>         0.0000
     13 C13         6.0514   -2.6443    1.6304 C.ar      1 <0>         0.0000
     14 C14         6.0123   -4.5902    3.7496 C.2       1 <0>         0.0000
     15 C15         5.8199   -5.8718    3.3492 C.2       1 <0>         0.0000
     16 N1          8.3604   -3.5000    3.6887 N.1       1 <0>         0.0000
     17 N2          4.3865   -3.1775    3.3348 N.2       1 <0>         0.0000
     18 N3          4.9709   -3.8310    4.2183 N.2       1 <0>         0.0000
     19 O1          4.5688   -6.4694    3.4133 O.3       1 <0>         0.0000
     20 Cl1         6.8713   -4.3070   -1.9141 Cl        1 <0>         0.0000
     21 Cl2         8.2144   -6.5109    5.2031 Cl        1 <0>         0.0000
     22 Cl3         6.6691   -1.3304    2.5651 Cl        1 <0>         0.0000
     23 H1          7.5564   -8.5081    0.0081 H         1 <0>         0.0000
     24 H2          9.5446   -9.1273    1.3559 H         1 <0>         0.0000
     25 H3          5.8427   -7.0022    0.9420 H         1 <0>         0.0000
     26 H4          3.6910   -5.0978    1.6644 H         1 <0>         0.0000
     27 H5          9.8210   -8.2412    3.6403 H         1 <0>         0.0000
     28 H6          4.7139   -5.5797   -0.5195 H         1 <0>         0.0000
     29 H7          7.4577   -2.3069    0.0300 H         1 <0>         0.0000
     30 H8          3.9313   -5.8383    3.7548 H         1 <0>         0.0000
@<TRIPOS>BOND
     1    1   14 1
     2    1   16 3
     3    2    3 ar
     4    2    4 ar
     5    2   23 1
     6    3    6 ar
     7    3   24 1
     8    4    9 ar
     9    4   25 1
    10    5    7 ar
    11    5   10 ar
    12    5   26 1
    13    6   12 ar
    14    6   27 1
    15    7   11 ar
    16    7   28 1
    17    8   11 ar
    18    8   13 ar
    19    8   29 1
    20    9   12 ar
    21    9   15 1
    22   10   13 ar
    23   10   17 1
    24   11   20 1
    25   12   21 1
    26   13   22 1
    27   14   15 2
    28   14   18 1
    29   15   19 1
    30   17   18 2
    31   19   30 1
