@<TRIPOS>MOLECULE
*****
   27    28     0     0     0
SMALL
NO_CHARGES

@<TRIPOS>ATOM
      1 C1          4.3527   -0.7199   -0.3862 C.ar      1 <0>         0.0000
      2 C2          4.5438    0.2946   -1.3222 C.ar      1 <0>         0.0000
      3 C3          2.3035    0.8360   -1.4473 C.ar      1 <0>         0.0000
      4 C4          1.0897   -1.6586    0.9213 C.2       1 <0>         0.0000
      5 C5          1.9702   -0.1589   -0.5107 C.ar      1 <0>         0.0000
      6 C6          0.7386   -0.6280    0.0826 C.2       1 <0>         0.0000
      7 C7          3.0320   -0.9460    0.0171 C.ar      1 <0>         0.0000
      8 C8         -0.6460   -0.1404   -0.2365 C.3       1 <0>         0.0000
      9 C9         -0.6198   -1.3559   -2.4744 C.3       1 <0>         0.0000
     10 C10        -1.4267   -1.0446   -1.2156 C.3       1 <0>         0.0000
     11 N1          3.5573    1.0586   -1.8486 N.ar      1 <0>         0.0000
     12 N2          2.4702   -1.8506    0.8894 N.pl3     1 <0>         0.0000
     13 N3         -1.7672   -2.3179   -0.5555 N.3       1 <0>         0.0000
     14 O1         -0.3692   -0.1295   -3.1701 O.3       1 <0>         0.0000
     15 H1          5.1931   -1.2947   -0.0059 H         1 <0>         0.0000
     16 H2          5.5489    0.5144   -1.6777 H         1 <0>         0.0000
     17 H3          1.5311    1.4662   -1.8849 H         1 <0>         0.0000
     18 H4          0.4591   -2.2982    1.5229 H         1 <0>         0.0000
     19 H5         -1.2386   -0.0418    0.6814 H         1 <0>         0.0000
     20 H6         -0.5876    0.8579   -0.6770 H         1 <0>         0.0000
     21 H7         -1.1925   -2.0408   -3.1189 H         1 <0>         0.0000
     22 H8          0.3125   -1.8557   -2.1893 H         1 <0>         0.0000
     23 H9         -2.3199   -0.4811   -1.5321 H         1 <0>         0.0000
     24 H10         2.9743   -2.5436    1.4237 H         1 <0>         0.0000
     25 H11        -2.2673   -2.9193   -1.2098 H         1 <0>         0.0000
     26 H12        -2.4155   -2.1335    0.2089 H         1 <0>         0.0000
     27 H13         0.4875   -0.1989   -3.6157 H         1 <0>         0.0000
@<TRIPOS>BOND
     1    1    2 ar
     2    1    7 ar
     3    1   15 1
     4    2   11 ar
     5    2   16 1
     6    3    5 ar
     7    3   11 ar
     8    3   17 1
     9    4    6 2
    10    4   12 1
    11    4   18 1
    12    5    6 1
    13    5    7 ar
    14    6    8 1
    15    7   12 1
    16    8   10 1
    17    8   19 1
    18    8   20 1
    19    9   10 1
    20    9   14 1
    21    9   21 1
    22    9   22 1
    23   10   13 1
    24   10   23 1
    25   12   24 1
    26   13   25 1
    27   13   26 1
    28   14   27 1
