@<TRIPOS>MOLECULE
*****
   27    28     0     0     0
SMALL
NO_CHARGES

@<TRIPOS>ATOM
      1 C1          3.9476    0.6862   -1.0084 C.ar      1 <0>         0.0000
      2 C2          3.9313    1.8915   -1.7073 C.ar      1 <0>         0.0000
      3 C3          1.6328    2.0866   -1.6633 C.ar      1 <0>         0.0000
      4 C4          0.9423   -0.9927    0.1681 C.2       1 <0>         0.0000
      5 C5          1.5067    0.8808   -0.9509 C.ar      1 <0>         0.0000
      6 C6          0.3935    0.1134   -0.4365 C.2       1 <0>         0.0000
      7 C7          2.7003    0.1792   -0.6263 C.ar      1 <0>         0.0000
      8 C8         -1.0591    0.4825   -0.5067 C.3       1 <0>         0.0000
      9 C9         -2.8814    2.0634    0.2368 C.3       1 <0>         0.0000
     10 C10        -1.4229    1.6539    0.4241 C.3       1 <0>         0.0000
     11 N1          2.8142    2.5836   -2.0339 N.ar      1 <0>         0.0000
     12 N2          2.3327   -0.9579    0.0579 N.pl3     1 <0>         0.0000
     13 N3         -1.2369    1.2420    1.8242 N.3       1 <0>         0.0000
     14 O1         -3.0322    2.5791   -1.0908 O.3       1 <0>         0.0000
     15 H1          4.8841    0.1830   -0.7831 H         1 <0>         0.0000
     16 H2          4.8706    2.3363   -2.0307 H         1 <0>         0.0000
     17 H3          0.7518    2.6632   -1.9431 H         1 <0>         0.0000
     18 H4          0.4508   -1.8159    0.6705 H         1 <0>         0.0000
     19 H5         -1.3309    0.7633   -1.5287 H         1 <0>         0.0000
     20 H6         -1.6747   -0.3796   -0.2253 H         1 <0>         0.0000
     21 H7         -3.1433    2.8304    0.9818 H         1 <0>         0.0000
     22 H8         -3.5274    1.1903    0.4061 H         1 <0>         0.0000
     23 H9         -0.8004    2.5198    0.1467 H         1 <0>         0.0000
     24 H10         2.9629   -1.6713    0.3950 H         1 <0>         0.0000
     25 H11        -1.2970    2.0554    2.4353 H         1 <0>         0.0000
     26 H12        -0.2931    0.8720    1.9329 H         1 <0>         0.0000
     27 H13        -3.9634    2.8097   -1.2247 H         1 <0>         0.0000
@<TRIPOS>BOND
     1    1    2 ar
     2    1    7 ar
     3    1   15 1
     4    2   11 ar
     5    2   16 1
     6    3    5 ar
     7    3   11 ar
     8    3   17 1
     9    4    6 2
    10    4   12 1
    11    4   18 1
    12    5    6 1
    13    5    7 ar
    14    6    8 1
    15    7   12 1
    16    8   10 1
    17    8   19 1
    18    8   20 1
    19    9   10 1
    20    9   14 1
    21    9   21 1
    22    9   22 1
    23   10   13 1
    24   10   23 1
    25   12   24 1
    26   13   25 1
    27   13   26 1
    28   14   27 1
