@<TRIPOS>MOLECULE
*****
   28    29     0     0     0
SMALL
NO_CHARGES

@<TRIPOS>ATOM
      1 C1          4.3035    0.9327   -0.7605 C.ar      1 <0>         0.0000
      2 C2          4.0532    2.1423   -1.4068 C.ar      1 <0>         0.0000
      3 C3          1.7603    1.9266   -1.2924 C.ar      1 <0>         0.0000
      4 C4          1.6972   -1.3182    0.4017 C.2       1 <0>         0.0000
      5 C5          1.8693    0.6704   -0.6618 C.ar      1 <0>         0.0000
      6 C6          0.9346   -0.3134   -0.1543 C.2       1 <0>         0.0000
      7 C7          3.1806    0.1897   -0.3846 C.ar      1 <0>         0.0000
      8 C8         -0.5605   -0.2693   -0.2854 C.3       1 <0>         0.0000
      9 C9         -2.5582   -0.7127   -1.8538 C.3       1 <0>         0.0000
     10 C10        -1.0493   -0.8334   -1.6295 C.3       1 <0>         0.0000
     11 N1          2.8200    2.6372   -1.6659 N.ar      1 <0>         0.0000
     12 N2          3.0410   -1.0177    0.2649 N.pl3     1 <0>         0.0000
     13 N3         -0.3239   -0.1142   -2.7626 N.4       1 <0>         0.0000
     14 O1         -3.1418   -1.4922   -0.8297 O.3       1 <0>         0.0000
     15 H1          5.3200    0.6054   -0.5640 H         1 <0>         0.0000
     16 H2          4.8854    2.7632   -1.7289 H         1 <0>         0.0000
     17 H3          0.7869    2.3913   -1.4708 H         1 <0>         0.0000
     18 H4          1.3834   -2.2251    0.9029 H         1 <0>         0.0000
     19 H5         -0.9326    0.7562   -0.1650 H         1 <0>         0.0000
     20 H6         -1.0482   -0.8664    0.4880 H         1 <0>         0.0000
     21 H7         -2.8613    0.3452   -1.7902 H         1 <0>         0.0000
     22 H8         -2.8236   -1.0889   -2.8544 H         1 <0>         0.0000
     23 H9         -0.7481   -1.8798   -1.7214 H         1 <0>         0.0000
     24 H10         3.8003   -1.5840    0.6220 H         1 <0>         0.0000
     25 H11         0.6895   -0.0819   -2.5525 H         1 <0>         0.0000
     26 H12        -0.6320    0.8618   -2.8520 H         1 <0>         0.0000
     27 H13        -0.4614   -0.5719   -3.6714 H         1 <0>         0.0000
     28 H14        -4.1083   -1.4837   -0.9197 H         1 <0>         0.0000
@<TRIPOS>BOND
     1    1    2 ar
     2    1    7 ar
     3    1   15 1
     4    2   11 ar
     5    2   16 1
     6    3    5 ar
     7    3   11 ar
     8    3   17 1
     9    4    6 2
    10    4   12 1
    11    4   18 1
    12    5    6 1
    13    5    7 ar
    14    6    8 1
    15    7   12 1
    16    8   10 1
    17    8   19 1
    18    8   20 1
    19    9   10 1
    20    9   14 1
    21    9   21 1
    22    9   22 1
    23   10   13 1
    24   10   23 1
    25   12   24 1
    26   13   25 1
    27   13   26 1
    28   13   27 1
    29   14   28 1
