@<TRIPOS>MOLECULE
*****
   28    29     0     0     0
SMALL
NO_CHARGES

@<TRIPOS>ATOM
      1 C1          4.1344   -0.7497    0.1576 C.ar      1 <0>         0.0000
      2 C2          4.1619    0.2153   -0.8469 C.ar      1 <0>         0.0000
      3 C3          1.8729    0.5022   -0.8767 C.ar      1 <0>         0.0000
      4 C4          1.0872   -1.9311    1.7453 C.2       1 <0>         0.0000
      5 C5          1.7027   -0.4446    0.1529 C.ar      1 <0>         0.0000
      6 C6          0.5751   -1.0033    0.8657 C.2       1 <0>         0.0000
      7 C7          2.8714   -1.0788    0.6593 C.ar      1 <0>         0.0000
      8 C8         -0.8654   -0.6066    0.7156 C.3       1 <0>         0.0000
      9 C9         -0.4220    1.8681    1.4638 C.3       1 <0>         0.0000
     10 C10        -1.2484    0.5718    1.6263 C.3       1 <0>         0.0000
     11 N1          3.0681    0.8272   -1.3589 N.ar      1 <0>         0.0000
     12 N2          2.4642   -1.9754    1.6252 N.pl3     1 <0>         0.0000
     13 N3         -2.7243    0.9183    1.3440 N.4       1 <0>         0.0000
     14 O1          0.7557    1.8136    2.2259 O.3       1 <0>         0.0000
     15 H1          5.0499   -1.2109    0.5156 H         1 <0>         0.0000
     16 H2          5.1135    0.5181   -1.2768 H         1 <0>         0.0000
     17 H3          1.0187    1.0047   -1.3328 H         1 <0>         0.0000
     18 H4          0.5767   -2.5739    2.4512 H         1 <0>         0.0000
     19 H5         -1.5100   -1.4634    0.9482 H         1 <0>         0.0000
     20 H6         -1.0615   -0.3317   -0.3299 H         1 <0>         0.0000
     21 H7         -0.2292    2.0620    0.3997 H         1 <0>         0.0000
     22 H8         -0.9974    2.7166    1.8557 H         1 <0>         0.0000
     23 H9         -1.2184    0.2788    2.6786 H         1 <0>         0.0000
     24 H10         3.0724   -2.5937    2.1464 H         1 <0>         0.0000
     25 H11        -3.3294    0.0929    1.4360 H         1 <0>         0.0000
     26 H12        -2.8431    1.2761    0.3875 H         1 <0>         0.0000
     27 H13        -3.0759    1.6383    1.9879 H         1 <0>         0.0000
     28 H14         1.4408    1.3389    1.7230 H         1 <0>         0.0000
@<TRIPOS>BOND
     1    1    2 ar
     2    1    7 ar
     3    1   15 1
     4    2   11 ar
     5    2   16 1
     6    3    5 ar
     7    3   11 ar
     8    3   17 1
     9    4    6 2
    10    4   12 1
    11    4   18 1
    12    5    6 1
    13    5    7 ar
    14    6    8 1
    15    7   12 1
    16    8   10 1
    17    8   19 1
    18    8   20 1
    19    9   10 1
    20    9   14 1
    21    9   21 1
    22    9   22 1
    23   10   13 1
    24   10   23 1
    25   12   24 1
    26   13   25 1
    27   13   26 1
    28   13   27 1
    29   14   28 1
