@<TRIPOS>MOLECULE
*****
   39    40     0     0     0
SMALL
NO_CHARGES

@<TRIPOS>ATOM
      1 C1          4.2424   -4.7157   -0.0641 C.ar      1 <0>         0.0000
      2 C2          5.6594   -3.7839    1.6782 C.ar      1 <0>         0.0000
      3 C3          1.9003   -1.6893    0.3671 C.ar      1 <0>         0.0000
      4 C4          3.4073   -0.5874    1.9248 C.ar      1 <0>         0.0000
      5 C5          4.4086   -5.9977    0.4663 C.ar      1 <0>         0.0000
      6 C6          5.8467   -5.0499    2.2326 C.ar      1 <0>         0.0000
      7 C7          0.7934   -1.2418    1.0876 C.ar      1 <0>         0.0000
      8 C8          2.3199   -0.1195    2.6676 C.ar      1 <0>         0.0000
      9 C9          5.2089   -6.1427    1.6150 C.ar      1 <0>         0.0000
     10 C10         1.0246   -0.4618    2.2370 C.ar      1 <0>         0.0000
     11 C11         4.8593   -3.6246    0.5450 C.ar      1 <0>         0.0000
     12 C12         3.1916   -1.3677    0.7911 C.ar      1 <0>         0.0000
     13 C13         3.7592   -7.2022   -0.1753 C.3       1 <0>         0.0000
     14 C14         6.7097   -5.2718    3.4487 C.3       1 <0>         0.0000
     15 C15        -0.6188   -1.5585    0.6650 C.3       1 <0>         0.0000
     16 C16         2.5205    0.7402    3.8942 C.3       1 <0>         0.0000
     17 O1          4.1822   -2.1458   -1.5320 O.2       1 <0>         0.0000
     18 O2          5.7638   -1.1586    0.2411 O.2       1 <0>         0.0000
     19 O3          5.4201   -7.3700    2.1946 O.3       1 <0>         0.0000
     20 O4         -0.0938   -0.0420    2.9152 O.3       1 <0>         0.0000
     21 S1          4.6012   -1.9837   -0.1296 S.o2      1 <0>         0.0000
     22 H1          3.6508   -4.5648   -0.9621 H         1 <0>         0.0000
     23 H2          6.1514   -2.9192    2.1140 H         1 <0>         0.0000
     24 H3          1.7608   -2.2735   -0.5377 H         1 <0>         0.0000
     25 H4          4.4224   -0.3304    2.2124 H         1 <0>         0.0000
     26 H5          4.5009   -7.9391   -0.5111 H         1 <0>         0.0000
     27 H6          3.0664   -7.7094    0.5096 H         1 <0>         0.0000
     28 H7          3.1819   -6.9081   -1.0542 H         1 <0>         0.0000
     29 H8          6.1339   -5.7242    4.2630 H         1 <0>         0.0000
     30 H9          7.5336   -5.9578    3.2262 H         1 <0>         0.0000
     31 H10         7.1308   -4.3276    3.8025 H         1 <0>         0.0000
     32 H11        -1.1536   -2.0994    1.4529 H         1 <0>         0.0000
     33 H12        -1.1861   -0.6422    0.4709 H         1 <0>         0.0000
     34 H13        -0.6246   -2.1683   -0.2416 H         1 <0>         0.0000
     35 H14         2.0527    1.7277    3.7843 H         1 <0>         0.0000
     36 H15         2.1090    0.2707    4.7977 H         1 <0>         0.0000
     37 H16         3.5835    0.9100    4.0775 H         1 <0>         0.0000
     38 H17         4.9497   -8.0530    1.6913 H         1 <0>         0.0000
     39 H18         0.1709    0.4947    3.6786 H         1 <0>         0.0000
@<TRIPOS>BOND
     1    1    5 ar
     2    1   11 ar
     3    1   22 1
     4    2    6 ar
     5    2   11 ar
     6    2   23 1
     7    3    7 ar
     8    3   12 ar
     9    3   24 1
    10    4    8 ar
    11    4   12 ar
    12    4   25 1
    13    5    9 ar
    14    5   13 1
    15    6    9 ar
    16    6   14 1
    17    7   10 ar
    18    7   15 1
    19    8   10 ar
    20    8   16 1
    21    9   19 1
    22   10   20 1
    23   11   21 1
    24   12   21 1
    25   13   26 1
    26   13   27 1
    27   13   28 1
    28   14   29 1
    29   14   30 1
    30   14   31 1
    31   15   32 1
    32   15   33 1
    33   15   34 1
    34   16   35 1
    35   16   36 1
    36   16   37 1
    37   17   21 2
    38   18   21 2
    39   19   38 1
    40   20   39 1
