@<TRIPOS>MOLECULE
*****
   35    36     0     0     0
SMALL
NO_CHARGES

@<TRIPOS>ATOM
      1 C1         -0.4482    3.0282   -1.1500 C.ar      1 <0>         0.0000
      2 C2         -2.0994    4.4976   -0.1626 C.ar      1 <0>         0.0000
      3 C3         -1.1521    1.9067   -0.6874 C.ar      1 <0>         0.0000
      4 C4         -0.9224    4.3149   -0.8986 C.ar      1 <0>         0.0000
      5 C5         -2.3235    2.0760    0.0710 C.ar      1 <0>         0.0000
      6 C6         -2.7787    3.3826    0.3190 C.ar      1 <0>         0.0000
      7 C7         -0.5902    0.5567   -1.0514 C.2       1 <0>         0.0000
      8 C8         -1.9724   -3.2340   -2.7026 C.3       1 <0>         0.0000
      9 C9         -2.1631   -2.9938   -1.1987 C.3       1 <0>         0.0000
     10 C10        -2.2053   -1.9467   -3.5054 C.3       1 <0>         0.0000
     11 C11        -1.2759   -1.8487   -0.6932 C.3       1 <0>         0.0000
     12 C12        -1.3131   -0.8033   -3.0045 C.3       1 <0>         0.0000
     13 C13        -1.5284   -0.5559   -1.4928 C.3       1 <0>         0.0000
     14 C14        -2.6159    0.6076    1.8966 C.3       1 <0>         0.0000
     15 O1          0.6262    0.4056   -1.0846 O.2       1 <0>         0.0000
     16 O2         -0.2849    5.4453   -1.3437 O.3       1 <0>         0.0000
     17 O3         -3.0099    0.9928    0.5684 O.3       1 <0>         0.0000
     18 Cl1        -4.2359    3.6205    1.2610 Cl        1 <0>         0.0000
     19 H1          0.4698    2.8646   -1.7096 H         1 <0>         0.0000
     20 H2         -2.4656    5.5005    0.0295 H         1 <0>         0.0000
     21 H3         -2.6492   -4.0239   -3.0489 H         1 <0>         0.0000
     22 H4         -0.9498   -3.5920   -2.8843 H         1 <0>         0.0000
     23 H5         -3.2160   -2.7501   -1.0011 H         1 <0>         0.0000
     24 H6         -1.9420   -3.9090   -0.6369 H         1 <0>         0.0000
     25 H7         -2.0155   -2.1228   -4.5708 H         1 <0>         0.0000
     26 H8         -3.2594   -1.6496   -3.4186 H         1 <0>         0.0000
     27 H9         -1.4646   -1.6700    0.3713 H         1 <0>         0.0000
     28 H10        -0.2180   -2.1189   -0.7899 H         1 <0>         0.0000
     29 H11        -0.2581   -1.0487   -3.1725 H         1 <0>         0.0000
     30 H12        -1.5241    0.1150   -3.5661 H         1 <0>         0.0000
     31 H13        -2.5625   -0.2428   -1.3359 H         1 <0>         0.0000
     32 H14        -3.2120   -0.2714    2.1475 H         1 <0>         0.0000
     33 H15        -2.8228    1.4101    2.6127 H         1 <0>         0.0000
     34 H16        -1.5497    0.3537    1.9249 H         1 <0>         0.0000
     35 H17         0.5173    5.1891   -1.8262 H         1 <0>         0.0000
@<TRIPOS>BOND
     1    1    3 ar
     2    1    4 ar
     3    1   19 1
     4    2    4 ar
     5    2    6 ar
     6    2   20 1
     7    3    5 ar
     8    3    7 1
     9    4   16 1
    10    5    6 ar
    11    5   17 1
    12    6   18 1
    13    7   13 1
    14    7   15 2
    15    8   10 1
    16    8    9 1
    17    8   21 1
    18    8   22 1
    19    9   11 1
    20    9   23 1
    21    9   24 1
    22   10   12 1
    23   10   25 1
    24   10   26 1
    25   11   13 1
    26   11   27 1
    27   11   28 1
    28   12   13 1
    29   12   29 1
    30   12   30 1
    31   13   31 1
    32   14   17 1
    33   14   32 1
    34   14   33 1
    35   14   34 1
    36   16   35 1
