@<TRIPOS>MOLECULE
*****
   37    38     0     0     0
SMALL
NO_CHARGES

@<TRIPOS>ATOM
      1 C1          3.2068    1.2662    3.1564 C.ar      1 <0>         0.0000
      2 C2          3.4479    0.1607    3.9555 C.ar      1 <0>         0.0000
      3 C3          1.2860    0.2990    2.3499 C.ar      1 <0>         0.0000
      4 C4          1.4442   -0.7629    3.3139 C.ar      1 <0>         0.0000
      5 C5          0.0980    1.4880    0.5609 C.3       1 <0>         0.0000
      6 C6         -0.1888   -0.9160    0.7376 C.3       1 <0>         0.0000
      7 C7         -0.8937    1.0159   -0.5017 C.3       1 <0>         0.0000
      8 C8         -0.4888   -0.4643   -0.7033 C.3       1 <0>         0.0000
      9 C9         -0.9385    1.8924   -1.7509 C.3       1 <0>         0.0000
     10 C10         0.7362   -0.6458   -1.6051 C.3       1 <0>         0.0000
     11 C11        -0.8655   -1.2300    3.8828 C.3       1 <0>         0.0000
     12 C12         0.8453   -2.9197    4.2459 C.3       1 <0>         0.0000
     13 N1          2.1364    1.3278    2.3423 N.ar      1 <0>         0.0000
     14 N2          2.5455   -0.8368    4.0524 N.ar      1 <0>         0.0000
     15 N3          0.2518    0.3118    1.4313 N.pl3     1 <0>         0.0000
     16 N4          0.4489   -1.7426    3.4760 N.pl3     1 <0>         0.0000
     17 O1         -1.5767   -1.2697   -1.1795 O.3       1 <0>         0.0000
     18 H1          3.8879    2.1145    3.1371 H         1 <0>         0.0000
     19 H2          4.3479    0.0749    4.5599 H         1 <0>         0.0000
     20 H3          1.0571    1.7808    0.1152 H         1 <0>         0.0000
     21 H4         -0.2602    2.3461    1.1377 H         1 <0>         0.0000
     22 H5         -1.1022   -1.3276    1.1774 H         1 <0>         0.0000
     23 H6          0.5782   -1.6914    0.7735 H         1 <0>         0.0000
     24 H7         -1.8955    0.9848   -0.0557 H         1 <0>         0.0000
     25 H8          0.0502    2.0068   -2.2062 H         1 <0>         0.0000
     26 H9         -1.3068    2.8942   -1.5064 H         1 <0>         0.0000
     27 H10        -1.6157    1.4759   -2.5062 H         1 <0>         0.0000
     28 H11         0.5375   -0.3030   -2.6269 H         1 <0>         0.0000
     29 H12         1.0055   -1.7052   -1.6470 H         1 <0>         0.0000
     30 H13         1.5990   -0.0882   -1.2281 H         1 <0>         0.0000
     31 H14        -1.6216   -2.0039    3.7190 H         1 <0>         0.0000
     32 H15        -1.1321   -0.3517    3.2934 H         1 <0>         0.0000
     33 H16        -0.8761   -0.9505    4.9488 H         1 <0>         0.0000
     34 H17         0.0562   -3.6717    4.1481 H         1 <0>         0.0000
     35 H18         0.9995   -2.6987    5.3123 H         1 <0>         0.0000
     36 H19         1.7774   -3.3260    3.8498 H         1 <0>         0.0000
     37 H20        -1.6917   -1.0882   -2.1256 H         1 <0>         0.0000
@<TRIPOS>BOND
     1    1    2 ar
     2    1   13 ar
     3    1   18 1
     4    2   14 ar
     5    2   19 1
     6    3    4 ar
     7    3   13 ar
     8    3   15 1
     9    4   14 ar
    10    4   16 1
    11    5    7 1
    12    5   15 1
    13    5   20 1
    14    5   21 1
    15    6    8 1
    16    6   15 1
    17    6   22 1
    18    6   23 1
    19    7    8 1
    20    7    9 1
    21    7   24 1
    22    8   10 1
    23    8   17 1
    24    9   25 1
    25    9   26 1
    26    9   27 1
    27   10   28 1
    28   10   29 1
    29   10   30 1
    30   11   16 1
    31   11   31 1
    32   11   32 1
    33   11   33 1
    34   12   16 1
    35   12   34 1
    36   12   35 1
    37   12   36 1
    38   17   37 1
