@<TRIPOS>MOLECULE
*****
   28    28     0     0     0
SMALL
NO_CHARGES

@<TRIPOS>ATOM
      1 C1          0.6399    0.8237    0.3391 C.3       1 <0>         0.0000
      2 C2         -0.0042    2.1570   -0.0303 C.3       1 <0>         0.0000
      3 C3          0.8466    0.7228    1.8479 C.3       1 <0>         0.0000
      4 C4         -1.2931    2.3865    0.7521 C.3       1 <0>         0.0000
      5 C5         -0.4546    0.9714    2.6037 C.3       1 <0>         0.0000
      6 C6         -0.2265    3.8607    4.8114 C.3       1 <0>         0.0000
      7 C7         -2.2564    3.0851    5.9722 C.3       1 <0>         0.0000
      8 N1         -1.0128    2.3004    2.2158 N.pl3     1 <0>         0.0000
      9 N2         -1.4229    2.9823    4.7465 N.pl3     1 <0>         0.0000
     10 O1         -3.2898    1.8858    3.3223 O.2       1 <0>         0.0000
     11 O2         -2.5844    4.2416    2.8022 O.2       1 <0>         0.0000
     12 S1         -2.2551    2.8976    3.2348 S.o2      1 <0>         0.0000
     13 H1          1.6061    0.7283   -0.1714 H         1 <0>         0.0000
     14 H2          0.0094   -0.0029   -0.0066 H         1 <0>         0.0000
     15 H3          0.6987    2.9748    0.1644 H         1 <0>         0.0000
     16 H4         -0.2217    2.1668   -1.1058 H         1 <0>         0.0000
     17 H5          1.2275   -0.2765    2.0934 H         1 <0>         0.0000
     18 H6          1.6055    1.4454    2.1673 H         1 <0>         0.0000
     19 H7         -1.7211    3.3675    0.5152 H         1 <0>         0.0000
     20 H8         -2.0202    1.6157    0.4742 H         1 <0>         0.0000
     21 H9         -1.1722    0.1851    2.3456 H         1 <0>         0.0000
     22 H10        -0.2851    0.9441    3.6862 H         1 <0>         0.0000
     23 H11         0.3590    3.7526    3.8865 H         1 <0>         0.0000
     24 H12        -0.5459    4.9074    4.9228 H         1 <0>         0.0000
     25 H13         0.3933    3.5727    5.6734 H         1 <0>         0.0000
     26 H14        -3.1279    2.4202    5.8804 H         1 <0>         0.0000
     27 H15        -1.6596    2.7883    6.8473 H         1 <0>         0.0000
     28 H16        -2.5987    4.1230    6.0967 H         1 <0>         0.0000
@<TRIPOS>BOND
     1    1    3 1
     2    1    2 1
     3    1   13 1
     4    1   14 1
     5    2    4 1
     6    2   15 1
     7    2   16 1
     8    3    5 1
     9    3   17 1
    10    3   18 1
    11    4    8 1
    12    4   19 1
    13    4   20 1
    14    5    8 1
    15    5   21 1
    16    5   22 1
    17    6    9 1
    18    6   23 1
    19    6   24 1
    20    6   25 1
    21    7    9 1
    22    7   26 1
    23    7   27 1
    24    7   28 1
    25    8   12 1
    26    9   12 1
    27   10   12 2
    28   11   12 2
