@<TRIPOS>MOLECULE
*****
   31    31     0     0     0
SMALL
NO_CHARGES

@<TRIPOS>ATOM
      1 C1          1.9304   -0.9915    0.2843 C.2       1 <0>         0.0000
      2 C2          0.8086    1.1171   -0.4705 C.3       1 <0>         0.0000
      3 C3         -0.1108   -1.1072   -1.2782 C.3       1 <0>         0.0000
      4 C4         -0.3667    1.2440    0.5112 C.3       1 <0>         0.0000
      5 C5         -1.3894   -0.2812   -1.1053 C.3       1 <0>         0.0000
      6 C6          1.1734   -0.3322   -0.8739 C.3       1 <0>         0.0000
      7 C7          0.7244   -2.0909    3.5362 C.3       1 <0>         0.0000
      8 C8         -3.4801    0.1525    1.3538 C.3       1 <0>         0.0000
      9 C9          1.8006   -1.8589    2.4926 C.3       1 <0>         0.0000
     10 N1         -1.4206    0.2366    0.2644 N.3       1 <0>         0.0000
     11 O1          3.1404   -1.1620    0.2632 O.2       1 <0>         0.0000
     12 O2          2.0565   -0.2903   -1.9914 O.3       1 <0>         0.0000
     13 O3          1.1445   -1.3035    1.3196 O.3       1 <0>         0.0000
     14 O4         -2.6865    0.9130    0.4480 O.3       1 <0>         0.0000
     15 H1          0.5708    1.6211   -1.4112 H         1 <0>         0.0000
     16 H2          1.6894    1.6237   -0.0624 H         1 <0>         0.0000
     17 H3         -0.2042   -2.0215   -0.6880 H         1 <0>         0.0000
     18 H4          0.0065   -1.3910   -2.3266 H         1 <0>         0.0000
     19 H5         -0.0277    1.1320    1.5457 H         1 <0>         0.0000
     20 H6         -0.8008    2.2453    0.4067 H         1 <0>         0.0000
     21 H7         -1.4609    0.5217   -1.8563 H         1 <0>         0.0000
     22 H8         -2.2617   -0.9269   -1.2371 H         1 <0>         0.0000
     23 H9          0.2282   -1.1524    3.7994 H         1 <0>         0.0000
     24 H10        -0.0323   -2.7888    3.1670 H         1 <0>         0.0000
     25 H11         1.1741   -2.5121    4.4410 H         1 <0>         0.0000
     26 H12        -4.4169    0.7062    1.4660 H         1 <0>         0.0000
     27 H13        -2.9855    0.0542    2.3277 H         1 <0>         0.0000
     28 H14        -3.6942   -0.8490    0.9581 H         1 <0>         0.0000
     29 H15         2.3040   -2.7849    2.2017 H         1 <0>         0.0000
     30 H16         2.5627   -1.1517    2.8312 H         1 <0>         0.0000
     31 H17         2.9567   -0.4312   -1.6410 H         1 <0>         0.0000
@<TRIPOS>BOND
     1    1    6 1
     2    1   11 2
     3    1   13 1
     4    2    4 1
     5    2    6 1
     6    2   15 1
     7    2   16 1
     8    3    5 1
     9    3    6 1
    10    3   17 1
    11    3   18 1
    12    4   10 1
    13    4   19 1
    14    4   20 1
    15    5   10 1
    16    5   21 1
    17    5   22 1
    18    6   12 1
    19    7    9 1
    20    7   23 1
    21    7   24 1
    22    7   25 1
    23    8   14 1
    24    8   26 1
    25    8   27 1
    26    8   28 1
    27    9   13 1
    28    9   29 1
    29    9   30 1
    30   10   14 1
    31   12   31 1
