@<TRIPOS>MOLECULE
*****
   20    21     0     0     0
SMALL
NO_CHARGES

@<TRIPOS>ATOM
      1 C1          5.7870   -0.0650    1.1130 C.ar      1 <0>         0.0000
      2 C2          5.1550   -1.1750    1.6700 C.ar      1 <0>         0.0000
      3 C3          5.1700    0.6450    0.0850 C.ar      1 <0>         0.0000
      4 C4          3.9090   -1.5790    1.2010 C.ar      1 <0>         0.0000
      5 C5          3.9240    0.2500   -0.3890 C.ar      1 <0>         0.0000
      6 C6          1.2730   -0.8730   -3.6920 C.2       1 <0>         0.0000
      7 C7          0.0540   -1.4170   -3.4420 C.2       1 <0>         0.0000
      8 C8          3.2970   -0.8690    0.1670 C.ar      1 <0>         0.0000
      9 C9          1.4960   -1.2320   -1.5550 C.2       1 <0>         0.0000
     10 N1          2.1030   -0.7660   -2.6120 N.2       1 <0>         0.0000
     11 N2          2.0270   -1.3040   -0.2610 N.pl3     1 <0>         0.0000
     12 S1         -0.1050   -1.8300   -1.7860 S.3       1 <0>         0.0000
     13 H1          6.7370    0.2390    1.4710 H         1 <0>         0.0000
     14 H2          5.6260   -1.7130    2.4520 H         1 <0>         0.0000
     15 H3          5.6510    1.4910   -0.3360 H         1 <0>         0.0000
     16 H4          3.4310   -2.4240    1.6220 H         1 <0>         0.0000
     17 H5          3.4530    0.8000   -1.1610 H         1 <0>         0.0000
     18 H6          1.5770   -0.5480   -4.6550 H         1 <0>         0.0000
     19 H7         -0.7290   -1.5860   -4.1340 H         1 <0>         0.0000
     20 H8          1.4870   -1.8750    0.3980 H         1 <0>         0.0000
@<TRIPOS>BOND
     1    1    2 ar
     2    1    3 ar
     3    1   13 1
     4    2    4 ar
     5    2   14 1
     6    3    5 ar
     7    3   15 1
     8    4    8 ar
     9    4   16 1
    10    5    8 ar
    11    5   17 1
    12    6    7 2
    13    6   10 1
    14    6   18 1
    15    7   12 1
    16    7   19 1
    17    8   11 1
    18    9   10 2
    19    9   11 1
    20    9   12 1
    21   11   20 1
