@<TRIPOS>MOLECULE
*****
   24    26     0     0     0
SMALL
NO_CHARGES

@<TRIPOS>ATOM
      1 C1         -1.9074   -0.0169    2.0823 C.ar      1 <0>         0.0000
      2 C2         -0.7128    2.0822    2.1451 C.ar      1 <0>         0.0000
      3 C3         -2.4369    0.2466    3.3455 C.ar      1 <0>         0.0000
      4 C4         -1.2423    2.3457    3.4083 C.ar      1 <0>         0.0000
      5 C5         -0.7851   -2.4055   -1.5570 C.2       1 <0>         0.0000
      6 C6         -0.7367   -3.7197   -1.9686 C.2       1 <0>         0.0000
      7 C7          2.1569   -2.1163    1.2516 C.ar      1 <0>         0.0000
      8 C8          0.1919   -2.1090   -0.5552 C.ar      1 <0>         0.0000
      9 C9         -1.0453    0.9008    1.4820 C.ar      1 <0>         0.0000
     10 C10        -2.1044    1.4279    4.0085 C.ar      1 <0>         0.0000
     11 C11         0.9463   -3.2350   -0.2517 C.ar      1 <0>         0.0000
     12 C12         0.5138   -0.9426    0.1461 C.ar      1 <0>         0.0000
     13 N1          1.9476   -3.2997    0.6476 N.ar      1 <0>         0.0000
     14 N2          1.5084   -0.9510    1.0592 N.ar      1 <0>         0.0000
     15 S1          0.4816   -4.6030   -1.1554 S.3       1 <0>         0.0000
     16 S2         -0.3661    0.5622   -0.1392 S.3       1 <0>         0.0000
     17 Br1        -2.8207    1.7843    5.7205 Br        1 <0>         0.0000
     18 H1         -2.1783   -0.9423    1.5798 H         1 <0>         0.0000
     19 H2         -0.0419    2.8093    1.6940 H         1 <0>         0.0000
     20 H3         -3.1073   -0.4786    3.7997 H         1 <0>         0.0000
     21 H4         -0.9722    3.2709    3.9111 H         1 <0>         0.0000
     22 H5         -1.4948   -1.6961   -1.9641 H         1 <0>         0.0000
     23 H6         -1.3593   -4.2015   -2.7092 H         1 <0>         0.0000
     24 H7          2.9513   -2.0975    1.9895 H         1 <0>         0.0000
@<TRIPOS>BOND
     1    1    3 ar
     2    1    9 ar
     3    1   18 1
     4    2    4 ar
     5    2    9 ar
     6    2   19 1
     7    3   10 ar
     8    3   20 1
     9    4   10 ar
    10    4   21 1
    11    5    6 2
    12    5    8 1
    13    5   22 1
    14    6   15 1
    15    6   23 1
    16    7   13 ar
    17    7   14 ar
    18    7   24 1
    19    8   11 ar
    20    8   12 ar
    21    9   16 1
    22   10   17 1
    23   11   13 ar
    24   11   15 1
    25   12   14 ar
    26   12   16 1
