@<TRIPOS>MOLECULE
*****
   30    30     0     0     0
SMALL
NO_CHARGES

@<TRIPOS>ATOM
      1 C1          0.3814   -0.5183   -1.5868 C.2       1 <0>         0.0000
      2 C2          0.7293    1.9376   -1.2902 C.2       1 <0>         0.0000
      3 C3         -0.2224   -0.3486    0.8152 C.3       1 <0>         0.0000
      4 C4          1.3472    0.5677   -1.0749 C.3       1 <0>         0.0000
      5 C5         -0.4908   -1.1182   -0.4826 C.3       1 <0>         0.0000
      6 C6         -2.8563   -1.8933    0.1077 C.3       1 <0>         0.0000
      7 C7          1.9595    6.5770   -2.1927 C.3       1 <0>         0.0000
      8 C8         -1.9688   -1.1602   -0.9032 C.3       1 <0>         0.0000
      9 C9          2.3753    5.1116   -2.0175 C.3       1 <0>         0.0000
     10 C10         1.1767    4.2276   -1.7172 C.3       1 <0>         0.0000
     11 O1          0.3565   -0.8631   -2.7498 O.2       1 <0>         0.0000
     12 O2         -0.4659    2.1604   -1.1950 O.2       1 <0>         0.0000
     13 O3          1.6608    2.8640   -1.5662 O.3       1 <0>         0.0000
     14 S1          1.5214    0.2475    0.7243 S.3       1 <0>         0.0000
     15 H1         -0.8914    0.5096    0.9117 H         1 <0>         0.0000
     16 H2         -0.3100   -0.9739    1.7053 H         1 <0>         0.0000
     17 H3          2.3153    0.4912   -1.5697 H         1 <0>         0.0000
     18 H4         -0.1249   -2.1472   -0.3607 H         1 <0>         0.0000
     19 H5         -2.5182   -2.9254    0.2568 H         1 <0>         0.0000
     20 H6         -3.8933   -1.9290   -0.2414 H         1 <0>         0.0000
     21 H7         -2.8557   -1.3971    1.0843 H         1 <0>         0.0000
     22 H8          1.2518    6.6953   -3.0208 H         1 <0>         0.0000
     23 H9          1.4820    6.9678   -1.2872 H         1 <0>         0.0000
     24 H10         2.8299    7.2045   -2.4068 H         1 <0>         0.0000
     25 H11        -2.3191   -0.1313   -1.0414 H         1 <0>         0.0000
     26 H12        -2.0269   -1.6492   -1.8807 H         1 <0>         0.0000
     27 H13         3.1005    5.0187   -1.2014 H         1 <0>         0.0000
     28 H14         2.8687    4.7472   -2.9254 H         1 <0>         0.0000
     29 H15         0.6727    4.5204   -0.7912 H         1 <0>         0.0000
     30 H16         0.4390    4.2474   -2.5247 H         1 <0>         0.0000
@<TRIPOS>BOND
     1    1    4 1
     2    1    5 1
     3    1   11 2
     4    2    4 1
     5    2   12 2
     6    2   13 1
     7    3    5 1
     8    3   14 1
     9    3   15 1
    10    3   16 1
    11    4   14 1
    12    4   17 1
    13    5    8 1
    14    5   18 1
    15    6    8 1
    16    6   19 1
    17    6   20 1
    18    6   21 1
    19    7    9 1
    20    7   22 1
    21    7   23 1
    22    7   24 1
    23    8   25 1
    24    8   26 1
    25    9   10 1
    26    9   27 1
    27    9   28 1
    28   10   13 1
    29   10   29 1
    30   10   30 1
