@<TRIPOS>MOLECULE
*****
   30    30     0     0     0
SMALL
NO_CHARGES

@<TRIPOS>ATOM
      1 C1          0.7441   -0.4274   -0.9013 C.2       1 <0>         0.0000
      2 C2          1.4513    1.6834    0.2328 C.2       1 <0>         0.0000
      3 C3         -0.3731   -0.7881    1.2865 C.3       1 <0>         0.0000
      4 C4          1.7414    0.2001    0.0916 C.3       1 <0>         0.0000
      5 C5         -0.4626   -1.0721   -0.2170 C.3       1 <0>         0.0000
      6 C6         -3.0029   -1.3579   -0.3191 C.3       1 <0>         0.0000
      7 C7          3.6705    5.9350    1.1532 C.3       1 <0>         0.0000
      8 C8         -1.7785   -0.6214   -0.8717 C.3       1 <0>         0.0000
      9 C9          3.7635    4.4250    0.9040 C.3       1 <0>         0.0000
     10 C10         2.3912    3.8167    0.6695 C.3       1 <0>         0.0000
     11 O1          0.9362   -0.4215   -2.0993 O.2       1 <0>         0.0000
     12 O2          0.3289    2.1577    0.1853 O.2       1 <0>         0.0000
     13 O3          2.5725    2.3908    0.4442 O.3       1 <0>         0.0000
     14 S1          1.4213   -0.6430    1.6908 S.3       1 <0>         0.0000
     15 H1         -0.8764    0.1469    1.5430 H         1 <0>         0.0000
     16 H2         -0.7831   -1.5951    1.8959 H         1 <0>         0.0000
     17 H3          2.7690    0.0290   -0.2288 H         1 <0>         0.0000
     18 H4         -0.3356   -2.1517   -0.3772 H         1 <0>         0.0000
     19 H5         -2.9104   -2.4413   -0.4587 H         1 <0>         0.0000
     20 H6         -3.9144   -1.0322   -0.8305 H         1 <0>         0.0000
     21 H7         -3.1419   -1.1696    0.7511 H         1 <0>         0.0000
     22 H8          3.2246    6.4545    0.2976 H         1 <0>         0.0000
     23 H9          3.0586    6.1576    2.0346 H         1 <0>         0.0000
     24 H10         4.6634    6.3627    1.3212 H         1 <0>         0.0000
     25 H11        -1.8861    0.4591   -0.7253 H         1 <0>         0.0000
     26 H12        -1.6925   -0.7886   -1.9501 H         1 <0>         0.0000
     27 H13         4.2321    3.9280    1.7608 H         1 <0>         0.0000
     28 H14         4.3969    4.2235    0.0330 H         1 <0>         0.0000
     29 H15         1.7308    3.9498    1.5316 H         1 <0>         0.0000
     30 H16         1.8955    4.2467   -0.2059 H         1 <0>         0.0000
@<TRIPOS>BOND
     1    1    4 1
     2    1    5 1
     3    1   11 2
     4    2    4 1
     5    2   12 2
     6    2   13 1
     7    3    5 1
     8    3   14 1
     9    3   15 1
    10    3   16 1
    11    4   14 1
    12    4   17 1
    13    5    8 1
    14    5   18 1
    15    6    8 1
    16    6   19 1
    17    6   20 1
    18    6   21 1
    19    7    9 1
    20    7   22 1
    21    7   23 1
    22    7   24 1
    23    8   25 1
    24    8   26 1
    25    9   10 1
    26    9   27 1
    27    9   28 1
    28   10   13 1
    29   10   29 1
    30   10   30 1
