@<TRIPOS>MOLECULE
*****
   36    38     0     0     0
SMALL
NO_CHARGES

@<TRIPOS>ATOM
      1 C1         -3.0729    1.5032    3.9393 C.ar      1 <0>         0.0000
      2 C2         -3.5494    0.2082    3.7092 C.ar      1 <0>         0.0000
      3 C3         -1.6938    1.7295    4.0060 C.ar      1 <0>         0.0000
      4 C4         -0.2842    2.6180   -0.5360 C.ar      1 <0>         0.0000
      5 C5         -1.4659    2.3418    0.1640 C.ar      1 <0>         0.0000
      6 C6         -2.6508   -0.8510    3.5442 C.ar      1 <0>         0.0000
      7 C7         -0.8016    0.6669    3.8450 C.ar      1 <0>         0.0000
      8 C8          0.6011    1.5857   -0.8508 C.ar      1 <0>         0.0000
      9 C9         -1.7768    1.0405    0.5664 C.ar      1 <0>         0.0000
     10 C10        -1.2686   -0.6350    3.6101 C.ar      1 <0>         0.0000
     11 C11         0.2808    0.2875   -0.4527 C.ar      1 <0>         0.0000
     12 C12        -0.8923    0.0140    0.2590 C.ar      1 <0>         0.0000
     13 C13         0.9500   -2.0077   -0.2228 C.cat     1 <0>         0.0000
     14 C14        -0.0481   -2.0849    0.9216 C.3       1 <0>         0.0000
     15 C15        -0.2900   -1.7832    3.4679 C.3       1 <0>         0.0000
     16 C16         0.6432   -1.6985    2.2419 C.3       1 <0>         0.0000
     17 N1          1.1036   -0.8277   -0.7965 N.pl3     1 <0>         0.0000
     18 N2          1.6436   -3.0853   -0.5833 N.pl3     1 <0>         0.0000
     19 O1         -1.1845   -1.2923    0.5933 O.3       1 <0>         0.0000
     20 H1         -3.7696    2.3255    4.0774 H         1 <0>         0.0000
     21 H2         -4.6189    0.0208    3.6658 H         1 <0>         0.0000
     22 H3         -1.3142    2.7300    4.1948 H         1 <0>         0.0000
     23 H4         -0.0510    3.6344   -0.8362 H         1 <0>         0.0000
     24 H5         -2.1477    3.1492    0.4123 H         1 <0>         0.0000
     25 H6         -3.0316   -1.8540    3.3658 H         1 <0>         0.0000
     26 H7          0.2682    0.8544    3.9186 H         1 <0>         0.0000
     27 H8          1.5193    1.7872   -1.3977 H         1 <0>         0.0000
     28 H9         -2.6760    0.8147    1.1283 H         1 <0>         0.0000
     29 H10        -0.4313   -3.1066    0.9879 H         1 <0>         0.0000
     30 H11         0.3546   -1.8138    4.3533 H         1 <0>         0.0000
     31 H12        -0.8302   -2.7360    3.4497 H         1 <0>         0.0000
     32 H13         1.0650   -0.6921    2.1564 H         1 <0>         0.0000
     33 H14         1.4869   -2.3860    2.3795 H         1 <0>         0.0000
     34 H15         1.7771   -0.7006   -1.5488 H         1 <0>         0.0000
     35 H16         2.3406   -3.0765   -1.3218 H         1 <0>         0.0000
     36 H17         1.4788   -3.9725   -0.1217 H         1 <0>         0.0000
@<TRIPOS>BOND
     1    1    3 ar
     2    1    2 ar
     3    1   20 1
     4    2    6 ar
     5    2   21 1
     6    3    7 ar
     7    3   22 1
     8    4    5 ar
     9    4    8 ar
    10    4   23 1
    11    5    9 ar
    12    5   24 1
    13    6   10 ar
    14    6   25 1
    15    7   10 ar
    16    7   26 1
    17    8   11 ar
    18    8   27 1
    19    9   12 ar
    20    9   28 1
    21   10   15 1
    22   11   12 ar
    23   11   17 1
    24   12   19 1
    25   13   14 1
    26   13   17 2
    27   13   18 1
    28   14   16 1
    29   14   19 1
    30   14   29 1
    31   15   16 1
    32   15   30 1
    33   15   31 1
    34   16   32 1
    35   16   33 1
    36   17   34 1
    37   18   35 1
    38   18   36 1
