@<TRIPOS>MOLECULE
*****
   30    30     0     0     0
SMALL
NO_CHARGES

@<TRIPOS>ATOM
      1 C1          0.5112    0.8979   -0.2113 C.2       1 <0>         0.0000
      2 C2          0.1300   -0.2501   -0.8378 C.2       1 <0>         0.0000
      3 C3          1.1474    2.0601   -0.8184 C.2       1 <0>         0.0000
      4 C4         -0.1820   -0.8997    1.4632 C.3       1 <0>         0.0000
      5 C5         -0.6237   -1.2331    0.0262 C.3       1 <0>         0.0000
      6 C6         -2.6598   -1.4128   -1.5691 C.3       1 <0>         0.0000
      7 C7          3.3544    1.3362   -4.3497 C.3       1 <0>         0.0000
      8 C8         -2.1538   -1.0956   -0.1587 C.3       1 <0>         0.0000
      9 C9          2.3444    2.4877   -4.2808 C.3       1 <0>         0.0000
     10 C10         2.0462    2.9540   -2.8647 C.3       1 <0>         0.0000
     11 O1          1.4234    3.1015   -0.2523 O.2       1 <0>         0.0000
     12 O2          0.3100   -0.5756   -2.1333 O.3       1 <0>         0.0000
     13 O3          1.4096    1.8544   -2.1591 O.3       1 <0>         0.0000
     14 S1          0.1174    0.9234    1.5335 S.3       1 <0>         0.0000
     15 H1         -0.9400   -1.1639    2.2035 H         1 <0>         0.0000
     16 H2          0.7542   -1.4080    1.7112 H         1 <0>         0.0000
     17 H3         -0.3259   -2.2554   -0.2348 H         1 <0>         0.0000
     18 H4         -2.2683   -0.7095   -2.3082 H         1 <0>         0.0000
     19 H5         -3.7533   -1.3636   -1.6001 H         1 <0>         0.0000
     20 H6         -2.3591   -2.4191   -1.8816 H         1 <0>         0.0000
     21 H7          4.3058    1.6206   -3.8866 H         1 <0>         0.0000
     22 H8          2.9870    0.4463   -3.8293 H         1 <0>         0.0000
     23 H9          3.5570    1.0556   -5.3880 H         1 <0>         0.0000
     24 H10        -2.6279   -1.7774    0.5581 H         1 <0>         0.0000
     25 H11        -2.4500   -0.0810    0.1314 H         1 <0>         0.0000
     26 H12         1.4052    2.2024   -4.7702 H         1 <0>         0.0000
     27 H13         2.7299    3.3543   -4.8315 H         1 <0>         0.0000
     28 H14         2.9564    3.2288   -2.3247 H         1 <0>         0.0000
     29 H15         1.3672    3.8108   -2.8493 H         1 <0>         0.0000
     30 H16         0.7616    0.1829   -2.5636 H         1 <0>         0.0000
@<TRIPOS>BOND
     1    1    2 2
     2    1    3 1
     3    1   14 1
     4    2    5 1
     5    2   12 1
     6    3   11 2
     7    3   13 1
     8    4    5 1
     9    4   14 1
    10    4   15 1
    11    4   16 1
    12    5    8 1
    13    5   17 1
    14    6    8 1
    15    6   18 1
    16    6   19 1
    17    6   20 1
    18    7    9 1
    19    7   21 1
    20    7   22 1
    21    7   23 1
    22    8   24 1
    23    8   25 1
    24    9   10 1
    25    9   26 1
    26    9   27 1
    27   10   13 1
    28   10   28 1
    29   10   29 1
    30   12   30 1
