@<TRIPOS>MOLECULE
*****
   27    29     0     0     0
SMALL
NO_CHARGES

@<TRIPOS>ATOM
      1 C1          0.1346    2.0762    1.0306 C.ar      1 <0>         0.0000
      2 C2         -0.3940    2.4212    2.2885 C.ar      1 <0>         0.0000
      3 C3         -2.7977   -0.6085   -1.3953 C.2       1 <0>         0.0000
      4 C4         -3.4484   -1.8655   -1.2296 C.2       1 <0>         0.0000
      5 C5         -0.4559   -0.2806    1.3524 C.ar      1 <0>         0.0000
      6 C6          0.1140    0.7534    0.5784 C.ar      1 <0>         0.0000
      7 C7         -0.9592    1.4006    3.0314 C.ar      1 <0>         0.0000
      8 C8         -0.9936    0.0832    2.5706 C.ar      1 <0>         0.0000
      9 C9         -1.4960   -0.7454   -1.8069 C.2       1 <0>         0.0000
     10 C10        -2.6091   -2.9135   -1.5201 C.2       1 <0>         0.0000
     11 C11        -2.1010    0.1710    4.5153 C.3       1 <0>         0.0000
     12 N1          0.6553    0.3888   -0.7032 N.pl3     1 <0>         0.0000
     13 O1         -1.1651    1.8207   -1.9586 O.2       1 <0>         0.0000
     14 O2          0.4904    0.3354   -3.2103 O.2       1 <0>         0.0000
     15 O3         -1.5187    1.4661    4.2879 O.3       1 <0>         0.0000
     16 O4         -1.5754   -0.7261    3.5222 O.3       1 <0>         0.0000
     17 S1         -1.0176   -2.4058   -2.0080 S.3       1 <0>         0.0000
     18 S2         -0.3714    0.5934   -2.0565 S.o2      1 <0>         0.0000
     19 Cl1        -3.0050   -4.5937   -1.4588 Cl        1 <0>         0.0000
     20 H1          0.5446    2.8506    0.3898 H         1 <0>         0.0000
     21 H2         -0.3727    3.4424    2.6543 H         1 <0>         0.0000
     22 H3         -3.2505    0.3601   -1.2166 H         1 <0>         0.0000
     23 H4         -4.4778   -1.9947   -0.9159 H         1 <0>         0.0000
     24 H5         -0.4544   -1.3059    1.0002 H         1 <0>         0.0000
     25 H6         -1.8185   -0.1833    5.5087 H         1 <0>         0.0000
     26 H7         -3.1913    0.2394    4.4029 H         1 <0>         0.0000
     27 H8          1.5444    0.8353   -0.9318 H         1 <0>         0.0000
@<TRIPOS>BOND
     1    1    2 ar
     2    1    6 ar
     3    1   20 1
     4    2    7 ar
     5    2   21 1
     6    3    4 1
     7    3    9 2
     8    3   22 1
     9    4   10 2
    10    4   23 1
    11    5    6 ar
    12    5    8 ar
    13    5   24 1
    14    6   12 1
    15    7    8 ar
    16    7   15 1
    17    8   16 1
    18    9   17 1
    19    9   18 1
    20   10   17 1
    21   10   19 1
    22   11   15 1
    23   11   16 1
    24   11   25 1
    25   11   26 1
    26   12   18 1
    27   12   27 1
    28   13   18 2
    29   14   18 2
