@<TRIPOS>MOLECULE
*****
   37    39     0     0     0
SMALL
NO_CHARGES

@<TRIPOS>ATOM
      1 C1          1.6537   -0.9622   -1.7897 C.ar      1 <0>         0.0000
      2 C2          2.4956   -0.0398   -1.1560 C.ar      1 <0>         0.0000
      3 C3          1.5444   -2.2802   -1.3285 C.ar      1 <0>         0.0000
      4 C4         -2.4831   -7.8736   -3.8331 C.ar      1 <0>         0.0000
      5 C5         -2.0791   -6.5414   -3.9313 C.ar      1 <0>         0.0000
      6 C6          3.2532   -0.4174   -0.0379 C.ar      1 <0>         0.0000
      7 C7         -1.0619   -8.1433   -1.9308 C.ar      1 <0>         0.0000
      8 C8          2.2975   -2.6607   -0.2150 C.ar      1 <0>         0.0000
      9 C9         -0.6409   -6.7975   -2.0141 C.ar      1 <0>         0.0000
     10 C10        -1.9768   -8.7029   -2.8221 C.ar      1 <0>         0.0000
     11 C11        -1.1615   -5.9704   -3.0411 C.ar      1 <0>         0.0000
     12 C12         3.1306   -1.7243    0.4018 C.ar      1 <0>         0.0000
     13 C13         2.4038   -3.9608    0.5076 C.2       1 <0>         0.0000
     14 C14         0.3227   -6.3840   -0.9961 C.2       1 <0>         0.0000
     15 C15        -2.4144  -10.1445   -2.7069 C.3       1 <0>         0.0000
     16 C16        -0.7711   -4.5255   -3.2080 C.3       1 <0>         0.0000
     17 N1          3.2050   -4.0252    1.5387 N.2       1 <0>         0.0000
     18 N2          0.8510   -5.2118   -0.8668 N.2       1 <0>         0.0000
     19 N3          1.7272   -5.0938    0.1751 N.pl3     1 <0>         0.0000
     20 O1          5.3885   -2.6400    1.5361 O.2       1 <0>         0.0000
     21 O2          3.4892   -1.9506    3.0559 O.2       1 <0>         0.0000
     22 S1          3.9528   -2.5255    1.7930 S.o2      1 <0>         0.0000
     23 H1          1.0741   -0.6520   -2.6547 H         1 <0>         0.0000
     24 H2          2.5634    0.9772   -1.5324 H         1 <0>         0.0000
     25 H3          0.8957   -2.9912   -1.8170 H         1 <0>         0.0000
     26 H4         -3.1985   -8.2715   -4.5499 H         1 <0>         0.0000
     27 H5         -2.4889   -5.9227   -4.7262 H         1 <0>         0.0000
     28 H6          3.9105    0.2855    0.4649 H         1 <0>         0.0000
     29 H7         -0.6541   -8.7675   -1.1378 H         1 <0>         0.0000
     30 H8          0.6017   -7.1764   -0.2876 H         1 <0>         0.0000
     31 H9         -2.2251  -10.6904   -3.6374 H         1 <0>         0.0000
     32 H10        -1.8853  -10.6610   -1.9015 H         1 <0>         0.0000
     33 H11        -3.4882  -10.2149   -2.5007 H         1 <0>         0.0000
     34 H12        -1.0163   -3.9444   -2.3135 H         1 <0>         0.0000
     35 H13         0.3064   -4.4238   -3.3708 H         1 <0>         0.0000
     36 H14        -1.2928   -4.0839   -4.0610 H         1 <0>         0.0000
     37 H15         1.9166   -5.8981    0.7770 H         1 <0>         0.0000
@<TRIPOS>BOND
     1    1    2 ar
     2    1    3 ar
     3    1   23 1
     4    2    6 ar
     5    2   24 1
     6    3    8 ar
     7    3   25 1
     8    4    5 ar
     9    4   10 ar
    10    4   26 1
    11    5   11 ar
    12    5   27 1
    13    6   12 ar
    14    6   28 1
    15    7    9 ar
    16    7   10 ar
    17    7   29 1
    18    8   12 ar
    19    8   13 1
    20    9   11 ar
    21    9   14 1
    22   10   15 1
    23   11   16 1
    24   12   22 1
    25   13   17 2
    26   13   19 1
    27   14   18 2
    28   14   30 1
    29   15   31 1
    30   15   32 1
    31   15   33 1
    32   16   34 1
    33   16   35 1
    34   16   36 1
    35   17   22 1
    36   18   19 1
    37   19   37 1
    38   20   22 2
    39   21   22 2
