@<TRIPOS>MOLECULE
*****
   20    20     0     0     0
SMALL
NO_CHARGES

@<TRIPOS>ATOM
      1 C1         -3.4372   -0.7095   -0.1924 C.1       1 <0>         0.0000
      2 C2          1.4805   -1.5756    0.0083 C.ar      1 <0>         0.0000
      3 C3          2.2297   -0.9874    2.6416 C.ar      1 <0>         0.0000
      4 C4          0.6153   -0.8338    0.8179 C.ar      1 <0>         0.0000
      5 C5          2.7017   -2.0136    0.5221 C.ar      1 <0>         0.0000
      6 C6          1.0176   -0.5511    2.1358 C.ar      1 <0>         0.0000
      7 C7          3.0914   -1.7324    1.8267 C.ar      1 <0>         0.0000
      8 C8         -2.4397   -0.0307   -1.0309 C.3       1 <0>         0.0000
      9 C9         -1.0431   -0.6344   -0.8872 C.3       1 <0>         0.0000
     10 N1         -4.2278   -1.2639    0.4543 N.1       1 <0>         0.0000
     11 O1         -0.5980   -0.3502    0.4362 O.3       1 <0>         0.0000
     12 F1          3.5087   -2.7271   -0.2906 F         1 <0>         0.0000
     13 F2          0.1907    0.1694    2.9222 F         1 <0>         0.0000
     14 Br1         4.7639   -2.3473    2.4939 Br        1 <0>         0.0000
     15 H1          1.2394   -1.8300   -1.0167 H         1 <0>         0.0000
     16 H2          2.4951   -0.7460    3.6651 H         1 <0>         0.0000
     17 H3         -2.7566   -0.1031   -2.0764 H         1 <0>         0.0000
     18 H4         -2.4109    1.0295   -0.7624 H         1 <0>         0.0000
     19 H5         -0.3707   -0.1723   -1.6211 H         1 <0>         0.0000
     20 H6         -1.0710   -1.7166   -1.0591 H         1 <0>         0.0000
@<TRIPOS>BOND
     1    1    8 1
     2    1   10 3
     3    2    4 ar
     4    2    5 ar
     5    2   15 1
     6    3    6 ar
     7    3    7 ar
     8    3   16 1
     9    4    6 ar
    10    4   11 1
    11    5    7 ar
    12    5   12 1
    13    6   13 1
    14    7   14 1
    15    8    9 1
    16    8   17 1
    17    8   18 1
    18    9   11 1
    19    9   19 1
    20    9   20 1
