@<TRIPOS>MOLECULE
*****
   36    38     0     0     0
SMALL
NO_CHARGES

@<TRIPOS>ATOM
      1 C1          0.5502    5.5785   -5.2906 C.1       1 <0>         0.0000
      2 C2          0.0206    1.7285   -0.2986 C.ar      1 <0>         0.0000
      3 C3         -0.7521    0.5407   -0.3148 C.ar      1 <0>         0.0000
      4 C4         -0.5730    2.9568   -0.5104 C.ar      1 <0>         0.0000
      5 C5         -2.1124    0.5984   -0.5375 C.ar      1 <0>         0.0000
      6 C6         -4.0286    4.2289   -1.1764 C.ar      1 <0>         0.0000
      7 C7          0.2224    5.6904   -3.9191 C.2       1 <0>         0.0000
      8 C8         -1.9728    3.0458   -0.7453 C.ar      1 <0>         0.0000
      9 C9         -2.6671    4.2746   -0.9748 C.ar      1 <0>         0.0000
     10 C10        -2.7547    1.8458   -0.7549 C.ar      1 <0>         0.0000
     11 C11        -4.7273    2.9838   -1.1570 C.ar      1 <0>         0.0000
     12 C12         1.0757    5.9801   -2.8071 C.2       1 <0>         0.0000
     13 C13        -1.0521    5.5021   -3.3650 C.2       1 <0>         0.0000
     14 C14        -6.2213    2.9606   -1.3648 C.3       1 <0>         0.0000
     15 C15         2.5449    6.2566   -2.8395 C.3       1 <0>         0.0000
     16 C16        -1.9460    5.6078   -1.0068 C.3       1 <0>         0.0000
     17 N1          0.7953    5.4770   -6.4289 N.1       1 <0>         0.0000
     18 N2         -4.1087    1.8356   -0.9611 N.ar      1 <0>         0.0000
     19 N3          0.3908    5.9668   -1.6725 N.2       1 <0>         0.0000
     20 N4         -0.9134    5.6830   -2.0305 N.pl3     1 <0>         0.0000
     21 N5         -2.2681    5.2761   -3.9836 N.pl3     1 <0>         0.0000
     22 H1          1.0910    1.6711   -0.1197 H         1 <0>         0.0000
     23 H2         -0.2680   -0.4181   -0.1491 H         1 <0>         0.0000
     24 H3          0.0369    3.8539   -0.5029 H         1 <0>         0.0000
     25 H4         -2.7290   -0.2953   -0.5510 H         1 <0>         0.0000
     26 H5         -4.5868    5.1455   -1.3561 H         1 <0>         0.0000
     27 H6         -6.5014    3.4780   -2.2893 H         1 <0>         0.0000
     28 H7         -6.5737    1.9293   -1.4121 H         1 <0>         0.0000
     29 H8         -6.7347    3.4702   -0.5410 H         1 <0>         0.0000
     30 H9          2.7609    7.1467   -3.4395 H         1 <0>         0.0000
     31 H10         2.9155    6.4166   -1.8250 H         1 <0>         0.0000
     32 H11         3.0897    5.4202   -3.2895 H         1 <0>         0.0000
     33 H12        -2.6711    6.4123   -1.1674 H         1 <0>         0.0000
     34 H13        -1.4320    5.7999   -0.0627 H         1 <0>         0.0000
     35 H14        -2.1663    5.0357   -4.9649 H         1 <0>         0.0000
     36 H15        -2.8764    4.6225   -3.4988 H         1 <0>         0.0000
@<TRIPOS>BOND
     1    1    7 1
     2    1   17 3
     3    2    3 ar
     4    2    4 ar
     5    2   22 1
     6    3    5 ar
     7    3   23 1
     8    4    8 ar
     9    4   24 1
    10    5   10 ar
    11    5   25 1
    12    6    9 ar
    13    6   11 ar
    14    6   26 1
    15    7   12 1
    16    7   13 2
    17    8    9 ar
    18    8   10 ar
    19    9   16 1
    20   10   18 ar
    21   11   14 1
    22   11   18 ar
    23   12   15 1
    24   12   19 2
    25   13   20 1
    26   13   21 1
    27   14   27 1
    28   14   28 1
    29   14   29 1
    30   15   30 1
    31   15   31 1
    32   15   32 1
    33   16   20 1
    34   16   33 1
    35   16   34 1
    36   19   20 1
    37   21   35 1
    38   21   36 1
