@<TRIPOS>MOLECULE
*****
   41    43     0     0     0
SMALL
NO_CHARGES

@<TRIPOS>ATOM
      1 C1         -7.4622    4.7737   -7.9818 C.ar      1 <0>         0.0000
      2 C2         -6.1821    4.3710   -7.5963 C.ar      1 <0>         0.0000
      3 C3         -1.4048    0.5302   -1.2770 C.ar      1 <0>         0.0000
      4 C4         -1.8934   -0.7607   -1.0917 C.ar      1 <0>         0.0000
      5 C5         -2.7357    1.3850   -4.6555 C.2       1 <0>         0.0000
      6 C6         -2.9716   -0.6902   -3.2699 C.ar      1 <0>         0.0000
      7 C7         -7.1376    3.4990   -5.5520 C.ar      1 <0>         0.0000
      8 C8         -2.4825    0.6169   -3.4662 C.ar      1 <0>         0.0000
      9 C9         -2.2507    2.6480   -4.8086 C.2       1 <0>         0.0000
     10 C10        -8.5913    4.5553   -7.1831 C.ar      1 <0>         0.0000
     11 C11        -8.4167    3.9045   -5.9422 C.ar      1 <0>         0.0000
     12 C12        -6.0164    3.7248   -6.3662 C.ar      1 <0>         0.0000
     13 C13        -1.7007    1.2115   -2.4597 C.ar      1 <0>         0.0000
     14 C14        -2.6747   -1.3606   -2.0925 C.ar      1 <0>         0.0000
     15 C15        -1.4519    3.2613   -3.7309 C.2       1 <0>         0.0000
     16 C16        -2.4738    3.4333   -6.0573 C.2       1 <0>         0.0000
     17 C17        -9.9589    5.0084   -7.6385 C.3       1 <0>         0.0000
     18 C18        -9.5980    3.6471   -5.0360 C.3       1 <0>         0.0000
     19 C19        -1.2674    3.9339   -6.8079 C.3       1 <0>         0.0000
     20 N1         -3.6398    3.6738   -6.5591 N.2       1 <0>         0.0000
     21 N2         -4.7658    3.2508   -5.9302 N.pl3     1 <0>         0.0000
     22 O1         -0.9990    4.3846   -3.7350 O.2       1 <0>         0.0000
     23 O2         -1.2053    2.4754   -2.6052 O.3       1 <0>         0.0000
     24 Br1        -3.3398   -3.1356   -1.8229 Br        1 <0>         0.0000
     25 H1         -7.5830    5.2774   -8.9387 H         1 <0>         0.0000
     26 H2         -5.3205    4.5538   -8.2275 H         1 <0>         0.0000
     27 H3         -0.7988    1.0169   -0.5192 H         1 <0>         0.0000
     28 H4         -1.6714   -1.3009   -0.1774 H         1 <0>         0.0000
     29 H5         -3.3254    0.9368   -5.4525 H         1 <0>         0.0000
     30 H6         -3.5754   -1.1600   -4.0402 H         1 <0>         0.0000
     31 H7         -7.0087    2.9978   -4.5932 H         1 <0>         0.0000
     32 H8        -10.6623    4.1700   -7.7122 H         1 <0>         0.0000
     33 H9        -10.4007    5.7319   -6.9423 H         1 <0>         0.0000
     34 H10        -9.9067    5.4844   -8.6214 H         1 <0>         0.0000
     35 H11       -10.1003    4.5811   -4.7581 H         1 <0>         0.0000
     36 H12       -10.3495    3.0178   -5.5272 H         1 <0>         0.0000
     37 H13        -9.2919    3.1450   -4.1143 H         1 <0>         0.0000
     38 H14        -0.5908    3.1067   -7.0560 H         1 <0>         0.0000
     39 H15        -1.5920    4.4169   -7.7316 H         1 <0>         0.0000
     40 H16        -0.7039    4.6502   -6.2034 H         1 <0>         0.0000
     41 H17        -4.7027    3.0037   -4.9439 H         1 <0>         0.0000
@<TRIPOS>BOND
     1    1    2 ar
     2    1   10 ar
     3    1   25 1
     4    2   12 ar
     5    2   26 1
     6    3    4 ar
     7    3   13 ar
     8    3   27 1
     9    4   14 ar
    10    4   28 1
    11    5    8 1
    12    5    9 2
    13    5   29 1
    14    6    8 ar
    15    6   14 ar
    16    6   30 1
    17    7   11 ar
    18    7   12 ar
    19    7   31 1
    20    8   13 ar
    21    9   15 1
    22    9   16 1
    23   10   11 ar
    24   10   17 1
    25   11   18 1
    26   12   21 1
    27   13   23 1
    28   14   24 1
    29   15   22 2
    30   15   23 1
    31   16   19 1
    32   16   20 2
    33   17   32 1
    34   17   33 1
    35   17   34 1
    36   18   35 1
    37   18   36 1
    38   18   37 1
    39   19   38 1
    40   19   39 1
    41   19   40 1
    42   20   21 1
    43   21   41 1
