@<TRIPOS>MOLECULE
*****
   34    36     0     0     0
SMALL
NO_CHARGES

@<TRIPOS>ATOM
      1 C1         -0.4176    0.6495   -1.8827 C.ar      1 <0>         0.0000
      2 C2          0.1519   -0.2940   -1.0170 C.ar      1 <0>         0.0000
      3 C3         -7.1632   -1.3308   -5.8857 C.ar      1 <0>         0.0000
      4 C4         -6.2983   -1.1205   -4.8095 C.ar      1 <0>         0.0000
      5 C5         -6.6635   -1.3957   -7.1893 C.ar      1 <0>         0.0000
      6 C6         -1.4048    0.2541   -2.7789 C.ar      1 <0>         0.0000
      7 C7         -0.2779   -1.6164   -1.0567 C.ar      1 <0>         0.0000
      8 C8         -4.4306   -1.0677   -6.3534 C.ar      1 <0>         0.0000
      9 C9         -4.9230   -1.0068   -5.0413 C.ar      1 <0>         0.0000
     10 C10        -5.2903   -1.2502   -7.4431 C.ar      1 <0>         0.0000
     11 C11        -1.8536   -1.0747   -2.8210 C.ar      1 <0>         0.0000
     12 C12        -1.2873   -2.0219   -1.9482 C.ar      1 <0>         0.0000
     13 C13        -4.0201   -0.7139   -3.8769 C.2       1 <0>         0.0000
     14 C14        -2.7464   -2.8224   -4.2928 C.3       1 <0>         0.0000
     15 C15        -3.0197   -3.8294   -3.1781 C.3       1 <0>         0.0000
     16 C16        -4.7600   -1.2629   -8.8585 C.3       1 <0>         0.0000
     17 N1         -2.8367   -1.4485   -3.7903 N.am      1 <0>         0.0000
     18 O1         -4.3090    0.1724   -3.0788 O.2       1 <0>         0.0000
     19 S1         -1.7419   -3.7413   -1.8746 S.3       1 <0>         0.0000
     20 H1         -0.0901    1.6850   -1.8621 H         1 <0>         0.0000
     21 H2          0.9283   -0.0009   -0.3156 H         1 <0>         0.0000
     22 H3         -8.2304   -1.4377   -5.7096 H         1 <0>         0.0000
     23 H4         -6.6762   -1.0370   -3.7949 H         1 <0>         0.0000
     24 H5         -7.3471   -1.5530   -8.0211 H         1 <0>         0.0000
     25 H6         -1.8534    0.9757   -3.4527 H         1 <0>         0.0000
     26 H7          0.1625   -2.3508   -0.3863 H         1 <0>         0.0000
     27 H8         -3.3625   -0.9537   -6.5268 H         1 <0>         0.0000
     28 H9         -1.7497   -2.9823   -4.7156 H         1 <0>         0.0000
     29 H10        -3.4790   -2.9629   -5.0846 H         1 <0>         0.0000
     30 H11        -4.0082   -3.6492   -2.7474 H         1 <0>         0.0000
     31 H12        -2.9877   -4.8510   -3.5671 H         1 <0>         0.0000
     32 H13        -4.9096   -0.2891   -9.3397 H         1 <0>         0.0000
     33 H14        -3.6886   -1.4815   -8.8837 H         1 <0>         0.0000
     34 H15        -5.2737   -2.0112   -9.4701 H         1 <0>         0.0000
@<TRIPOS>BOND
     1    1    2 ar
     2    1    6 ar
     3    1   20 1
     4    2    7 ar
     5    2   21 1
     6    3    4 ar
     7    3    5 ar
     8    3   22 1
     9    4    9 ar
    10    4   23 1
    11    5   10 ar
    12    5   24 1
    13    6   11 ar
    14    6   25 1
    15    7   12 ar
    16    7   26 1
    17    8    9 ar
    18    8   10 ar
    19    8   27 1
    20    9   13 1
    21   10   16 1
    22   11   12 ar
    23   11   17 1
    24   12   19 1
    25   13   17 am
    26   13   18 2
    27   14   15 1
    28   14   17 1
    29   14   28 1
    30   14   29 1
    31   15   19 1
    32   15   30 1
    33   15   31 1
    34   16   32 1
    35   16   33 1
    36   16   34 1
