@<TRIPOS>MOLECULE
*****
   20    20     0     0     0
SMALL
NO_CHARGES

@<TRIPOS>ATOM
      1 C1         -0.9522   -2.6845   -0.2194 C.1       1 <0>         0.0000
      2 C2          2.3968   -0.8598   -0.2496 C.ar      1 <0>         0.0000
      3 C3          1.8176   -1.3660    2.4449 C.ar      1 <0>         0.0000
      4 C4          1.1665   -0.4627    0.2787 C.ar      1 <0>         0.0000
      5 C5          3.3168   -1.5121    0.5638 C.ar      1 <0>         0.0000
      6 C6          0.8995   -0.7229    1.6266 C.ar      1 <0>         0.0000
      7 C7          3.0423   -1.7689    1.9082 C.ar      1 <0>         0.0000
      8 C8         -1.5195   -1.4859   -0.8523 C.3       1 <0>         0.0000
      9 C9         -0.4618   -0.5491   -1.4632 C.3       1 <0>         0.0000
     10 N1         -0.4975   -3.6403    0.2618 N.1       1 <0>         0.0000
     11 O1          0.2394    0.2170   -0.4785 O.3       1 <0>         0.0000
     12 F1          4.4982   -1.8860    0.0317 F         1 <0>         0.0000
     13 F2         -0.2997   -0.3618    2.1364 F         1 <0>         0.0000
     14 Br1         4.3260   -2.6567    2.9954 Br        1 <0>         0.0000
     15 H1          2.6466   -0.6567   -1.2861 H         1 <0>         0.0000
     16 H2          1.5666   -1.5625    3.4814 H         1 <0>         0.0000
     17 H3         -2.2000   -1.8152   -1.6455 H         1 <0>         0.0000
     18 H4         -2.1079   -0.9354   -0.1126 H         1 <0>         0.0000
     19 H5         -0.9684    0.1913   -2.0854 H         1 <0>         0.0000
     20 H6          0.2386   -1.1151   -2.0875 H         1 <0>         0.0000
@<TRIPOS>BOND
     1    1    8 1
     2    1   10 3
     3    2    4 ar
     4    2    5 ar
     5    2   15 1
     6    3    6 ar
     7    3    7 ar
     8    3   16 1
     9    4    6 ar
    10    4   11 1
    11    5    7 ar
    12    5   12 1
    13    6   13 1
    14    7   14 1
    15    8    9 1
    16    8   17 1
    17    8   18 1
    18    9   11 1
    19    9   19 1
    20    9   20 1
