@<TRIPOS>MOLECULE
*****
   39    41     0     0     0
SMALL
NO_CHARGES

@<TRIPOS>ATOM
      1 C1         -0.9189   -0.9224   -1.3595 C.ar      1 <0>         0.0000
      2 C2         -0.8778    0.4700   -1.3741 C.ar      1 <0>         0.0000
      3 C3          5.9706    0.1506   -1.3270 C.ar      1 <0>         0.0000
      4 C4         -0.0800   -1.6338   -0.5045 C.ar      1 <0>         0.0000
      5 C5          4.7408    0.0102   -1.9668 C.ar      1 <0>         0.0000
      6 C6          5.3325   -1.4869    0.3010 C.ar      1 <0>         0.0000
      7 C7         -0.0155    1.1801   -0.5259 C.ar      1 <0>         0.0000
      8 C8          6.2975   -0.6025   -0.1881 C.ar      1 <0>         0.0000
      9 C9          0.8204   -0.9574    0.3252 C.ar      1 <0>         0.0000
     10 C10         0.8305    0.4505    0.3355 C.ar      1 <0>         0.0000
     11 C11         3.7801   -0.8869   -1.4805 C.ar      1 <0>         0.0000
     12 C12         4.0853   -1.6228   -0.3214 C.ar      1 <0>         0.0000
     13 C13        -0.0581    2.6844   -0.6403 C.2       1 <0>         0.0000
     14 C14         2.1504   -0.9118    2.3535 C.3       1 <0>         0.0000
     15 C15         2.6525    0.4619    1.9373 C.3       1 <0>         0.0000
     16 C16         7.6530   -0.4794    0.4683 C.3       1 <0>         0.0000
     17 N1          1.7032   -1.6804    1.1833 N.pl3     1 <0>         0.0000
     18 O1         -0.7623    3.2422   -1.4590 O.2       1 <0>         0.0000
     19 O2          2.1996   -3.5108   -0.5389 O.2       1 <0>         0.0000
     20 O3          3.5682   -3.3308    1.6037 O.2       1 <0>         0.0000
     21 O4          1.6340    1.1669    1.1992 O.3       1 <0>         0.0000
     22 O5          2.5709   -1.0578   -2.0785 O.3       1 <0>         0.0000
     23 O6          0.7221    3.4130    0.1899 O.3       1 <0>         0.0000
     24 S1          2.8857   -2.7119    0.4660 S.o2      1 <0>         0.0000
     25 H1         -1.6062   -1.4563   -2.0087 H         1 <0>         0.0000
     26 H2         -1.5179    1.0490   -2.0313 H         1 <0>         0.0000
     27 H3          6.6924    0.8590   -1.7269 H         1 <0>         0.0000
     28 H4         -0.0845   -2.7169   -0.4859 H         1 <0>         0.0000
     29 H5          4.5175    0.6000   -2.8540 H         1 <0>         0.0000
     30 H6          5.5308   -2.0864    1.1840 H         1 <0>         0.0000
     31 H7          2.9274   -1.4699    2.8758 H         1 <0>         0.0000
     32 H8          1.2922   -0.8138    3.0254 H         1 <0>         0.0000
     33 H9          2.8692    1.0893    2.8043 H         1 <0>         0.0000
     34 H10         3.5464    0.3878    1.3129 H         1 <0>         0.0000
     35 H11         7.9863    0.5625    0.5023 H         1 <0>         0.0000
     36 H12         7.6366   -0.8633    1.4918 H         1 <0>         0.0000
     37 H13         8.4095   -1.0479   -0.0850 H         1 <0>         0.0000
     38 H14         2.4514   -0.3956   -2.7781 H         1 <0>         0.0000
     39 H15         1.2283    2.8138    0.7766 H         1 <0>         0.0000
@<TRIPOS>BOND
     1    1    2 ar
     2    1    4 ar
     3    1   25 1
     4    2    7 ar
     5    2   26 1
     6    3    5 ar
     7    3    8 ar
     8    3   27 1
     9    4    9 ar
    10    4   28 1
    11    5   11 ar
    12    5   29 1
    13    6    8 ar
    14    6   12 ar
    15    6   30 1
    16    7   10 ar
    17    7   13 1
    18    8   16 1
    19    9   10 ar
    20    9   17 1
    21   10   21 1
    22   11   12 ar
    23   11   22 1
    24   12   24 1
    25   13   18 2
    26   13   23 1
    27   14   15 1
    28   14   17 1
    29   14   31 1
    30   14   32 1
    31   15   21 1
    32   15   33 1
    33   15   34 1
    34   16   35 1
    35   16   36 1
    36   16   37 1
    37   17   24 1
    38   19   24 2
    39   20   24 2
    40   22   38 1
    41   23   39 1
