@<TRIPOS>MOLECULE
*****
   35    37     0     0     0
SMALL
NO_CHARGES

@<TRIPOS>ATOM
      1 C1          7.5639   -3.4978    1.9667 C.1       1 <0>         0.0000
      2 C2          6.6821   -5.3764    8.2520 C.ar      1 <0>         0.0000
      3 C3          0.5112   -0.2815    3.0119 C.ar      1 <0>         0.0000
      4 C4          7.5428   -6.1804    7.4977 C.ar      1 <0>         0.0000
      5 C5          6.1116   -4.2341    7.6758 C.ar      1 <0>         0.0000
      6 C6          0.5987    0.4078    1.7988 C.ar      1 <0>         0.0000
      7 C7          1.5228   -1.1710    3.3642 C.ar      1 <0>         0.0000
      8 C8          7.8258   -5.8439    6.1746 C.ar      1 <0>         0.0000
      9 C9          6.3763   -3.9080    6.3483 C.ar      1 <0>         0.0000
     10 C10         1.6904    0.1937    0.9551 C.ar      1 <0>         0.0000
     11 C11         2.6276   -1.3832    2.5186 C.ar      1 <0>         0.0000
     12 C12         7.2264   -4.7197    5.5703 C.ar      1 <0>         0.0000
     13 C13         2.7234   -0.6969    1.2849 C.ar      1 <0>         0.0000
     14 C14         3.6511   -2.3425    2.9670 C.2       1 <0>         0.0000
     15 C15         5.5041   -3.3018    3.2620 C.2       1 <0>         0.0000
     16 C16         7.5839   -4.4236    4.1854 C.2       1 <0>         0.0000
     17 C17         6.8960   -3.7606    3.2133 C.2       1 <0>         0.0000
     18 C18         3.8622   -0.8902    0.3096 C.3       1 <0>         0.0000
     19 N1          8.1204   -3.2977    0.9626 N.1       1 <0>         0.0000
     20 N2          4.9842   -2.3109    2.5913 N.2       1 <0>         0.0000
     21 N3          3.3676   -3.3167    3.8154 N.2       1 <0>         0.0000
     22 O1          4.6005   -3.9632    4.0130 O.3       1 <0>         0.0000
     23 H1          6.4672   -5.6290    9.2869 H         1 <0>         0.0000
     24 H2         -0.3329   -0.1245    3.6776 H         1 <0>         0.0000
     25 H3          7.9997   -7.0601    7.9423 H         1 <0>         0.0000
     26 H4          5.4615   -3.5944    8.2661 H         1 <0>         0.0000
     27 H5         -0.1801    1.1084    1.5086 H         1 <0>         0.0000
     28 H6          1.4733   -1.7098    4.3053 H         1 <0>         0.0000
     29 H7          8.5046   -6.4633    5.5930 H         1 <0>         0.0000
     30 H8          5.9443   -3.0077    5.9268 H         1 <0>         0.0000
     31 H9          1.7449    0.7271    0.0093 H         1 <0>         0.0000
     32 H10         8.5675   -4.7793    3.8848 H         1 <0>         0.0000
     33 H11         4.7982   -0.4833    0.6999 H         1 <0>         0.0000
     34 H12         4.0496   -1.9479    0.1056 H         1 <0>         0.0000
     35 H13         3.6338   -0.3933   -0.6368 H         1 <0>         0.0000
@<TRIPOS>BOND
     1    1   17 1
     2    1   19 3
     3    2    5 ar
     4    2    4 ar
     5    2   23 1
     6    3    6 ar
     7    3    7 ar
     8    3   24 1
     9    4    8 ar
    10    4   25 1
    11    5    9 ar
    12    5   26 1
    13    6   10 ar
    14    6   27 1
    15    7   11 ar
    16    7   28 1
    17    8   12 ar
    18    8   29 1
    19    9   12 ar
    20    9   30 1
    21   10   13 ar
    22   10   31 1
    23   11   13 ar
    24   11   14 1
    25   12   16 1
    26   13   18 1
    27   14   20 1
    28   14   21 2
    29   15   17 1
    30   15   20 2
    31   15   22 1
    32   16   17 2
    33   16   32 1
    34   18   33 1
    35   18   34 1
    36   18   35 1
    37   21   22 1
