@<TRIPOS>MOLECULE
*****
   27    29     0     0     0
SMALL
NO_CHARGES

@<TRIPOS>ATOM
      1 C1          0.6979    1.0021    1.5936 C.ar      1 <0>         0.0000
      2 C2          0.6371    1.6371    2.8494 C.ar      1 <0>         0.0000
      3 C3          0.2455   -2.7882   -2.9047 C.2       1 <0>         0.0000
      4 C4         -0.4036   -3.0016   -4.1556 C.2       1 <0>         0.0000
      5 C5         -1.6669    0.3690    1.7193 C.ar      1 <0>         0.0000
      6 C6         -0.4313    0.3925    1.0387 C.ar      1 <0>         0.0000
      7 C7         -0.5746    1.5954    3.5123 C.ar      1 <0>         0.0000
      8 C8         -1.6956    0.9703    2.9605 C.ar      1 <0>         0.0000
      9 C9         -0.5981   -2.2526   -1.9630 C.2       1 <0>         0.0000
     10 C10        -1.7230   -2.6218   -4.1139 C.2       1 <0>         0.0000
     11 C11        -2.2198    1.6453    5.0279 C.3       1 <0>         0.0000
     12 N1         -0.3714   -0.2135   -0.2669 N.pl3     1 <0>         0.0000
     13 O1          1.2626   -2.2785   -0.1496 O.2       1 <0>         0.0000
     14 O2         -1.1603   -2.4636    0.6244 O.2       1 <0>         0.0000
     15 O3         -0.9066    2.1497    4.7293 O.3       1 <0>         0.0000
     16 O4         -2.7695    1.1132    3.8116 O.3       1 <0>         0.0000
     17 S1         -2.2105   -1.9990   -2.5646 S.3       1 <0>         0.0000
     18 S2         -0.1535   -1.9204   -0.2832 S.o2      1 <0>         0.0000
     19 Cl1        -2.8591   -2.7112   -5.4117 Cl        1 <0>         0.0000
     20 H1          1.6410    0.9737    1.0549 H         1 <0>         0.0000
     21 H2          1.5043    2.1246    3.2824 H         1 <0>         0.0000
     22 H3          1.2825   -3.0225   -2.6907 H         1 <0>         0.0000
     23 H4          0.0715   -3.4141   -5.0382 H         1 <0>         0.0000
     24 H5         -2.5361   -0.1081    1.2826 H         1 <0>         0.0000
     25 H6         -2.1389    0.8419    5.7723 H         1 <0>         0.0000
     26 H7         -2.8496    2.4640    5.3816 H         1 <0>         0.0000
     27 H8          0.3747    0.1909   -0.8344 H         1 <0>         0.0000
@<TRIPOS>BOND
     1    1    2 ar
     2    1    6 ar
     3    1   20 1
     4    2    7 ar
     5    2   21 1
     6    3    4 1
     7    3    9 2
     8    3   22 1
     9    4   10 2
    10    4   23 1
    11    5    6 ar
    12    5    8 ar
    13    5   24 1
    14    6   12 1
    15    7    8 ar
    16    7   15 1
    17    8   16 1
    18    9   17 1
    19    9   18 1
    20   10   17 1
    21   10   19 1
    22   11   15 1
    23   11   16 1
    24   11   25 1
    25   11   26 1
    26   12   18 1
    27   12   27 1
    28   13   18 2
    29   14   18 2
