@<TRIPOS>MOLECULE
*****
   31    33     0     0     0
SMALL
NO_CHARGES

@<TRIPOS>ATOM
      1 C1         -0.5085    0.6520   -1.7594 C.ar      1 <0>         0.0000
      2 C2         -0.7171    0.0138   -0.5294 C.ar      1 <0>         0.0000
      3 C3         -4.9709   -1.6683   -8.1063 C.ar      1 <0>         0.0000
      4 C4         -4.6556   -1.2224   -6.8207 C.ar      1 <0>         0.0000
      5 C5         -1.0450    0.1031   -2.9192 C.ar      1 <0>         0.0000
      6 C6         -3.9926   -2.2541   -8.9164 C.ar      1 <0>         0.0000
      7 C7         -1.4620   -1.1599   -0.4762 C.ar      1 <0>         0.0000
      8 C8         -2.3651   -1.9665   -7.1227 C.ar      1 <0>         0.0000
      9 C9         -3.3574   -1.3845   -6.3207 C.ar      1 <0>         0.0000
     10 C10        -1.8071   -1.0739   -2.8757 C.ar      1 <0>         0.0000
     11 C11        -2.7045   -2.3809   -8.4051 C.ar      1 <0>         0.0000
     12 C12        -2.0219   -1.7137   -1.6415 C.ar      1 <0>         0.0000
     13 C13        -3.0318   -0.8205   -4.9643 C.2       1 <0>         0.0000
     14 C14        -2.4075   -3.0927   -4.1347 C.3       1 <0>         0.0000
     15 C15        -3.4504   -3.5877   -3.1356 C.3       1 <0>         0.0000
     16 N1         -2.3026   -1.6305   -4.0980 N.am      1 <0>         0.0000
     17 O1         -3.3651    0.3267   -4.6856 O.2       1 <0>         0.0000
     18 F1         -1.7403   -2.9312   -9.1869 F         1 <0>         0.0000
     19 S1         -2.9574   -3.2110   -1.4165 S.3       1 <0>         0.0000
     20 H1          0.0729    1.5678   -1.8140 H         1 <0>         0.0000
     21 H2         -0.2992    0.4278    0.3841 H         1 <0>         0.0000
     22 H3         -5.9815   -1.5522   -8.4875 H         1 <0>         0.0000
     23 H4         -5.4034   -0.7366   -6.2018 H         1 <0>         0.0000
     24 H5         -0.8907    0.5884   -3.8767 H         1 <0>         0.0000
     25 H6         -4.2101   -2.5981   -9.9229 H         1 <0>         0.0000
     26 H7         -1.6238   -1.6575    0.4771 H         1 <0>         0.0000
     27 H8         -1.3443   -2.0822   -6.7708 H         1 <0>         0.0000
     28 H9         -1.4275   -3.5242   -3.9102 H         1 <0>         0.0000
     29 H10        -2.6969   -3.4084   -5.1347 H         1 <0>         0.0000
     30 H11        -4.4212   -3.1354   -3.3551 H         1 <0>         0.0000
     31 H12        -3.5498   -4.6753   -3.1926 H         1 <0>         0.0000
@<TRIPOS>BOND
     1    1    2 ar
     2    1    5 ar
     3    1   20 1
     4    2    7 ar
     5    2   21 1
     6    3    4 ar
     7    3    6 ar
     8    3   22 1
     9    4    9 ar
    10    4   23 1
    11    5   10 ar
    12    5   24 1
    13    6   11 ar
    14    6   25 1
    15    7   12 ar
    16    7   26 1
    17    8    9 ar
    18    8   11 ar
    19    8   27 1
    20    9   13 1
    21   10   12 ar
    22   10   16 1
    23   11   18 1
    24   12   19 1
    25   13   16 am
    26   13   17 2
    27   14   15 1
    28   14   16 1
    29   14   28 1
    30   14   29 1
    31   15   19 1
    32   15   30 1
    33   15   31 1
