@<TRIPOS>MOLECULE
*****
   21    22     0     0     0
SMALL
NO_CHARGES

@<TRIPOS>ATOM
      1 C1          0.0269   -1.5996    1.0988 C.ar      1 <0>         0.0000
      2 C2          0.4948   -0.2952    0.9458 C.ar      1 <0>         0.0000
      3 C3          0.1884   -2.2233    2.3377 C.ar      1 <0>         0.0000
      4 C4          1.1055    0.3265    2.0461 C.ar      1 <0>         0.0000
      5 C5          1.3248   -3.4926    7.3113 C.2       1 <0>         0.0000
      6 C6          0.8129   -1.5163    3.3774 C.ar      1 <0>         0.0000
      7 C7          2.2781   -1.6258    7.9545 C.2       1 <0>         0.0000
      8 C8          0.9789   -2.1814    4.6803 C.2       1 <0>         0.0000
      9 N1          1.2665   -0.2556    3.2339 N.ar      1 <0>         0.0000
     10 N2          1.6798   -3.6337    8.5591 N.2       1 <0>         0.0000
     11 N3          2.2878   -2.4480    8.9758 N.2       1 <0>         0.0000
     12 N4          1.5419   -1.5773    5.6624 N.2       1 <0>         0.0000
     13 N5          1.6775   -2.2279    6.8558 N.pl3     1 <0>         0.0000
     14 S1          2.9254    0.0034    7.9554 S.3       1 <0>         0.0000
     15 H1         -0.4526   -2.1216    0.2753 H         1 <0>         0.0000
     16 H2          0.3948    0.2360    0.0039 H         1 <0>         0.0000
     17 H3         -0.1624   -3.2395    2.4986 H         1 <0>         0.0000
     18 H4          1.4813    1.3450    1.9584 H         1 <0>         0.0000
     19 H5          0.8298   -4.2432    6.7131 H         1 <0>         0.0000
     20 H6          0.5977   -3.2037    4.7517 H         1 <0>         0.0000
     21 H7          2.5917    0.2323    6.6658 H         1 <0>         0.0000
@<TRIPOS>BOND
     1    1    2 ar
     2    1    3 ar
     3    1   15 1
     4    2    4 ar
     5    2   16 1
     6    3    6 ar
     7    3   17 1
     8    4    9 ar
     9    4   18 1
    10    5   10 2
    11    5   13 1
    12    5   19 1
    13    6    8 1
    14    6    9 ar
    15    7   11 2
    16    7   13 1
    17    7   14 1
    18    8   12 2
    19    8   20 1
    20   10   11 1
    21   12   13 1
    22   14   21 1
