@<TRIPOS>MOLECULE
*****
   35    37     0     0     0
SMALL
NO_CHARGES

@<TRIPOS>ATOM
      1 C1          0.1927   -4.6681    1.7026 C.ar      1 <0>         0.0000
      2 C2         -0.4207   -2.2374    0.7633 C.ar      1 <0>         0.0000
      3 C3          0.0412   -0.2351    4.1892 C.2       1 <0>         0.0000
      4 C4         -0.6322   -1.1982   -0.2181 C.2       1 <0>         0.0000
      5 C5         -0.1137    0.3099    5.5066 C.2       1 <0>         0.0000
      6 C6          1.3559   -0.6197    4.1443 C.2       1 <0>         0.0000
      7 C7         -0.8036   -2.6106    2.0846 C.ar      1 <0>         0.0000
      8 C8          0.3280   -3.1950    0.0651 C.ar      1 <0>         0.0000
      9 C9         -1.4480    0.0600   -0.1621 C.3       1 <0>         0.0000
     10 C10        -1.3424    0.8970    6.1317 C.3       1 <0>         0.0000
     11 C11         2.1938   -1.2820    3.1040 C.3       1 <0>         0.0000
     12 C12        -2.0003   -2.3791    4.1838 C.3       1 <0>         0.0000
     13 C13        -0.9998   -0.3904    3.1141 C.3       1 <0>         0.0000
     14 N1         -0.5152   -3.8570    2.5049 N.ar      1 <0>         0.0000
     15 N2          0.6875   -4.4056    0.4884 N.ar      1 <0>         0.0000
     16 N3         -0.0326   -1.4989   -1.3469 N.2       1 <0>         0.0000
     17 N4          1.0118    0.2613    6.1873 N.2       1 <0>         0.0000
     18 N5         -1.4742   -1.7806    2.9542 N.pl3     1 <0>         0.0000
     19 O1          1.9500   -0.3336    5.3226 O.3       1 <0>         0.0000
     20 O2          0.6025   -2.7540   -1.1780 O.3       1 <0>         0.0000
     21 H1          0.4016   -5.6589    2.1015 H         1 <0>         0.0000
     22 H2         -0.9006    0.8781    0.3165 H         1 <0>         0.0000
     23 H3         -1.6957    0.3741   -1.1779 H         1 <0>         0.0000
     24 H4         -2.3722   -0.1045    0.3980 H         1 <0>         0.0000
     25 H5         -2.1375    0.1490    6.2141 H         1 <0>         0.0000
     26 H6         -1.1106    1.2671    7.1322 H         1 <0>         0.0000
     27 H7         -1.7282    1.7287    5.5330 H         1 <0>         0.0000
     28 H8          3.2357   -0.9657    3.1962 H         1 <0>         0.0000
     29 H9          2.1561   -2.3714    3.2097 H         1 <0>         0.0000
     30 H10         1.8348   -1.0324    2.1030 H         1 <0>         0.0000
     31 H11        -2.7082   -1.6713    4.6238 H         1 <0>         0.0000
     32 H12        -1.2132   -2.6028    4.9124 H         1 <0>         0.0000
     33 H13        -2.5215   -3.3053    3.9453 H         1 <0>         0.0000
     34 H14        -1.8633    0.2443    3.3352 H         1 <0>         0.0000
     35 H15        -0.5936   -0.0555    2.1646 H         1 <0>         0.0000
@<TRIPOS>BOND
     1    1   14 ar
     2    1   15 ar
     3    1   21 1
     4    2    4 1
     5    2    7 ar
     6    2    8 ar
     7    3    5 1
     8    3    6 2
     9    3   13 1
    10    4    9 1
    11    4   16 2
    12    5   10 1
    13    5   17 2
    14    6   11 1
    15    6   19 1
    16    7   14 ar
    17    7   18 1
    18    8   15 ar
    19    8   20 1
    20    9   22 1
    21    9   23 1
    22    9   24 1
    23   10   25 1
    24   10   26 1
    25   10   27 1
    26   11   28 1
    27   11   29 1
    28   11   30 1
    29   12   18 1
    30   12   31 1
    31   12   32 1
    32   12   33 1
    33   13   18 1
    34   13   34 1
    35   13   35 1
    36   16   20 1
    37   17   19 1
