@<TRIPOS>MOLECULE
*****
   27    29     0     0     0
SMALL
NO_CHARGES

@<TRIPOS>ATOM
      1 C1          1.4618    1.4066    1.4802 C.ar      1 <0>         0.0000
      2 C2          0.7525    2.2403    2.3651 C.ar      1 <0>         0.0000
      3 C3         -0.6580    0.1168   -2.8661 C.2       1 <0>         0.0000
      4 C4         -1.8784    0.8297   -3.0454 C.2       1 <0>         0.0000
      5 C5         -0.5213    0.0112    1.1135 C.ar      1 <0>         0.0000
      6 C6          0.8353    0.3209    0.8618 C.ar      1 <0>         0.0000
      7 C7         -0.5716    1.9253    2.6068 C.ar      1 <0>         0.0000
      8 C8         -1.1901    0.8300    2.0009 C.ar      1 <0>         0.0000
      9 C9          0.2660    0.8352   -2.1466 C.2       1 <0>         0.0000
     10 C10        -1.8362    2.0665   -2.4470 C.2       1 <0>         0.0000
     11 C11        -2.7363    1.9432    3.1732 C.3       1 <0>         0.0000
     12 N1          1.5742   -0.4585   -0.0847 N.pl3     1 <0>         0.0000
     13 O1          2.6940    1.4159   -1.4027 O.2       1 <0>         0.0000
     14 O2          2.2319   -0.8749   -2.4761 O.2       1 <0>         0.0000
     15 O3         -1.4633    2.5472    3.4540 O.3       1 <0>         0.0000
     16 O4         -2.4910    0.7290    2.4399 O.3       1 <0>         0.0000
     17 S1         -0.3202    2.4004   -1.6666 S.3       1 <0>         0.0000
     18 S2          1.8522    0.2440   -1.6161 S.o2      1 <0>         0.0000
     19 Cl1        -3.1021    3.2435   -2.4320 Cl        1 <0>         0.0000
     20 H1          2.5008    1.6107    1.2486 H         1 <0>         0.0000
     21 H2          1.2294    3.0878    2.8463 H         1 <0>         0.0000
     22 H3         -0.4543   -0.8737   -3.2588 H         1 <0>         0.0000
     23 H4         -2.7382    0.4598   -3.5924 H         1 <0>         0.0000
     24 H5         -1.0203   -0.8157    0.6172 H         1 <0>         0.0000
     25 H6         -3.2384    1.7030    4.1121 H         1 <0>         0.0000
     26 H7         -3.3341    2.6245    2.5529 H         1 <0>         0.0000
     27 H8          1.2046   -1.3969   -0.2294 H         1 <0>         0.0000
@<TRIPOS>BOND
     1    1    2 ar
     2    1    6 ar
     3    1   20 1
     4    2    7 ar
     5    2   21 1
     6    3    4 1
     7    3    9 2
     8    3   22 1
     9    4   10 2
    10    4   23 1
    11    5    6 ar
    12    5    8 ar
    13    5   24 1
    14    6   12 1
    15    7    8 ar
    16    7   15 1
    17    8   16 1
    18    9   17 1
    19    9   18 1
    20   10   17 1
    21   10   19 1
    22   11   15 1
    23   11   16 1
    24   11   25 1
    25   11   26 1
    26   12   18 1
    27   12   27 1
    28   13   18 2
    29   14   18 2
