@<TRIPOS>MOLECULE
*****
   37    39     0     0     0
SMALL
NO_CHARGES

@<TRIPOS>ATOM
      1 C1          1.3153   -6.6733   -1.5383 C.ar      1 <0>         0.0000
      2 C2          0.6512   -5.4983   -1.8815 C.ar      1 <0>         0.0000
      3 C3          2.3987   -6.5901   -0.6591 C.ar      1 <0>         0.0000
      4 C4         -1.6112   -0.8198   -3.8309 C.2       1 <0>         0.0000
      5 C5          1.1071   -4.2834   -1.3616 C.ar      1 <0>         0.0000
      6 C6         -1.2931   -2.1002   -3.5083 C.2       1 <0>         0.0000
      7 C7          2.2075   -4.3052   -0.4779 C.ar      1 <0>         0.0000
      8 C8         -2.3243   -3.1270   -3.4047 C.2       1 <0>         0.0000
      9 C9         -3.9630   -1.3339   -3.9782 C.2       1 <0>         0.0000
     10 C10         0.4440   -2.0114   -0.6498 C.3       1 <0>         0.0000
     11 C11         1.8560   -1.5288   -0.3312 C.3       1 <0>         0.0000
     12 C12        -3.2302    0.9572   -4.4165 C.3       1 <0>         0.0000
     13 C13        -4.7592   -3.5835   -3.5720 C.3       1 <0>         0.0000
     14 N1          2.8268   -5.4401   -0.1309 N.ar      1 <0>         0.0000
     15 N2         -2.8918   -0.4272   -4.0596 N.am      1 <0>         0.0000
     16 N3         -3.6318   -2.6415   -3.6490 N.am      1 <0>         0.0000
     17 N4          0.4257   -3.0645   -1.6753 N.pl3     1 <0>         0.0000
     18 O1         -2.1261   -4.3027   -3.1286 O.2       1 <0>         0.0000
     19 O2         -5.1112   -0.9697   -4.1868 O.2       1 <0>         0.0000
     20 O3          0.7902   -3.6307   -4.1448 O.2       1 <0>         0.0000
     21 O4          1.1403   -1.2326   -3.3732 O.2       1 <0>         0.0000
     22 S1          2.8900   -2.8823    0.3424 S.3       1 <0>         0.0000
     23 S2          0.4248   -2.5154   -3.2840 S.o2      1 <0>         0.0000
     24 H1          0.9944   -7.6328   -1.9321 H         1 <0>         0.0000
     25 H2         -0.2094   -5.4951   -2.5402 H         1 <0>         0.0000
     26 H3          2.9458   -7.4829   -0.3608 H         1 <0>         0.0000
     27 H4         -0.8364   -0.0646   -3.9167 H         1 <0>         0.0000
     28 H5         -0.0389   -2.4245    0.2405 H         1 <0>         0.0000
     29 H6         -0.1662   -1.1747   -1.0001 H         1 <0>         0.0000
     30 H7          2.3154   -1.1106   -1.2277 H         1 <0>         0.0000
     31 H8          1.8273   -0.7595    0.4459 H         1 <0>         0.0000
     32 H9         -3.7121    0.9822   -5.3954 H         1 <0>         0.0000
     33 H10        -2.3105    1.5419   -4.4411 H         1 <0>         0.0000
     34 H11        -3.9177    1.3748   -3.6790 H         1 <0>         0.0000
     35 H12        -5.4809   -3.2312   -2.8330 H         1 <0>         0.0000
     36 H13        -4.3586   -4.5529   -3.2860 H         1 <0>         0.0000
     37 H14        -5.2536   -3.6459   -4.5435 H         1 <0>         0.0000
@<TRIPOS>BOND
     1    1    2 ar
     2    1    3 ar
     3    1   24 1
     4    2    5 ar
     5    2   25 1
     6    3   14 ar
     7    3   26 1
     8    4    6 2
     9    4   15 1
    10    4   27 1
    11    5    7 ar
    12    5   17 1
    13    6    8 1
    14    6   23 1
    15    7   14 ar
    16    7   22 1
    17    8   16 am
    18    8   18 2
    19    9   15 am
    20    9   16 am
    21    9   19 2
    22   10   11 1
    23   10   17 1
    24   10   28 1
    25   10   29 1
    26   11   22 1
    27   11   30 1
    28   11   31 1
    29   12   15 1
    30   12   32 1
    31   12   33 1
    32   12   34 1
    33   13   16 1
    34   13   35 1
    35   13   36 1
    36   13   37 1
    37   17   23 1
    38   20   23 2
    39   21   23 2
