@<TRIPOS>MOLECULE
*****
   36    38     0     0     0
SMALL
NO_CHARGES

@<TRIPOS>ATOM
      1 C1          1.7555    6.1043   -4.3165 C.1       1 <0>         0.0000
      2 C2          0.0777    2.2491    0.0577 C.ar      1 <0>         0.0000
      3 C3         -0.5398    0.9825    0.2059 C.ar      1 <0>         0.0000
      4 C4         -0.6426    3.3306   -0.4097 C.ar      1 <0>         0.0000
      5 C5         -1.8721    0.8178   -0.1126 C.ar      1 <0>         0.0000
      6 C6         -4.1501    3.9919   -1.5272 C.ar      1 <0>         0.0000
      7 C7          0.4410    5.8331   -3.8677 C.2       1 <0>         0.0000
      8 C8         -2.0159    3.1892   -0.7492 C.ar      1 <0>         0.0000
      9 C9         -2.8325    4.2538   -1.2411 C.ar      1 <0>         0.0000
     10 C10        -2.6402    1.9103   -0.5953 C.ar      1 <0>         0.0000
     11 C11        -4.6873    2.6836   -1.3389 C.ar      1 <0>         0.0000
     12 C12        -0.6768    5.3063   -4.5922 C.2       1 <0>         0.0000
     13 C13        -0.0417    6.0712   -2.5757 C.2       1 <0>         0.0000
     14 C14        -6.1350    2.4167   -1.6683 C.3       1 <0>         0.0000
     15 C15        -0.7134    4.8857   -6.0265 C.3       1 <0>         0.0000
     16 C16        -2.2747    5.6431   -1.4603 C.3       1 <0>         0.0000
     17 N1          2.8479    6.3414   -4.6576 N.1       1 <0>         0.0000
     18 N2         -3.9572    1.6804   -0.8906 N.ar      1 <0>         0.0000
     19 N3         -1.7463    5.2353   -3.8135 N.2       1 <0>         0.0000
     20 N4         -1.3411    5.6918   -2.5808 N.pl3     1 <0>         0.0000
     21 N5          0.6247    6.5040   -1.4301 N.pl3     1 <0>         0.0000
     22 H1          1.1274    2.3690    0.3123 H         1 <0>         0.0000
     23 H2          0.0409    0.1403    0.5732 H         1 <0>         0.0000
     24 H3         -0.1463    4.2897   -0.5154 H         1 <0>         0.0000
     25 H4         -2.3718   -0.1405   -0.0064 H         1 <0>         0.0000
     26 H5         -4.7923    4.7765   -1.9199 H         1 <0>         0.0000
     27 H6         -6.3376    2.6215   -2.7259 H         1 <0>         0.0000
     28 H7         -6.3782    1.3742   -1.4573 H         1 <0>         0.0000
     29 H8         -6.7971    3.0629   -1.0804 H         1 <0>         0.0000
     30 H9         -0.0070    4.0694   -6.2096 H         1 <0>         0.0000
     31 H10        -1.7181    4.5477   -6.2874 H         1 <0>         0.0000
     32 H11        -0.4340    5.7138   -6.6860 H         1 <0>         0.0000
     33 H12        -3.0912    6.3439   -1.6550 H         1 <0>         0.0000
     34 H13        -1.7365    5.9864   -0.5736 H         1 <0>         0.0000
     35 H14         0.1942    7.3071   -0.9798 H         1 <0>         0.0000
     36 H15         1.6014    6.7069   -1.6272 H         1 <0>         0.0000
@<TRIPOS>BOND
     1    1    7 1
     2    1   17 3
     3    2    3 ar
     4    2    4 ar
     5    2   22 1
     6    3    5 ar
     7    3   23 1
     8    4    8 ar
     9    4   24 1
    10    5   10 ar
    11    5   25 1
    12    6    9 ar
    13    6   11 ar
    14    6   26 1
    15    7   12 1
    16    7   13 2
    17    8    9 ar
    18    8   10 ar
    19    9   16 1
    20   10   18 ar
    21   11   14 1
    22   11   18 ar
    23   12   15 1
    24   12   19 2
    25   13   20 1
    26   13   21 1
    27   14   27 1
    28   14   28 1
    29   14   29 1
    30   15   30 1
    31   15   31 1
    32   15   32 1
    33   16   20 1
    34   16   33 1
    35   16   34 1
    36   19   20 1
    37   21   35 1
    38   21   36 1
