@<TRIPOS>MOLECULE
*****
   18    18     0     0     0
SMALL
NO_CHARGES

@<TRIPOS>ATOM
      1 C1          2.1476   -1.2901    0.0902 C.ar      1 <0>         0.0000
      2 C2          0.8980   -0.8643    0.5432 C.ar      1 <0>         0.0000
      3 C3          2.9916   -1.2540    2.3618 C.ar      1 <0>         0.0000
      4 C4          1.7418   -0.8307    2.7995 C.ar      1 <0>         0.0000
      5 C5          3.1955   -1.4990    0.9976 C.ar      1 <0>         0.0000
      6 C6          0.6849   -0.6345    1.9051 C.ar      1 <0>         0.0000
      7 C7          4.7353   -3.8415    0.4892 C.2       1 <0>         0.0000
      8 C8          3.4679   -4.5017    0.9855 C.3       1 <0>         0.0000
      9 O1          5.7232   -4.4443    0.1331 O.2       1 <0>         0.0000
     10 F1          1.5521   -0.6054    4.1142 F         1 <0>         0.0000
     11 S1          4.8064   -2.0199    0.4147 S.3       1 <0>         0.0000
     12 Cl1        -0.8661   -0.1040    2.4897 Cl        1 <0>         0.0000
     13 H1          2.3086   -1.4626   -0.9693 H         1 <0>         0.0000
     14 H2          0.0827   -0.7049   -0.1556 H         1 <0>         0.0000
     15 H3          3.7879   -1.3898    3.0869 H         1 <0>         0.0000
     16 H4          3.2473   -4.1923    2.0108 H         1 <0>         0.0000
     17 H5          3.6093   -5.5829    0.9465 H         1 <0>         0.0000
     18 H6          2.6124   -4.2138    0.3688 H         1 <0>         0.0000
@<TRIPOS>BOND
     1    1    2 ar
     2    1    5 ar
     3    1   13 1
     4    2    6 ar
     5    2   14 1
     6    3    4 ar
     7    3    5 ar
     8    3   15 1
     9    4    6 ar
    10    4   10 1
    11    5   11 1
    12    6   12 1
    13    7    8 1
    14    7    9 2
    15    7   11 1
    16    8   16 1
    17    8   17 1
    18    8   18 1
