@<TRIPOS>MOLECULE
*****
   37    39     0     0     0
SMALL
NO_CHARGES

@<TRIPOS>ATOM
      1 C1          1.7425   -4.9234   -0.0746 C.ar      1 <0>         0.0000
      2 C2          1.0549   -3.7939   -0.5100 C.ar      1 <0>         0.0000
      3 C3          2.6158   -4.7846    1.0079 C.ar      1 <0>         0.0000
      4 C4         -1.8769   -1.8816   -1.7416 C.2       1 <0>         0.0000
      5 C5          1.2716   -2.5640    0.1196 C.ar      1 <0>         0.0000
      6 C6         -0.9553   -1.2607   -2.5170 C.2       1 <0>         0.0000
      7 C7          2.1946   -2.5273    1.1894 C.ar      1 <0>         0.0000
      8 C8         -1.2604   -0.8946   -3.9001 C.2       1 <0>         0.0000
      9 C9         -3.5209   -1.8774   -3.5129 C.2       1 <0>         0.0000
     10 C10         0.3335   -0.3542    0.7263 C.3       1 <0>         0.0000
     11 C11         1.6509    0.2092    1.2463 C.3       1 <0>         0.0000
     12 C12        -4.1180   -2.8600   -1.3574 C.3       1 <0>         0.0000
     13 C13        -2.9943   -0.9218   -5.6755 C.3       1 <0>         0.0000
     14 N1          2.8309   -3.6212    1.6263 N.ar      1 <0>         0.0000
     15 N2         -3.1220   -2.1903   -2.2030 N.am      1 <0>         0.0000
     16 N3         -2.5726   -1.2442   -4.3036 N.am      1 <0>         0.0000
     17 N4          0.5418   -1.4048   -0.2842 N.pl3     1 <0>         0.0000
     18 O1         -0.4802   -0.3423   -4.6591 O.2       1 <0>         0.0000
     19 O2         -4.6430   -2.1574   -3.9112 O.2       1 <0>         0.0000
     20 O3          1.6467   -1.7263   -2.5917 O.2       1 <0>         0.0000
     21 O4          0.8244    0.5839   -1.8842 O.2       1 <0>         0.0000
     22 S1          2.6174   -1.0755    2.1210 S.3       1 <0>         0.0000
     23 S2          0.6829   -0.8703   -1.9135 S.o2      1 <0>         0.0000
     24 H1          1.6043   -5.8857   -0.5574 H         1 <0>         0.0000
     25 H2          0.3705   -3.8543   -1.3504 H         1 <0>         0.0000
     26 H3          3.1696   -5.6392    1.3921 H         1 <0>         0.0000
     27 H4         -1.6551   -2.1576   -0.7170 H         1 <0>         0.0000
     28 H5         -0.2470   -0.7956    1.5431 H         1 <0>         0.0000
     29 H6         -0.2568    0.4441    0.2750 H         1 <0>         0.0000
     30 H7          2.2266    0.6294    0.4197 H         1 <0>         0.0000
     31 H8          1.4659    0.9972    1.9815 H         1 <0>         0.0000
     32 H9         -4.9975   -2.2243   -1.2387 H         1 <0>         0.0000
     33 H10        -3.6688   -3.0567   -0.3836 H         1 <0>         0.0000
     34 H11        -4.4280   -3.7993   -1.8186 H         1 <0>         0.0000
     35 H12        -3.2804   -1.8374   -6.1964 H         1 <0>         0.0000
     36 H13        -2.1537   -0.4449   -6.1738 H         1 <0>         0.0000
     37 H14        -3.8544   -0.2501   -5.6474 H         1 <0>         0.0000
@<TRIPOS>BOND
     1    1    2 ar
     2    1    3 ar
     3    1   24 1
     4    2    5 ar
     5    2   25 1
     6    3   14 ar
     7    3   26 1
     8    4    6 2
     9    4   15 1
    10    4   27 1
    11    5    7 ar
    12    5   17 1
    13    6    8 1
    14    6   23 1
    15    7   14 ar
    16    7   22 1
    17    8   16 am
    18    8   18 2
    19    9   15 am
    20    9   16 am
    21    9   19 2
    22   10   11 1
    23   10   17 1
    24   10   28 1
    25   10   29 1
    26   11   22 1
    27   11   30 1
    28   11   31 1
    29   12   15 1
    30   12   32 1
    31   12   33 1
    32   12   34 1
    33   13   16 1
    34   13   35 1
    35   13   36 1
    36   13   37 1
    37   17   23 1
    38   20   23 2
    39   21   23 2
