@<TRIPOS>MOLECULE
*****
   22    23     0     0     0
SMALL
NO_CHARGES

@<TRIPOS>ATOM
      1 C1         -1.7498   -0.8383    0.9791 C.ar      1 <0>         0.0000
      2 C2         -0.9026    0.1876    0.5694 C.ar      1 <0>         0.0000
      3 C3         -1.9394    1.7664    2.1470 C.ar      1 <0>         0.0000
      4 C4         -4.3060   -0.6609    3.5431 C.2       1 <0>         0.0000
      5 C5         -2.8084    0.7406    2.5660 C.ar      1 <0>         0.0000
      6 C6         -3.8526    0.6477    3.5647 C.2       1 <0>         0.0000
      7 C7         -2.6878   -0.5491    1.9759 C.ar      1 <0>         0.0000
      8 C8         -1.0175    1.4555    1.1644 C.ar      1 <0>         0.0000
      9 C9         -4.3573    1.6473    4.5130 C.2       1 <0>         0.0000
     10 N1         -4.5428    2.9140    4.3304 N.2       1 <0>         0.0000
     11 N2         -3.6215   -1.3753    2.5891 N.pl3     1 <0>         0.0000
     12 N3         -4.7611    1.1349    5.7620 N.pl3     1 <0>         0.0000
     13 O1         -4.3351    3.2957    2.9770 O.3       1 <0>         0.0000
     14 F1         -0.1661    2.4310    0.7336 F         1 <0>         0.0000
     15 H1         -1.6752   -1.8286    0.5374 H         1 <0>         0.0000
     16 H2         -0.1535    0.0296   -0.1998 H         1 <0>         0.0000
     17 H3         -2.0010    2.7676    2.5544 H         1 <0>         0.0000
     18 H4         -5.0903   -1.1139    4.1338 H         1 <0>         0.0000
     19 H5         -3.7843   -2.3455    2.3607 H         1 <0>         0.0000
     20 H6         -5.0763    1.8814    6.3774 H         1 <0>         0.0000
     21 H7         -4.0392    0.5741    6.2065 H         1 <0>         0.0000
     22 H8         -4.5506    4.2411    3.0042 H         1 <0>         0.0000
@<TRIPOS>BOND
     1    1    2 ar
     2    1    7 ar
     3    1   15 1
     4    2    8 ar
     5    2   16 1
     6    3    5 ar
     7    3    8 ar
     8    3   17 1
     9    4    6 2
    10    4   11 1
    11    4   18 1
    12    5    6 1
    13    5    7 ar
    14    6    9 1
    15    7   11 1
    16    8   14 1
    17    9   10 2
    18    9   12 1
    19   10   13 1
    20   11   19 1
    21   12   20 1
    22   12   21 1
    23   13   22 1
