@<TRIPOS>MOLECULE
*****
   31    33     0     0     0
SMALL
NO_CHARGES

@<TRIPOS>ATOM
      1 C1         -1.4496    1.2313    0.7258 C.ar      1 <0>         0.0000
      2 C2         -1.0075    0.1439   -0.0395 C.ar      1 <0>         0.0000
      3 C3         -8.8856    0.9251    3.9182 C.ar      1 <0>         0.0000
      4 C4         -7.8688    0.8792    2.9617 C.ar      1 <0>         0.0000
      5 C5         -2.5909    1.1018    1.5100 C.ar      1 <0>         0.0000
      6 C6         -8.5837    0.8481    5.2819 C.ar      1 <0>         0.0000
      7 C7         -1.7144   -1.0539   -0.0131 C.ar      1 <0>         0.0000
      8 C8         -6.2172    0.6525    4.7257 C.ar      1 <0>         0.0000
      9 C9         -6.5353    0.7272    3.3620 C.ar      1 <0>         0.0000
     10 C10        -3.3178   -0.0978    1.5354 C.ar      1 <0>         0.0000
     11 C11        -7.2487    0.7223    5.6543 C.ar      1 <0>         0.0000
     12 C12        -2.8786   -1.1892    0.7643 C.ar      1 <0>         0.0000
     13 C13        -5.4588    0.7630    2.3113 C.2       1 <0>         0.0000
     14 C14        -4.7170   -1.5361    2.9479 C.3       1 <0>         0.0000
     15 C15        -5.0766   -2.5274    1.8439 C.3       1 <0>         0.0000
     16 N1         -4.4605   -0.2041    2.3909 N.am      1 <0>         0.0000
     17 O1         -5.4626    1.6517    1.4656 O.2       1 <0>         0.0000
     18 F1         -6.9395    0.6645    6.9753 F         1 <0>         0.0000
     19 S1         -3.6815   -2.7758    0.6897 S.3       1 <0>         0.0000
     20 H1         -0.9052    2.1711    0.7151 H         1 <0>         0.0000
     21 H2         -0.1143    0.2283   -0.6525 H         1 <0>         0.0000
     22 H3         -9.9203    1.0312    3.6048 H         1 <0>         0.0000
     23 H4         -8.0956    0.9729    1.9044 H         1 <0>         0.0000
     24 H5         -2.9430    1.9366    2.1059 H         1 <0>         0.0000
     25 H6         -9.3549    0.8928    6.0447 H         1 <0>         0.0000
     26 H7         -1.3720   -1.8994   -0.6050 H         1 <0>         0.0000
     27 H8         -5.1902    0.5596    5.0662 H         1 <0>         0.0000
     28 H9         -5.5426   -1.4785    3.6540 H         1 <0>         0.0000
     29 H10        -3.8272   -1.8719    3.4890 H         1 <0>         0.0000
     30 H11        -5.2983   -3.5101    2.2693 H         1 <0>         0.0000
     31 H12        -5.9563   -2.1753    1.2988 H         1 <0>         0.0000
@<TRIPOS>BOND
     1    1    2 ar
     2    1    5 ar
     3    1   20 1
     4    2    7 ar
     5    2   21 1
     6    3    4 ar
     7    3    6 ar
     8    3   22 1
     9    4    9 ar
    10    4   23 1
    11    5   10 ar
    12    5   24 1
    13    6   11 ar
    14    6   25 1
    15    7   12 ar
    16    7   26 1
    17    8    9 ar
    18    8   11 ar
    19    8   27 1
    20    9   13 1
    21   10   12 ar
    22   10   16 1
    23   11   18 1
    24   12   19 1
    25   13   16 am
    26   13   17 2
    27   14   15 1
    28   14   16 1
    29   14   28 1
    30   14   29 1
    31   15   19 1
    32   15   30 1
    33   15   31 1
