@<TRIPOS>MOLECULE
*****
   25    26     0     0     0
SMALL
NO_CHARGES

@<TRIPOS>ATOM
      1 C1          1.5958   -2.4126    0.6109 C.ar      1 <0>         0.0000
      2 C2          0.6382   -1.9099    1.4852 C.ar      1 <0>         0.0000
      3 C3          2.8230   -1.7594    0.4314 C.ar      1 <0>         0.0000
      4 C4          2.1356   -0.0670    2.0245 C.ar      1 <0>         0.0000
      5 C5          0.9102   -0.7256    2.1991 C.ar      1 <0>         0.0000
      6 C6          3.0897   -0.5840    1.1417 C.ar      1 <0>         0.0000
      7 C7         -5.0521   -1.9067    4.5005 C.2       1 <0>         0.0000
      8 C8         -3.2626   -0.5802    4.5180 C.2       1 <0>         0.0000
      9 C9         -0.0633   -0.1541    3.1317 C.2       1 <0>         0.0000
     10 C10        -5.5464   -0.8540    5.5284 C.3       1 <0>         0.0000
     11 N1         -3.7744   -1.6548    4.0071 N.2       1 <0>         0.0000
     12 N2         -1.2054   -0.7091    3.3338 N.2       1 <0>         0.0000
     13 N3         -2.0324   -0.0879    4.2251 N.pl3     1 <0>         0.0000
     14 O1         -5.7585   -2.8466    4.1905 O.2       1 <0>         0.0000
     15 O2          4.2685    0.1099    1.0174 O.3       1 <0>         0.0000
     16 S1         -4.2109    0.3699    5.7119 S.3       1 <0>         0.0000
     17 H1          1.3951   -3.3251    0.0561 H         1 <0>         0.0000
     18 H2         -0.3131   -2.4111    1.6281 H         1 <0>         0.0000
     19 H3          3.5637   -2.1642   -0.2564 H         1 <0>         0.0000
     20 H4          2.3661    0.8475    2.5650 H         1 <0>         0.0000
     21 H5          0.2290    0.7708    3.6499 H         1 <0>         0.0000
     22 H6         -6.4565   -0.3799    5.1579 H         1 <0>         0.0000
     23 H7         -5.7558   -1.3428    6.4811 H         1 <0>         0.0000
     24 H8         -1.7298    0.7701    4.6875 H         1 <0>         0.0000
     25 H9          4.8413   -0.3467    0.3811 H         1 <0>         0.0000
@<TRIPOS>BOND
     1    1    2 ar
     2    1    3 ar
     3    1   17 1
     4    2    5 ar
     5    2   18 1
     6    3    6 ar
     7    3   19 1
     8    4    5 ar
     9    4    6 ar
    10    4   20 1
    11    5    9 1
    12    6   15 1
    13    7   10 1
    14    7   11 1
    15    7   14 2
    16    8   11 2
    17    8   13 1
    18    8   16 1
    19    9   12 2
    20    9   21 1
    21   10   16 1
    22   10   22 1
    23   10   23 1
    24   12   13 1
    25   13   24 1
    26   15   25 1
