@<TRIPOS>MOLECULE
*****
   20    21     0     0     0
SMALL
NO_CHARGES

@<TRIPOS>ATOM
      1 C1          1.6873   -1.3347   -0.1448 C.ar      1 <0>         0.0000
      2 C2          0.5982   -0.6656    0.4091 C.ar      1 <0>         0.0000
      3 C3          2.9794   -4.6429   -2.5926 C.2       1 <0>         0.0000
      4 C4          4.3087   -4.8587   -2.8775 C.2       1 <0>         0.0000
      5 C5          2.8026   -1.6934    0.6322 C.ar      1 <0>         0.0000
      6 C6          0.6078   -0.3685    1.7677 C.ar      1 <0>         0.0000
      7 C7          2.7835   -1.3726    1.9995 C.ar      1 <0>         0.0000
      8 C8          1.6905   -0.7237    2.5714 C.ar      1 <0>         0.0000
      9 C9          3.8601   -3.2834   -1.0887 C.2       1 <0>         0.0000
     10 C10         4.0202   -2.3231    0.0378 C.2       1 <0>         0.0000
     11 N1          2.7374   -3.7532   -1.5817 N.2       1 <0>         0.0000
     12 O1          5.1485   -2.0745    0.4495 O.2       1 <0>         0.0000
     13 F1         -0.4329    0.2651    2.3356 F         1 <0>         0.0000
     14 F2          3.7888   -1.7114    2.8148 F         1 <0>         0.0000
     15 F3          1.6818   -0.4459    3.8837 F         1 <0>         0.0000
     16 S1          5.3112   -3.9172   -1.8425 S.3       1 <0>         0.0000
     17 H1          1.6788   -1.5817   -1.1981 H         1 <0>         0.0000
     18 H2         -0.2583   -0.3760   -0.1907 H         1 <0>         0.0000
     19 H3          2.1468   -5.1195   -3.0985 H         1 <0>         0.0000
     20 H4          4.7294   -5.5157   -3.6281 H         1 <0>         0.0000
@<TRIPOS>BOND
     1    1    2 ar
     2    1    5 ar
     3    1   17 1
     4    2    6 ar
     5    2   18 1
     6    3    4 2
     7    3   11 1
     8    3   19 1
     9    4   16 1
    10    4   20 1
    11    5    7 ar
    12    5   10 1
    13    6    8 ar
    14    6   13 1
    15    7    8 ar
    16    7   14 1
    17    8   15 1
    18    9   10 1
    19    9   11 2
    20    9   16 1
    21   10   12 2
