@<TRIPOS>MOLECULE
*****
   18    18     0     0     0
SMALL
NO_CHARGES

@<TRIPOS>ATOM
      1 C1          1.5320    0.5655    1.6956 C.2       1 <0>         0.0000
      2 C2          0.2466    0.1801    1.2099 C.2       1 <0>         0.0000
      3 C3          1.6043    0.1767    3.0232 C.2       1 <0>         0.0000
      4 C4         -0.4262   -0.4292    2.2558 C.2       1 <0>         0.0000
      5 C5         -1.8006   -1.0134    2.3418 C.3       1 <0>         0.0000
      6 C6         -2.7840   -0.0576    3.0344 C.3       1 <0>         0.0000
      7 N1          0.4120   -0.4235    3.3507 N.pl3     1 <0>         0.0000
      8 N2         -1.7728   -2.2627    3.1152 N.3       1 <0>         0.0000
      9 F1         -4.0137   -0.6385    3.1452 F         1 <0>         0.0000
     10 F2         -2.3977    0.2895    4.2811 F         1 <0>         0.0000
     11 F3         -2.9454    1.0774    2.3215 F         1 <0>         0.0000
     12 H1          2.3144    1.0648    1.1391 H         1 <0>         0.0000
     13 H2         -0.1487    0.3380    0.2143 H         1 <0>         0.0000
     14 H3          2.4019    0.2726    3.7471 H         1 <0>         0.0000
     15 H4         -2.1903   -1.1184    1.3183 H         1 <0>         0.0000
     16 H5          0.1614   -0.8258    4.2444 H         1 <0>         0.0000
     17 H6         -1.1377   -2.9139    2.6586 H         1 <0>         0.0000
     18 H7         -2.6961   -2.6927    3.1327 H         1 <0>         0.0000
@<TRIPOS>BOND
     1    1    2 1
     2    1    3 2
     3    1   12 1
     4    2    4 2
     5    2   13 1
     6    3    7 1
     7    3   14 1
     8    4    5 1
     9    4    7 1
    10    5    6 1
    11    5    8 1
    12    5   15 1
    13    6    9 1
    14    6   10 1
    15    6   11 1
    16    7   16 1
    17    8   17 1
    18    8   18 1
