@<TRIPOS>MOLECULE
*****
   40    42     0     0     0
SMALL
NO_CHARGES

@<TRIPOS>ATOM
      1 C1         -1.0046    5.7023    2.8657 C.1       1 <0>         0.0000
      2 C2         -0.9832    0.7586    6.0979 C.ar      1 <0>         0.0000
      3 C3         -3.3619    1.1437    6.0987 C.ar      1 <0>         0.0000
      4 C4         -0.7595    2.1380    6.1417 C.ar      1 <0>         0.0000
      5 C5         -3.1508    2.5202    6.1595 C.ar      1 <0>         0.0000
      6 C6         -2.2859    0.2419    6.0628 C.ar      1 <0>         0.0000
      7 C7         -1.8457    3.0186    6.1585 C.ar      1 <0>         0.0000
      8 C8         -2.4054    3.7369    3.4348 C.2       1 <0>         0.0000
      9 C9         -3.0919    1.8211    2.6654 C.2       1 <0>         0.0000
     10 C10        -1.5334    4.8443    3.8935 C.2       1 <0>         0.0000
     11 C11        -3.0954    0.4390    2.1047 C.3       1 <0>         0.0000
     12 C12        -2.4051    0.3195    0.7320 C.3       1 <0>         0.0000
     13 C13        -0.8729    0.4253    0.7674 C.3       1 <0>         0.0000
     14 C14        -0.2953    1.7748    1.2224 C.3       1 <0>         0.0000
     15 C15        -0.5712    2.1318    2.6860 C.3       1 <0>         0.0000
     16 C16        -2.5361   -1.2468    6.0035 C.3       1 <0>         0.0000
     17 N1         -0.5704    6.3155    1.9733 N.1       1 <0>         0.0000
     18 N2         -3.7231    3.7523    3.4645 N.2       1 <0>         0.0000
     19 N3         -4.1588    2.5347    2.9798 N.2       1 <0>         0.0000
     20 N4         -1.2259    5.1689    5.1160 N.2       1 <0>         0.0000
     21 N5         -1.9536    2.5428    2.9213 N.pl3     1 <0>         0.0000
     22 N6         -1.6024    4.4430    6.1782 N.pl3     1 <0>         0.0000
     23 H1         -0.1332    0.0799    6.0828 H         1 <0>         0.0000
     24 H2         -4.3811    0.7677    6.0582 H         1 <0>         0.0000
     25 H3          0.2541    2.5319    6.1438 H         1 <0>         0.0000
     26 H4         -3.9858    3.2117    6.1526 H         1 <0>         0.0000
     27 H5         -2.6166   -0.2467    2.8182 H         1 <0>         0.0000
     28 H6         -4.1442    0.1418    2.0276 H         1 <0>         0.0000
     29 H7         -2.6708   -0.6537    0.3038 H         1 <0>         0.0000
     30 H8         -2.8171    1.0804    0.0583 H         1 <0>         0.0000
     31 H9         -0.4756   -0.3667    1.4180 H         1 <0>         0.0000
     32 H10        -0.4902    0.2130   -0.2375 H         1 <0>         0.0000
     33 H11         0.7934    1.7448    1.0982 H         1 <0>         0.0000
     34 H12        -0.6616    2.5873    0.5842 H         1 <0>         0.0000
     35 H13        -0.3436    1.2852    3.3427 H         1 <0>         0.0000
     36 H14         0.0639    2.9629    2.9984 H         1 <0>         0.0000
     37 H15        -2.8502   -1.6303    6.9813 H         1 <0>         0.0000
     38 H16        -3.3324   -1.4862    5.2914 H         1 <0>         0.0000
     39 H17        -1.6370   -1.7945    5.7070 H         1 <0>         0.0000
     40 H18        -1.1419    4.7923    7.0107 H         1 <0>         0.0000
@<TRIPOS>BOND
     1    1   10 1
     2    1   17 3
     3    2    4 ar
     4    2    6 ar
     5    2   23 1
     6    3    5 ar
     7    3    6 ar
     8    3   24 1
     9    4    7 ar
    10    4   25 1
    11    5    7 ar
    12    5   26 1
    13    6   16 1
    14    7   22 1
    15    8   10 1
    16    8   18 2
    17    8   21 1
    18    9   11 1
    19    9   19 2
    20    9   21 1
    21   10   20 2
    22   11   12 1
    23   11   27 1
    24   11   28 1
    25   12   13 1
    26   12   29 1
    27   12   30 1
    28   13   14 1
    29   13   31 1
    30   13   32 1
    31   14   15 1
    32   14   33 1
    33   14   34 1
    34   15   21 1
    35   15   35 1
    36   15   36 1
    37   16   37 1
    38   16   38 1
    39   16   39 1
    40   18   19 1
    41   20   22 1
    42   22   40 1
