@<TRIPOS>MOLECULE
*****
   34    36     0     0     0
SMALL
NO_CHARGES

@<TRIPOS>ATOM
      1 C1         -0.7426   -2.3286  -12.9318 C.1       1 <0>         0.0000
      2 C2         -3.7841    2.5101   -8.1235 C.ar      1 <0>         0.0000
      3 C3         -4.8907    1.6556   -8.2765 C.ar      1 <0>         0.0000
      4 C4         -2.5005    1.9981   -7.9362 C.ar      1 <0>         0.0000
      5 C5         -4.7301    0.2678   -8.2430 C.ar      1 <0>         0.0000
      6 C6         -0.5815   -2.8823  -10.4648 C.2       1 <0>         0.0000
      7 C7         -0.9233   -3.1338  -11.7799 C.2       1 <0>         0.0000
      8 C8         -0.9740   -4.0255   -9.7020 C.2       1 <0>         0.0000
      9 C9         -2.3191    0.6074   -7.9010 C.ar      1 <0>         0.0000
     10 C10        -3.4440   -0.2413   -8.0528 C.ar      1 <0>         0.0000
     11 C11        -1.5566   -4.9411  -10.5991 C.2       1 <0>         0.0000
     12 C12        -1.2663   -1.3330   -7.7453 C.2       1 <0>         0.0000
     13 C13        -0.7876   -4.3100   -8.2882 C.2       1 <0>         0.0000
     14 C14        -2.1619   -6.2880  -10.3651 C.3       1 <0>         0.0000
     15 C15        -2.0542   -5.0120  -13.0583 C.3       1 <0>         0.0000
     16 N1         -0.6038   -1.6859  -13.8968 N.1       1 <0>         0.0000
     17 N2         -1.1037   -0.0431   -7.7348 N.2       1 <0>         0.0000
     18 N3         -0.4101   -3.5685   -7.2984 N.2       1 <0>         0.0000
     19 N4         -1.5233   -4.3939  -11.8496 N.pl3     1 <0>         0.0000
     20 N5         -0.1922   -2.2019   -7.5970 N.pl3     1 <0>         0.0000
     21 S1         -2.9317   -1.9215   -7.9625 S.3       1 <0>         0.0000
     22 H1         -3.9322    3.5863   -8.1532 H         1 <0>         0.0000
     23 H2         -5.8819    2.0757   -8.4227 H         1 <0>         0.0000
     24 H3         -1.6402    2.6504   -7.8188 H         1 <0>         0.0000
     25 H4         -5.5855   -0.3917   -8.3604 H         1 <0>         0.0000
     26 H5         -0.0990   -1.9874  -10.1048 H         1 <0>         0.0000
     27 H6         -0.9653   -5.3399   -7.9810 H         1 <0>         0.0000
     28 H7         -3.2202   -6.3042  -10.6506 H         1 <0>         0.0000
     29 H8         -1.6517   -7.0654  -10.9453 H         1 <0>         0.0000
     30 H9         -2.1035   -6.5646   -9.3124 H         1 <0>         0.0000
     31 H10        -1.5664   -5.9729  -13.2429 H         1 <0>         0.0000
     32 H11        -3.1331   -5.1680  -12.9683 H         1 <0>         0.0000
     33 H12        -1.8649   -4.3546  -13.9065 H         1 <0>         0.0000
     34 H13         0.4814   -1.8129   -6.9428 H         1 <0>         0.0000
@<TRIPOS>BOND
     1    1    7 1
     2    1   16 3
     3    2    3 ar
     4    2    4 ar
     5    2   22 1
     6    3    5 ar
     7    3   23 1
     8    4    9 ar
     9    4   24 1
    10    5   10 ar
    11    5   25 1
    12    6    7 2
    13    6    8 1
    14    6   26 1
    15    7   19 1
    16    8   11 2
    17    8   13 1
    18    9   10 ar
    19    9   17 1
    20   10   21 1
    21   11   14 1
    22   11   19 1
    23   12   17 2
    24   12   20 1
    25   12   21 1
    26   13   18 2
    27   13   27 1
    28   14   28 1
    29   14   29 1
    30   14   30 1
    31   15   19 1
    32   15   31 1
    33   15   32 1
    34   15   33 1
    35   18   20 1
    36   20   34 1
