@<TRIPOS>MOLECULE
*****
   35    37     0     0     0
SMALL
NO_CHARGES

@<TRIPOS>ATOM
      1 C1          0.4574   -0.2477   -0.3757 C.ar      1 <0>         0.0000
      2 C2         -0.4885   -1.2166    0.0025 C.ar      1 <0>         0.0000
      3 C3         -4.6208   -3.4614   -3.8712 C.ar      1 <0>         0.0000
      4 C4         -4.5835   -2.5831   -6.1210 C.ar      1 <0>         0.0000
      5 C5          1.0207   -0.2526   -1.6532 C.ar      1 <0>         0.0000
      6 C6         -3.4275   -4.1444   -4.1032 C.ar      1 <0>         0.0000
      7 C7         -3.3923   -3.2616   -6.3763 C.ar      1 <0>         0.0000
      8 C8         -5.2136   -2.6716   -4.8688 C.ar      1 <0>         0.0000
      9 C9         -0.9063   -2.2236   -0.8719 C.ar      1 <0>         0.0000
     10 C10        -0.3382   -2.2364   -2.1595 C.ar      1 <0>         0.0000
     11 C11         0.6090   -1.2550   -2.5334 C.ar      1 <0>         0.0000
     12 C12        -2.8261   -4.0322   -5.3580 C.ar      1 <0>         0.0000
     13 C13         0.0178   -2.9343   -4.2272 C.2       1 <0>         0.0000
     14 C14        -6.5202   -1.9598   -4.6127 C.3       1 <0>         0.0000
     15 C15        -1.9290   -3.2625   -0.4884 C.3       1 <0>         0.0000
     16 N1         -0.6469   -3.1703   -3.1442 N.2       1 <0>         0.0000
     17 N2         -0.0723   -3.6878   -5.3837 N.pl3     1 <0>         0.0000
     18 O1         -1.1386   -5.1038   -7.1083 O.2       1 <0>         0.0000
     19 O2         -1.1244   -5.9423   -4.6917 O.2       1 <0>         0.0000
     20 S1          1.1202   -1.5351   -4.1963 S.3       1 <0>         0.0000
     21 S2         -1.2883   -4.8789   -5.6698 S.o2      1 <0>         0.0000
     22 H1          0.7556    0.5172    0.3359 H         1 <0>         0.0000
     23 H2         -0.9075   -1.1834    1.0053 H         1 <0>         0.0000
     24 H3         -5.0972   -3.5407   -2.8969 H         1 <0>         0.0000
     25 H4         -5.0331   -1.9816   -6.9074 H         1 <0>         0.0000
     26 H5          1.7504    0.4966   -1.9455 H         1 <0>         0.0000
     27 H6         -2.9588   -4.7461   -3.3338 H         1 <0>         0.0000
     28 H7         -2.9161   -3.2091   -7.3506 H         1 <0>         0.0000
     29 H8         -7.3675   -2.6077   -4.8674 H         1 <0>         0.0000
     30 H9         -6.6240   -1.6818   -3.5602 H         1 <0>         0.0000
     31 H10        -6.6068   -1.0524   -5.2170 H         1 <0>         0.0000
     32 H11        -2.8344   -3.1550   -1.0961 H         1 <0>         0.0000
     33 H12        -1.5464   -4.2728   -0.6636 H         1 <0>         0.0000
     34 H13        -2.2082   -3.1706    0.5645 H         1 <0>         0.0000
     35 H14         0.2892   -3.3012   -6.2502 H         1 <0>         0.0000
@<TRIPOS>BOND
     1    1    2 ar
     2    1    5 ar
     3    1   22 1
     4    2    9 ar
     5    2   23 1
     6    3    6 ar
     7    3    8 ar
     8    3   24 1
     9    4    7 ar
    10    4    8 ar
    11    4   25 1
    12    5   11 ar
    13    5   26 1
    14    6   12 ar
    15    6   27 1
    16    7   12 ar
    17    7   28 1
    18    8   14 1
    19    9   10 ar
    20    9   15 1
    21   10   11 ar
    22   10   16 1
    23   11   20 1
    24   12   21 1
    25   13   16 2
    26   13   17 1
    27   13   20 1
    28   14   29 1
    29   14   30 1
    30   14   31 1
    31   15   32 1
    32   15   33 1
    33   15   34 1
    34   17   21 1
    35   17   35 1
    36   18   21 2
    37   19   21 2
