@<TRIPOS>MOLECULE
*****
   27    29     0     0     0
SMALL
NO_CHARGES

@<TRIPOS>ATOM
      1 C1          1.0034    1.2026    1.5241 C.ar      1 <0>         0.0000
      2 C2          0.7657    1.8853    2.7321 C.ar      1 <0>         0.0000
      3 C3         -1.1838    3.0554   -0.9950 C.2       1 <0>         0.0000
      4 C4         -2.5217    3.5430   -0.9267 C.2       1 <0>         0.0000
      5 C5         -1.3076    0.3865    1.4644 C.ar      1 <0>         0.0000
      6 C6         -0.0131    0.4730    0.9019 C.ar      1 <0>         0.0000
      7 C7         -0.4992    1.7795    3.2807 C.ar      1 <0>         0.0000
      8 C8         -1.5085    1.0403    2.6637 C.ar      1 <0>         0.0000
      9 C9         -1.0991    1.8483   -1.6422 C.2       1 <0>         0.0000
     10 C10        -3.4108    2.6751   -1.5108 C.2       1 <0>         0.0000
     11 C11        -2.3486    1.9209    4.5557 C.3       1 <0>         0.0000
     12 N1          0.2582   -0.1646   -0.3500 N.pl3     1 <0>         0.0000
     13 O1          1.4924    1.7241   -1.5434 O.2       1 <0>         0.0000
     14 O2          0.2195   -0.0796   -2.8623 O.2       1 <0>         0.0000
     15 O3         -0.9747    2.3328    4.4486 O.3       1 <0>         0.0000
     16 O4         -2.6601    1.1014    3.4133 O.3       1 <0>         0.0000
     17 S1         -2.6482    1.2583   -2.1773 S.3       1 <0>         0.0000
     18 S2          0.3513    0.8358   -1.7304 S.o2      1 <0>         0.0000
     19 Cl1        -5.1170    2.8973   -1.6631 Cl        1 <0>         0.0000
     20 H1          1.9784    1.2456    1.0523 H         1 <0>         0.0000
     21 H2          1.5474    2.4576    3.2207 H         1 <0>         0.0000
     22 H3         -0.3161    3.5569   -0.5816 H         1 <0>         0.0000
     23 H4         -2.8159    4.4835   -0.4751 H         1 <0>         0.0000
     24 H5         -2.1100   -0.1546    0.9721 H         1 <0>         0.0000
     25 H6         -2.4803    1.3322    5.4696 H         1 <0>         0.0000
     26 H7         -2.9943    2.8056    4.5512 H         1 <0>         0.0000
     27 H8         -0.3542   -0.9503   -0.5635 H         1 <0>         0.0000
@<TRIPOS>BOND
     1    1    2 ar
     2    1    6 ar
     3    1   20 1
     4    2    7 ar
     5    2   21 1
     6    3    4 1
     7    3    9 2
     8    3   22 1
     9    4   10 2
    10    4   23 1
    11    5    6 ar
    12    5    8 ar
    13    5   24 1
    14    6   12 1
    15    7    8 ar
    16    7   15 1
    17    8   16 1
    18    9   17 1
    19    9   18 1
    20   10   17 1
    21   10   19 1
    22   11   15 1
    23   11   16 1
    24   11   25 1
    25   11   26 1
    26   12   18 1
    27   12   27 1
    28   13   18 2
    29   14   18 2
