@<TRIPOS>MOLECULE
*****
   34    36     0     0     0
SMALL
NO_CHARGES

@<TRIPOS>ATOM
      1 C1         -0.6891   -0.9412  -12.4624 C.1       1 <0>         0.0000
      2 C2          4.2587   -0.7776   -9.9945 C.ar      1 <0>         0.0000
      3 C3          4.0407    0.6107  -10.0393 C.ar      1 <0>         0.0000
      4 C4          3.3359   -1.6276   -9.3841 C.ar      1 <0>         0.0000
      5 C5          2.8939    1.1740   -9.4722 C.ar      1 <0>         0.0000
      6 C6         -1.3411   -1.9413  -10.2254 C.2       1 <0>         0.0000
      7 C7         -0.6378   -1.8973  -11.4194 C.2       1 <0>         0.0000
      8 C8         -0.9302   -3.1177   -9.5407 C.2       1 <0>         0.0000
      9 C9          2.1757   -1.0821   -8.8158 C.ar      1 <0>         0.0000
     10 C10         1.9670    0.3195   -8.8731 C.ar      1 <0>         0.0000
     11 C11         0.0172   -3.7609  -10.3433 C.2       1 <0>         0.0000
     12 C12         0.2199   -1.0320   -7.7841 C.2       1 <0>         0.0000
     13 C13        -1.2876   -3.5178   -8.1780 C.2       1 <0>         0.0000
     14 C14         0.8516   -4.9619  -10.0447 C.3       1 <0>         0.0000
     15 C15         1.2170   -3.2419  -12.4886 C.3       1 <0>         0.0000
     16 N1         -0.7157   -0.1560  -13.3270 N.1       1 <0>         0.0000
     17 N2          1.1795   -1.8086   -8.1793 N.2       1 <0>         0.0000
     18 N3         -1.3535   -2.7860   -7.1161 N.2       1 <0>         0.0000
     19 N4          0.1893   -3.0182  -11.4810 N.pl3     1 <0>         0.0000
     20 N5         -0.9909   -1.4374   -7.2380 N.pl3     1 <0>         0.0000
     21 S1          0.4228    0.7105   -8.1290 S.3       1 <0>         0.0000
     22 H1          5.1609   -1.1919  -10.4364 H         1 <0>         0.0000
     23 H2          4.7691    1.2562  -10.5219 H         1 <0>         0.0000
     24 H3          3.5026   -2.6997   -9.3277 H         1 <0>         0.0000
     25 H4          2.7270    2.2465   -9.5126 H         1 <0>         0.0000
     26 H5         -2.0617   -1.2082   -9.8925 H         1 <0>         0.0000
     27 H6         -1.5484   -4.5597   -7.9926 H         1 <0>         0.0000
     28 H7          0.7729   -5.7251  -10.8272 H         1 <0>         0.0000
     29 H8          1.9090   -4.6912   -9.9431 H         1 <0>         0.0000
     30 H9          0.5393   -5.4082   -9.0995 H         1 <0>         0.0000
     31 H10         2.1954   -2.9214  -12.1151 H         1 <0>         0.0000
     32 H11         1.2581   -4.3002  -12.7541 H         1 <0>         0.0000
     33 H12         0.9750   -2.6660  -13.3823 H         1 <0>         0.0000
     34 H13        -1.2678   -0.9287   -6.4058 H         1 <0>         0.0000
@<TRIPOS>BOND
     1    1    7 1
     2    1   16 3
     3    2    3 ar
     4    2    4 ar
     5    2   22 1
     6    3    5 ar
     7    3   23 1
     8    4    9 ar
     9    4   24 1
    10    5   10 ar
    11    5   25 1
    12    6    7 2
    13    6    8 1
    14    6   26 1
    15    7   19 1
    16    8   11 2
    17    8   13 1
    18    9   10 ar
    19    9   17 1
    20   10   21 1
    21   11   14 1
    22   11   19 1
    23   12   17 2
    24   12   20 1
    25   12   21 1
    26   13   18 2
    27   13   27 1
    28   14   28 1
    29   14   29 1
    30   14   30 1
    31   15   19 1
    32   15   31 1
    33   15   32 1
    34   15   33 1
    35   18   20 1
    36   20   34 1
