@<TRIPOS>MOLECULE
*****
   29    31     0     0     0
SMALL
NO_CHARGES

@<TRIPOS>ATOM
      1 C1          0.9659   -5.5518  -10.7764 C.ar      1 <0>         0.0000
      2 C2          2.1326    1.4990   -4.2633 C.ar      1 <0>         0.0000
      3 C3          2.3914    1.9791   -5.5597 C.ar      1 <0>         0.0000
      4 C4         -0.1279   -5.9241  -11.5645 C.ar      1 <0>         0.0000
      5 C5          0.7877   -5.3008   -9.4162 C.ar      1 <0>         0.0000
      6 C6          1.6048    0.2203   -4.0416 C.ar      1 <0>         0.0000
      7 C7          2.1309    1.1935   -6.6942 C.ar      1 <0>         0.0000
      8 C8         -1.3943   -6.0514  -10.9884 C.ar      1 <0>         0.0000
      9 C9         -0.4797   -5.4124   -8.8096 C.ar      1 <0>         0.0000
     10 C10         1.3415   -0.5714   -5.1622 C.ar      1 <0>         0.0000
     11 C11         1.6106   -0.0647   -6.4446 C.ar      1 <0>         0.0000
     12 C12        -1.5571   -5.7989   -9.6255 C.ar      1 <0>         0.0000
     13 C13         0.8027   -2.0782   -6.5543 C.2       1 <0>         0.0000
     14 C14        -0.6403   -5.1965   -7.3508 C.2       1 <0>         0.0000
     15 N1          0.8243   -1.8712   -5.2759 N.2       1 <0>         0.0000
     16 N2         -0.2074   -4.2120   -6.6425 N.2       1 <0>         0.0000
     17 N3          0.4335   -3.1873   -7.2705 N.pl3     1 <0>         0.0000
     18 O1          1.2578   -1.0512   -7.3587 O.3       1 <0>         0.0000
     19 Br1        -3.3153   -5.9738   -8.8765 Br        1 <0>         0.0000
     20 H1          1.9550   -5.4656  -11.2172 H         1 <0>         0.0000
     21 H2          2.3483    2.1386   -3.4118 H         1 <0>         0.0000
     22 H3          2.8006    2.9770   -5.6887 H         1 <0>         0.0000
     23 H4         -0.0001   -6.1205  -12.6254 H         1 <0>         0.0000
     24 H5          1.6429   -5.0423   -8.7978 H         1 <0>         0.0000
     25 H6          1.4053   -0.1489   -3.0402 H         1 <0>         0.0000
     26 H7          2.3252    1.5513   -7.7005 H         1 <0>         0.0000
     27 H8         -2.2488   -6.3418  -11.5908 H         1 <0>         0.0000
     28 H9         -1.1838   -5.9487   -6.7843 H         1 <0>         0.0000
     29 H10         0.3839   -3.0775   -8.2822 H         1 <0>         0.0000
@<TRIPOS>BOND
     1    1    4 ar
     2    1    5 ar
     3    1   20 1
     4    2    3 ar
     5    2    6 ar
     6    2   21 1
     7    3    7 ar
     8    3   22 1
     9    4    8 ar
    10    4   23 1
    11    5    9 ar
    12    5   24 1
    13    6   10 ar
    14    6   25 1
    15    7   11 ar
    16    7   26 1
    17    8   12 ar
    18    8   27 1
    19    9   12 ar
    20    9   14 1
    21   10   11 ar
    22   10   15 1
    23   11   18 1
    24   12   19 1
    25   13   15 2
    26   13   17 1
    27   13   18 1
    28   14   16 2
    29   14   28 1
    30   16   17 1
    31   17   29 1
