@<TRIPOS>MOLECULE
*****
   28    29     0     0     0
SMALL
NO_CHARGES

@<TRIPOS>ATOM
      1 C1          3.1720   -7.4132    3.0019 C.ar      1 <0>         0.0000
      2 C2          4.4671   -7.2301    2.4892 C.ar      1 <0>         0.0000
      3 C3          2.1377   -6.5340    2.6764 C.ar      1 <0>         0.0000
      4 C4          4.7495   -6.1567    1.6372 C.ar      1 <0>         0.0000
      5 C5          2.3992   -5.4518    1.8238 C.ar      1 <0>         0.0000
      6 C6          3.7128   -5.2815    1.3154 C.ar      1 <0>         0.0000
      7 C7          2.0122   -3.6307    0.6372 C.2       1 <0>         0.0000
      8 C8          0.1930   -0.3746   -1.2811 C.2       1 <0>         0.0000
      9 C9          0.6589   -0.8211   -2.4621 C.2       1 <0>         0.0000
     10 C10        -0.4223   -1.2183   -0.2248 C.2       1 <0>         0.0000
     11 C11         0.6363   -2.2381   -2.9596 C.3       1 <0>         0.0000
     12 N1          1.4645   -4.5063    1.4203 N.2       1 <0>         0.0000
     13 N2          0.0969   -2.2503    0.3559 N.2       1 <0>         0.0000
     14 N3         -1.6499   -0.7560    0.2613 N.pl3     1 <0>         0.0000
     15 N4          1.3884   -2.5836    0.0170 N.pl3     1 <0>         0.0000
     16 S1          3.7578   -3.8543    0.2828 S.3       1 <0>         0.0000
     17 H1          2.9723   -8.2527    3.6627 H         1 <0>         0.0000
     18 H2          5.2590   -7.9251    2.7545 H         1 <0>         0.0000
     19 H3          1.1339   -6.6680    3.0687 H         1 <0>         0.0000
     20 H4          5.7510   -6.0139    1.2410 H         1 <0>         0.0000
     21 H5          0.2133    0.6937   -1.0708 H         1 <0>         0.0000
     22 H6          1.0764   -0.0802   -3.1438 H         1 <0>         0.0000
     23 H7          1.6545   -2.6394   -3.0405 H         1 <0>         0.0000
     24 H8          0.2047   -2.2731   -3.9667 H         1 <0>         0.0000
     25 H9          0.0663   -2.8998   -2.3054 H         1 <0>         0.0000
     26 H10        -2.3023   -0.4730   -0.4632 H         1 <0>         0.0000
     27 H11        -2.0664   -1.4063    0.9226 H         1 <0>         0.0000
     28 H12         1.9639   -1.8964   -0.4638 H         1 <0>         0.0000
@<TRIPOS>BOND
     1    1    2 ar
     2    1    3 ar
     3    1   17 1
     4    2    4 ar
     5    2   18 1
     6    3    5 ar
     7    3   19 1
     8    4    6 ar
     9    4   20 1
    10    5    6 ar
    11    5   12 1
    12    6   16 1
    13    7   12 2
    14    7   15 1
    15    7   16 1
    16    8    9 2
    17    8   10 1
    18    8   21 1
    19    9   11 1
    20    9   22 1
    21   10   13 2
    22   10   14 1
    23   11   23 1
    24   11   24 1
    25   11   25 1
    26   13   15 1
    27   14   26 1
    28   14   27 1
    29   15   28 1
