@<TRIPOS>MOLECULE
*****
   20    21     0     0     0
SMALL
NO_CHARGES

@<TRIPOS>ATOM
      1 C1         -0.3524   -2.5050   -3.4333 C.ar      1 <0>         0.0000
      2 C2         -0.0408   -1.1888   -1.4066 C.ar      1 <0>         0.0000
      3 C3         -0.8506   -1.6307   -2.4679 C.ar      1 <0>         0.0000
      4 C4          1.3067   -1.5913   -1.4757 C.ar      1 <0>         0.0000
      5 C5          1.7183   -2.4855   -2.4828 C.ar      1 <0>         0.0000
      6 C6         -2.0067   -0.5214    0.2708 C.3       1 <0>         0.0000
      7 C7         -1.3843   -0.3054    1.6654 C.3       1 <0>         0.0000
      8 C8         -0.5663   -0.3053   -0.2871 C.3       1 <0>         0.0000
      9 N1          0.9068   -2.9423   -3.4201 N.ar      1 <0>         0.0000
     10 N2         -0.0529   -0.6010    1.0777 N.3       1 <0>         0.0000
     11 Cl1        -2.4978   -1.0672   -2.6926 Cl        1 <0>         0.0000
     12 Cl2         2.4984   -0.9287   -0.3866 Cl        1 <0>         0.0000
     13 Cl3         3.3714   -3.0525   -2.5571 Cl        1 <0>         0.0000
     14 H1         -0.9918   -2.8573   -4.2387 H         1 <0>         0.0000
     15 H2         -2.3531   -1.5460    0.1304 H         1 <0>         0.0000
     16 H3         -2.7752    0.1762   -0.0585 H         1 <0>         0.0000
     17 H4         -1.4999    0.7311    2.0127 H         1 <0>         0.0000
     18 H5         -1.6816   -0.9901    2.4656 H         1 <0>         0.0000
     19 H6         -0.4288    0.7458   -0.5884 H         1 <0>         0.0000
     20 H7          0.7109   -0.0085    1.3910 H         1 <0>         0.0000
@<TRIPOS>BOND
     1    1    3 ar
     2    1    9 ar
     3    1   14 1
     4    2    3 ar
     5    2    4 ar
     6    2    8 1
     7    3   11 1
     8    4    5 ar
     9    4   12 1
    10    5    9 ar
    11    5   13 1
    12    6    7 1
    13    6    8 1
    14    6   15 1
    15    6   16 1
    16    7   10 1
    17    7   17 1
    18    7   18 1
    19    8   10 1
    20    8   19 1
    21   10   20 1
