@<TRIPOS>MOLECULE
*****
   35    37     0     0     0
SMALL
NO_CHARGES

@<TRIPOS>ATOM
      1 C1          1.0721   -2.9135    2.2260 C.ar      1 <0>         0.0000
      2 C2         -1.4387   -3.3193    3.0692 C.ar      1 <0>         0.0000
      3 C3         -0.1574    0.5812    4.3636 C.2       1 <0>         0.0000
      4 C4         -2.5582   -4.0422    3.6307 C.2       1 <0>         0.0000
      5 C5         -0.6336    0.6211    5.7156 C.2       1 <0>         0.0000
      6 C6          1.2000    0.6911    4.4871 C.2       1 <0>         0.0000
      7 C7         -0.9548   -1.9923    2.8739 C.ar      1 <0>         0.0000
      8 C8         -0.5334   -4.3377    2.7337 C.ar      1 <0>         0.0000
      9 C9         -3.8179   -3.5701    4.2942 C.3       1 <0>         0.0000
     10 C10        -2.0484    0.5108    6.1935 C.3       1 <0>         0.0000
     11 C11         2.3193    0.7054    3.5056 C.3       1 <0>         0.0000
     12 C12        -3.1233   -0.8145    2.7792 C.3       1 <0>         0.0000
     13 C13        -0.9874    0.4381    3.1258 C.3       1 <0>         0.0000
     14 N1          0.3288   -1.8295    2.4892 N.ar      1 <0>         0.0000
     15 N2          0.7143   -4.1999    2.2900 N.ar      1 <0>         0.0000
     16 N3         -2.3442   -5.3367    3.5821 N.2       1 <0>         0.0000
     17 N4          0.3528    0.7543    6.5749 N.2       1 <0>         0.0000
     18 N5         -1.6937   -0.8568    3.0654 N.pl3     1 <0>         0.0000
     19 O1          1.5255    0.8026    5.7960 O.3       1 <0>         0.0000
     20 O2         -1.0730   -5.5439    2.9945 O.3       1 <0>         0.0000
     21 H1          2.0954   -2.7170    1.9105 H         1 <0>         0.0000
     22 H2         -4.5523   -3.2094    3.5688 H         1 <0>         0.0000
     23 H3         -4.2631   -4.4014    4.8441 H         1 <0>         0.0000
     24 H4         -3.6052   -2.7572    4.9940 H         1 <0>         0.0000
     25 H5         -2.4569   -0.4766    5.9533 H         1 <0>         0.0000
     26 H6         -2.0959    0.6548    7.2748 H         1 <0>         0.0000
     27 H7         -2.6855    1.2601    5.7111 H         1 <0>         0.0000
     28 H8          2.7123    1.7189    3.3685 H         1 <0>         0.0000
     29 H9          3.1384    0.0725    3.8594 H         1 <0>         0.0000
     30 H10         1.9701    0.3195    2.5469 H         1 <0>         0.0000
     31 H11        -3.3261   -0.0243    2.0475 H         1 <0>         0.0000
     32 H12        -3.7208   -0.6159    3.6757 H         1 <0>         0.0000
     33 H13        -3.4460   -1.7559    2.3382 H         1 <0>         0.0000
     34 H14        -1.7634    1.2084    3.1130 H         1 <0>         0.0000
     35 H15        -0.3705    0.5748    2.2332 H         1 <0>         0.0000
@<TRIPOS>BOND
     1    1   14 ar
     2    1   15 ar
     3    1   21 1
     4    2    4 1
     5    2    7 ar
     6    2    8 ar
     7    3    5 1
     8    3    6 2
     9    3   13 1
    10    4    9 1
    11    4   16 2
    12    5   10 1
    13    5   17 2
    14    6   11 1
    15    6   19 1
    16    7   14 ar
    17    7   18 1
    18    8   15 ar
    19    8   20 1
    20    9   22 1
    21    9   23 1
    22    9   24 1
    23   10   25 1
    24   10   26 1
    25   10   27 1
    26   11   28 1
    27   11   29 1
    28   11   30 1
    29   12   18 1
    30   12   31 1
    31   12   32 1
    32   12   33 1
    33   13   18 1
    34   13   34 1
    35   13   35 1
    36   16   20 1
    37   17   19 1
