@<TRIPOS>MOLECULE
*****
   28    29     0     0     0
SMALL
NO_CHARGES

@<TRIPOS>ATOM
      1 C1          5.1113   -6.6955    2.0946 C.ar      1 <0>         0.0000
      2 C2          4.0576   -7.2590    2.8346 C.ar      1 <0>         0.0000
      3 C3          4.9094   -5.5653    1.3009 C.ar      1 <0>         0.0000
      4 C4          2.7778   -6.6961    2.7920 C.ar      1 <0>         0.0000
      5 C5          3.6321   -4.9880    1.2448 C.ar      1 <0>         0.0000
      6 C6          2.5781   -5.5668    1.9972 C.ar      1 <0>         0.0000
      7 C7          2.0254   -3.5876    0.6700 C.2       1 <0>         0.0000
      8 C8          0.1730   -0.3117   -1.2023 C.2       1 <0>         0.0000
      9 C9          0.6313   -0.7285   -2.3968 C.2       1 <0>         0.0000
     10 C10        -0.4229   -1.1844   -0.1608 C.2       1 <0>         0.0000
     11 C11         0.6190   -2.1342   -2.9246 C.3       1 <0>         0.0000
     12 N1          3.2865   -3.8663    0.5005 N.2       1 <0>         0.0000
     13 N2          0.1167   -2.2266    0.3828 N.2       1 <0>         0.0000
     14 N3         -1.6473   -0.7469    0.3534 N.pl3     1 <0>         0.0000
     15 N4          1.4008   -2.5577    0.0259 N.pl3     1 <0>         0.0000
     16 S1          1.0947   -4.6432    1.7527 S.3       1 <0>         0.0000
     17 H1          6.0989   -7.1470    2.1415 H         1 <0>         0.0000
     18 H2          4.2353   -8.1392    3.4464 H         1 <0>         0.0000
     19 H3          5.7189   -5.1236    0.7271 H         1 <0>         0.0000
     20 H4          1.9635   -7.1310    3.3653 H         1 <0>         0.0000
     21 H5          0.1852    0.7515   -0.9677 H         1 <0>         0.0000
     22 H6          1.0378    0.0307   -3.0646 H         1 <0>         0.0000
     23 H7          1.6393   -2.5315   -2.9970 H         1 <0>         0.0000
     24 H8          0.2015   -2.1493   -3.9379 H         1 <0>         0.0000
     25 H9          0.0418   -2.8110   -2.2923 H         1 <0>         0.0000
     26 H10        -2.3090   -0.4416   -0.3532 H         1 <0>         0.0000
     27 H11        -2.0554   -1.4143    1.0023 H         1 <0>         0.0000
     28 H12         2.0025   -1.8823   -0.4419 H         1 <0>         0.0000
@<TRIPOS>BOND
     1    1    2 ar
     2    1    3 ar
     3    1   17 1
     4    2    4 ar
     5    2   18 1
     6    3    5 ar
     7    3   19 1
     8    4    6 ar
     9    4   20 1
    10    5    6 ar
    11    5   12 1
    12    6   16 1
    13    7   12 2
    14    7   15 1
    15    7   16 1
    16    8    9 2
    17    8   10 1
    18    8   21 1
    19    9   11 1
    20    9   22 1
    21   10   13 2
    22   10   14 1
    23   11   23 1
    24   11   24 1
    25   11   25 1
    26   13   15 1
    27   14   26 1
    28   14   27 1
    29   15   28 1
