@<TRIPOS>MOLECULE
*****
   22    23     0     0     0
SMALL
NO_CHARGES

@<TRIPOS>ATOM
      1 C1          0.3440   -0.5112   -2.2250 C.2       1 <0>         0.0000
      2 C2         -0.4350   -0.1438   -1.0823 C.2       1 <0>         0.0000
      3 C3         -0.4068   -0.4998   -3.3629 C.2       1 <0>         0.0000
      4 C4         -1.7498    0.1191   -1.3729 C.2       1 <0>         0.0000
      5 C5         -1.4884   -4.8147    0.3892 C.2       1 <0>         0.0000
      6 C6         -0.8216   -2.5690    0.8975 C.2       1 <0>         0.0000
      7 C7         -2.0598   -6.1950    0.3084 C.3       1 <0>         0.0000
      8 N1         -0.6548   -4.3141   -0.4711 N.2       1 <0>         0.0000
      9 N2         -0.2712   -3.0240   -0.1901 N.2       1 <0>         0.0000
     10 N3         -0.5877   -1.3009    1.4161 N.pl3     1 <0>         0.0000
     11 O1         -0.1135    1.1255    1.2428 O.2       1 <0>         0.0000
     12 O2          1.6643   -0.5102    0.4204 O.2       1 <0>         0.0000
     13 S1         -2.0773   -0.0633   -3.0714 S.3       1 <0>         0.0000
     14 S2         -1.8954   -3.6991    1.7022 S.3       1 <0>         0.0000
     15 S3          0.2783   -0.0963    0.5486 S.o2      1 <0>         0.0000
     16 Cl1         0.1162   -0.8763   -4.9635 Cl        1 <0>         0.0000
     17 Cl2        -3.0214    0.5298   -0.2849 Cl        1 <0>         0.0000
     18 H1          1.3895   -0.7867   -2.1686 H         1 <0>         0.0000
     19 H2         -1.7841   -6.7904    1.1845 H         1 <0>         0.0000
     20 H3         -3.1524   -6.1705    0.2462 H         1 <0>         0.0000
     21 H4         -1.6646   -6.6791   -0.5866 H         1 <0>         0.0000
     22 H5         -1.3116   -0.8844    1.9946 H         1 <0>         0.0000
@<TRIPOS>BOND
     1    1    2 1
     2    1    3 2
     3    1   18 1
     4    2    4 2
     5    2   15 1
     6    3   13 1
     7    3   16 1
     8    4   13 1
     9    4   17 1
    10    5    7 1
    11    5    8 2
    12    5   14 1
    13    6    9 2
    14    6   10 1
    15    6   14 1
    16    7   19 1
    17    7   20 1
    18    7   21 1
    19    8    9 1
    20   10   15 1
    21   10   22 1
    22   11   15 2
    23   12   15 2
