@<TRIPOS>MOLECULE
*****
   35    37     0     0     0
SMALL
NO_CHARGES

@<TRIPOS>ATOM
      1 C1         -1.1606   -0.9934   -1.4760 C.ar      1 <0>         0.0000
      2 C2         -1.8741   -2.1999   -1.5900 C.ar      1 <0>         0.0000
      3 C3         -2.1387   -6.6896   -6.4455 C.ar      1 <0>         0.0000
      4 C4         -1.3811   -6.2343   -8.6938 C.ar      1 <0>         0.0000
      5 C5         -0.0750   -0.7176   -2.3091 C.ar      1 <0>         0.0000
      6 C6         -0.8776   -6.3754   -5.9419 C.ar      1 <0>         0.0000
      7 C7         -0.1111   -5.9170   -8.2120 C.ar      1 <0>         0.0000
      8 C8         -2.4102   -6.6242   -7.8217 C.ar      1 <0>         0.0000
      9 C9         -1.5347   -3.1732   -2.5331 C.ar      1 <0>         0.0000
     10 C10        -0.4400   -2.9012   -3.3753 C.ar      1 <0>         0.0000
     11 C11         0.2734   -1.6860   -3.2529 C.ar      1 <0>         0.0000
     12 C12         0.1213   -5.9900   -6.8374 C.ar      1 <0>         0.0000
     13 C13         1.0308   -3.2514   -4.9882 C.2       1 <0>         0.0000
     14 C14        -3.7725   -6.9976   -8.3550 C.3       1 <0>         0.0000
     15 C15        -2.2850   -4.4736   -2.6701 C.3       1 <0>         0.0000
     16 N1          0.0140   -3.7582   -4.3717 N.2       1 <0>         0.0000
     17 N2          1.6766   -3.8677   -6.0493 N.pl3     1 <0>         0.0000
     18 O1          2.7329   -5.7399   -7.2838 O.2       1 <0>         0.0000
     19 O2          1.9184   -6.2104   -4.9088 O.2       1 <0>         0.0000
     20 S1          1.5788   -1.6512   -4.4350 S.3       1 <0>         0.0000
     21 S2          1.7419   -5.5900   -6.2162 S.o2      1 <0>         0.0000
     22 H1         -1.4574   -0.2638   -0.7277 H         1 <0>         0.0000
     23 H2         -2.7151   -2.3815   -0.9251 H         1 <0>         0.0000
     24 H3         -2.9256   -6.9888   -5.7571 H         1 <0>         0.0000
     25 H4         -1.5734   -6.1819   -9.7626 H         1 <0>         0.0000
     26 H5          0.4759    0.2140   -2.2201 H         1 <0>         0.0000
     27 H6         -0.6658   -6.4118   -4.8801 H         1 <0>         0.0000
     28 H7          0.6895   -5.6289   -8.8858 H         1 <0>         0.0000
     29 H8         -3.8347   -8.0786   -8.5286 H         1 <0>         0.0000
     30 H9         -4.5642   -6.7332   -7.6480 H         1 <0>         0.0000
     31 H10        -3.9812   -6.4988   -9.3054 H         1 <0>         0.0000
     32 H11        -2.6540   -4.6045   -3.6927 H         1 <0>         0.0000
     33 H12        -1.6291   -5.3246   -2.4565 H         1 <0>         0.0000
     34 H13        -3.1349   -4.5121   -1.9835 H         1 <0>         0.0000
     35 H14         2.5304   -3.4465   -6.4066 H         1 <0>         0.0000
@<TRIPOS>BOND
     1    1    2 ar
     2    1    5 ar
     3    1   22 1
     4    2    9 ar
     5    2   23 1
     6    3    6 ar
     7    3    8 ar
     8    3   24 1
     9    4    7 ar
    10    4    8 ar
    11    4   25 1
    12    5   11 ar
    13    5   26 1
    14    6   12 ar
    15    6   27 1
    16    7   12 ar
    17    7   28 1
    18    8   14 1
    19    9   10 ar
    20    9   15 1
    21   10   11 ar
    22   10   16 1
    23   11   20 1
    24   12   21 1
    25   13   16 2
    26   13   17 1
    27   13   20 1
    28   14   29 1
    29   14   30 1
    30   14   31 1
    31   15   32 1
    32   15   33 1
    33   15   34 1
    34   17   21 1
    35   17   35 1
    36   18   21 2
    37   19   21 2
