@<TRIPOS>MOLECULE
*****
   40    42     0     0     0
SMALL
NO_CHARGES

@<TRIPOS>ATOM
      1 C1         -1.5614    4.7083    1.2891 C.1       1 <0>         0.0000
      2 C2         -8.2765    3.5205    3.2012 C.ar      1 <0>         0.0000
      3 C3         -7.4458    5.7744    3.1266 C.ar      1 <0>         0.0000
      4 C4         -7.0256    3.0415    2.8112 C.ar      1 <0>         0.0000
      5 C5         -6.1880    5.3176    2.7368 C.ar      1 <0>         0.0000
      6 C6         -8.5120    4.8927    3.3688 C.ar      1 <0>         0.0000
      7 C7         -5.9762    3.9410    2.5781 C.ar      1 <0>         0.0000
      8 C8         -2.2520    2.2846    1.4241 C.2       1 <0>         0.0000
      9 C9         -1.3476    0.3221    1.0832 C.2       1 <0>         0.0000
     10 C10        -2.5488    3.7085    1.5724 C.2       1 <0>         0.0000
     11 C11        -0.3594   -0.7401    0.7324 C.3       1 <0>         0.0000
     12 C12         0.2564   -0.5705   -0.6719 C.3       1 <0>         0.0000
     13 C13         1.3069    0.5444   -0.7828 C.3       1 <0>         0.0000
     14 C14         0.8107    1.9724   -0.5104 C.3       1 <0>         0.0000
     15 C15         0.2955    2.2139    0.9127 C.3       1 <0>         0.0000
     16 C16        -9.8584    5.4054    3.8243 C.3       1 <0>         0.0000
     17 N1         -0.7454    5.5061    1.0437 N.1       1 <0>         0.0000
     18 N2         -3.1927    1.3493    1.5608 N.2       1 <0>         0.0000
     19 N3         -2.6245    0.1204    1.3417 N.2       1 <0>         0.0000
     20 N4         -3.7191    4.2064    1.9312 N.2       1 <0>         0.0000
     21 N5         -1.0510    1.6654    1.1284 N.pl3     1 <0>         0.0000
     22 N6         -4.7333    3.4153    2.1837 N.pl3     1 <0>         0.0000
     23 H1         -9.0824    2.8113    3.3756 H         1 <0>         0.0000
     24 H2         -7.6023    6.8446    3.2441 H         1 <0>         0.0000
     25 H3         -6.8627    1.9737    2.6834 H         1 <0>         0.0000
     26 H4         -5.3738    6.0089    2.5507 H         1 <0>         0.0000
     27 H5          0.4413   -0.7754    1.4837 H         1 <0>         0.0000
     28 H6         -0.8991   -1.6879    0.7964 H         1 <0>         0.0000
     29 H7          0.7319   -1.5183   -0.9478 H         1 <0>         0.0000
     30 H8         -0.5497   -0.4030   -1.3964 H         1 <0>         0.0000
     31 H9          2.1323    0.3227   -0.0921 H         1 <0>         0.0000
     32 H10         1.7383    0.5161   -1.7901 H         1 <0>         0.0000
     33 H11         1.6420    2.6671   -0.6750 H         1 <0>         0.0000
     34 H12         0.0249    2.2531   -1.2216 H         1 <0>         0.0000
     35 H13         0.9650    1.7538    1.6481 H         1 <0>         0.0000
     36 H14         0.2675    3.2775    1.1262 H         1 <0>         0.0000
     37 H15        -9.8900    5.5144    4.9155 H         1 <0>         0.0000
     38 H16       -10.0794    6.3862    3.3922 H         1 <0>         0.0000
     39 H17       -10.6637    4.7217    3.5399 H         1 <0>         0.0000
     40 H18        -4.6058    2.3957    2.0681 H         1 <0>         0.0000
@<TRIPOS>BOND
     1    1   10 1
     2    1   17 3
     3    2    4 ar
     4    2    6 ar
     5    2   23 1
     6    3    5 ar
     7    3    6 ar
     8    3   24 1
     9    4    7 ar
    10    4   25 1
    11    5    7 ar
    12    5   26 1
    13    6   16 1
    14    7   22 1
    15    8   10 1
    16    8   18 2
    17    8   21 1
    18    9   11 1
    19    9   19 2
    20    9   21 1
    21   10   20 2
    22   11   12 1
    23   11   27 1
    24   11   28 1
    25   12   13 1
    26   12   29 1
    27   12   30 1
    28   13   14 1
    29   13   31 1
    30   13   32 1
    31   14   15 1
    32   14   33 1
    33   14   34 1
    34   15   21 1
    35   15   35 1
    36   15   36 1
    37   16   37 1
    38   16   38 1
    39   16   39 1
    40   18   19 1
    41   20   22 1
    42   22   40 1
