@<TRIPOS>MOLECULE
*****
   26    27     0     0     0
SMALL
NO_CHARGES

@<TRIPOS>ATOM
      1 C1          3.4682   -4.3988   -1.5838 C.ar      1 <0>         0.0000
      2 C2          2.8333   -5.8591    0.2399 C.ar      1 <0>         0.0000
      3 C3          1.3951   -2.6826    0.6604 C.ar      1 <0>         0.0000
      4 C4          3.0002   -5.3372   -2.5066 C.ar      1 <0>         0.0000
      5 C5          2.3622   -6.8055   -0.6733 C.ar      1 <0>         0.0000
      6 C6          0.2846   -1.8802    0.9041 C.ar      1 <0>         0.0000
      7 C7          1.5906   -0.5366    2.4237 C.ar      1 <0>         0.0000
      8 C8          2.7167   -1.3440    2.1816 C.ar      1 <0>         0.0000
      9 C9          3.3793   -4.6488   -0.2078 C.ar      1 <0>         0.0000
     10 C10         2.6320   -2.4414    1.2849 C.ar      1 <0>         0.0000
     11 C11         2.4482   -6.5332   -2.0409 C.ar      1 <0>         0.0000
     12 C12         0.3865   -0.8043    1.7894 C.ar      1 <0>         0.0000
     13 C13         3.9841   -1.0265    2.8786 C.2       1 <0>         0.0000
     14 O1          5.0254   -1.6505    2.7558 O.2       1 <0>         0.0000
     15 O2          3.8980    0.0570    3.6998 O.3       1 <0>         0.0000
     16 S1          4.0571   -3.4750    0.9683 S.3       1 <0>         0.0000
     17 Cl1         1.8576   -7.7156   -3.1934 Cl        1 <0>         0.0000
     18 Cl2        -1.0124    0.2083    2.0976 Cl        1 <0>         0.0000
     19 H1          3.8989   -3.4654   -1.9339 H         1 <0>         0.0000
     20 H2          2.7709   -6.0592    1.3055 H         1 <0>         0.0000
     21 H3          1.2881   -3.5098   -0.0301 H         1 <0>         0.0000
     22 H4          3.0654   -5.1449   -3.5729 H         1 <0>         0.0000
     23 H5          1.9365   -7.7427   -0.3290 H         1 <0>         0.0000
     24 H6         -0.6573   -2.0915    0.4069 H         1 <0>         0.0000
     25 H7          1.6752    0.2961    3.1111 H         1 <0>         0.0000
     26 H8          4.7850    0.1594    4.0940 H         1 <0>         0.0000
@<TRIPOS>BOND
     1    1    4 ar
     2    1    9 ar
     3    1   19 1
     4    2    5 ar
     5    2    9 ar
     6    2   20 1
     7    3    6 ar
     8    3   10 ar
     9    3   21 1
    10    4   11 ar
    11    4   22 1
    12    5   11 ar
    13    5   23 1
    14    6   12 ar
    15    6   24 1
    16    7    8 ar
    17    7   12 ar
    18    7   25 1
    19    8   10 ar
    20    8   13 1
    21    9   16 1
    22   10   16 1
    23   11   17 1
    24   12   18 1
    25   13   14 2
    26   13   15 1
    27   15   26 1
