@<TRIPOS>MOLECULE
*****
   36    39     0     0     0
SMALL
NO_CHARGES

@<TRIPOS>ATOM
      1 C1          4.8229   -4.1052    4.8872 C.2       1 <0>         0.0000
      2 C2          3.0166   -4.7473    4.0413 C.2       1 <0>         0.0000
      3 C3          2.0646   -2.8578    1.7765 C.2       1 <0>         0.0000
      4 C4          0.7009   -2.3822    3.5861 C.2       1 <0>         0.0000
      5 C5          1.5485    0.6601    0.3579 C.3       1 <0>         0.0000
      6 C6          2.5808    0.9003    1.4977 C.3       1 <0>         0.0000
      7 C7          6.4021   -2.0958    4.6991 C.3       1 <0>         0.0000
      8 C8          5.7506   -2.0153    6.0469 C.3       1 <0>         0.0000
      9 C9          1.2265   -0.8579    0.3834 C.3       1 <0>         0.0000
     10 C10         3.0193   -0.5043    1.9523 C.3       1 <0>         0.0000
     11 C11         5.9830   -3.3808    5.4093 C.3       1 <0>         0.0000
     12 C12         1.7548   -1.3628    1.7381 C.3       1 <0>         0.0000
     13 C13         1.6472   -4.6959    3.4103 C.3       1 <0>         0.0000
     14 N1          3.7255   -3.6132    4.3692 N.2       1 <0>         0.0000
     15 N2          3.6140   -5.8770    4.3285 N.2       1 <0>         0.0000
     16 N3          0.7851   -1.2370    2.8321 N.am      1 <0>         0.0000
     17 N4          1.3866   -3.3836    2.8590 N.am      1 <0>         0.0000
     18 O1          2.7905   -3.4739    1.0158 O.2       1 <0>         0.0000
     19 O2          0.1365   -2.5510    4.6530 O.2       1 <0>         0.0000
     20 O3          4.8368   -5.4507    4.9068 O.3       1 <0>         0.0000
     21 H1          0.6470    1.2586    0.5171 H         1 <0>         0.0000
     22 H2          1.9517    0.9519   -0.6155 H         1 <0>         0.0000
     23 H3          3.4308    1.5077    1.1756 H         1 <0>         0.0000
     24 H4          2.1124    1.4376    2.3305 H         1 <0>         0.0000
     25 H5          5.8137   -1.8167    3.8313 H         1 <0>         0.0000
     26 H6          7.4690   -1.9115    4.6210 H         1 <0>         0.0000
     27 H7          6.3628   -1.7723    6.9097 H         1 <0>         0.0000
     28 H8          4.7197   -1.6803    6.0939 H         1 <0>         0.0000
     29 H9          0.1636   -1.0811    0.2655 H         1 <0>         0.0000
     30 H10         1.7730   -1.3854   -0.4035 H         1 <0>         0.0000
     31 H11         3.8035   -0.8990    1.2983 H         1 <0>         0.0000
     32 H12         3.3778   -0.5553    2.9839 H         1 <0>         0.0000
     33 H13         6.7628   -4.0125    5.8198 H         1 <0>         0.0000
     34 H14         1.5741   -5.4502    2.6249 H         1 <0>         0.0000
     35 H15         0.8815   -4.8896    4.1648 H         1 <0>         0.0000
     36 H16         0.5994   -0.3571    3.2957 H         1 <0>         0.0000
@<TRIPOS>BOND
     1    1   11 1
     2    1   14 2
     3    1   20 1
     4    2   13 1
     5    2   14 1
     6    2   15 2
     7    3   12 1
     8    3   17 am
     9    3   18 2
    10    4   16 am
    11    4   17 am
    12    4   19 2
    13    5    6 1
    14    5    9 1
    15    5   21 1
    16    5   22 1
    17    6   10 1
    18    6   23 1
    19    6   24 1
    20    7    8 1
    21    7   11 1
    22    7   25 1
    23    7   26 1
    24    8   11 1
    25    8   27 1
    26    8   28 1
    27    9   12 1
    28    9   29 1
    29    9   30 1
    30   10   12 1
    31   10   31 1
    32   10   32 1
    33   11   33 1
    34   12   16 1
    35   13   17 1
    36   13   34 1
    37   13   35 1
    38   15   20 1
    39   16   36 1
