@<TRIPOS>MOLECULE
*****
   20    21     0     0     0
SMALL
NO_CHARGES

@<TRIPOS>ATOM
      1 C1         -2.6976   -2.7909    1.0683 C.2       1 <0>         0.0000
      2 C2         -3.3371   -4.0478    1.1890 C.2       1 <0>         0.0000
      3 C3         -1.6923   -2.9609    0.1450 C.2       1 <0>         0.0000
      4 C4         -2.6771   -4.8962    0.3307 C.2       1 <0>         0.0000
      5 C5          1.2970   -2.9497   -1.3034 C.2       1 <0>         0.0000
      6 C6         -0.6450   -1.9390   -1.9521 C.3       1 <0>         0.0000
      7 C7         -0.6507   -2.0294   -0.4338 C.3       1 <0>         0.0000
      8 N1          0.6784   -2.4908   -0.1618 N.am      1 <0>         0.0000
      9 N2         -2.8244   -6.2441   -0.0022 N.pl3     1 <0>         0.0000
     10 O1         -3.7337   -6.9346    0.5459 O.3       1 <0>         0.0000
     11 O2          2.3985   -3.4752   -1.3792 O.2       1 <0>         0.0000
     12 O3         -2.0482   -6.7736   -0.8514 O.2       1 <0>         0.0000
     13 O4         -1.6732   -4.2414   -0.3095 O.3       1 <0>         0.0000
     14 O5          0.4729   -2.7401   -2.3798 O.3       1 <0>         0.0000
     15 H1         -2.9400   -1.8761    1.5901 H         1 <0>         0.0000
     16 H2         -4.1748   -4.2989    1.8241 H         1 <0>         0.0000
     17 H3         -1.5563   -2.3207   -2.4232 H         1 <0>         0.0000
     18 H4         -0.4647   -0.9147   -2.2959 H         1 <0>         0.0000
     19 H5         -0.7864   -1.0157    0.0288 H         1 <0>         0.0000
     20 H6          1.0901   -2.5434    0.7649 H         1 <0>         0.0000
@<TRIPOS>BOND
     1    1    2 1
     2    1    3 2
     3    1   15 1
     4    2    4 2
     5    2   16 1
     6    3    7 1
     7    3   13 1
     8    4    9 1
     9    4   13 1
    10    5    8 am
    11    5   11 2
    12    5   14 1
    13    6    7 1
    14    6   14 1
    15    6   17 1
    16    6   18 1
    17    7    8 1
    18    7   19 1
    19    8   20 1
    20    9   10 1
    21    9   12 2
