@<TRIPOS>MOLECULE
*****
   41    43     0     0     0
SMALL
NO_CHARGES

@<TRIPOS>ATOM
      1 C1         -2.9017    0.4317    1.3720 C.ar      1 <0>         0.0000
      2 C2         -2.1325   -1.4635    2.6425 C.ar      1 <0>         0.0000
      3 C3         -4.2221    0.0120    1.5179 C.ar      1 <0>         0.0000
      4 C4         -3.4508   -1.9021    2.7966 C.ar      1 <0>         0.0000
      5 C5         -2.1148    1.9164    5.2827 C.2       1 <0>         0.0000
      6 C6         -0.3418    0.8702    4.8413 C.2       1 <0>         0.0000
      7 C7         -1.8414   -0.3085    1.9137 C.ar      1 <0>         0.0000
      8 C8         -4.4866   -1.1642    2.2244 C.ar      1 <0>         0.0000
      9 C9          1.1263    1.0214   -0.3016 C.3       1 <0>         0.0000
     10 C10        -0.2760    1.3995   -0.6957 C.3       1 <0>         0.0000
     11 C11        -0.0439    0.2074    0.2101 C.3       1 <0>         0.0000
     12 C12        -2.0483   -2.9163   -1.9520 C.3       1 <0>         0.0000
     13 C13        -0.2020    1.5353    2.3937 C.3       1 <0>         0.0000
     14 C14        -1.9342   -1.7008   -1.0325 C.3       1 <0>         0.0000
     15 C15        -0.3943    0.1530    1.7166 C.3       1 <0>         0.0000
     16 N1         -1.1840    1.0868    5.8427 N.2       1 <0>         0.0000
     17 N2         -1.8991    2.2238    4.0091 N.2       1 <0>         0.0000
     18 N3         -0.7435    1.5474    3.7379 N.pl3     1 <0>         0.0000
     19 O1          0.2514   -2.4473    0.3203 O.2       1 <0>         0.0000
     20 O2          0.5296   -1.2788   -1.9326 O.2       1 <0>         0.0000
     21 O3          0.5353   -0.6828    2.3971 O.3       1 <0>         0.0000
     22 S1         -0.1794   -1.4055   -0.6469 S.o2      1 <0>         0.0000
     23 Cl1        -6.1446   -1.7106    2.4011 Cl        1 <0>         0.0000
     24 H1         -2.7097    1.3483    0.8239 H         1 <0>         0.0000
     25 H2         -1.3257   -2.0320    3.0902 H         1 <0>         0.0000
     26 H3         -5.0375    0.5903    1.0955 H         1 <0>         0.0000
     27 H4         -3.6689   -2.8056    3.3570 H         1 <0>         0.0000
     28 H5         -2.9674    2.3064    5.8236 H         1 <0>         0.0000
     29 H6          0.5383    0.2426    4.8524 H         1 <0>         0.0000
     30 H7          1.7510    0.5702   -1.0640 H         1 <0>         0.0000
     31 H8          1.6500    1.6267    0.4290 H         1 <0>         0.0000
     32 H9         -0.7273    2.2859   -0.2636 H         1 <0>         0.0000
     33 H10        -0.5686    1.1990   -1.7220 H         1 <0>         0.0000
     34 H11        -1.5159   -2.7557   -2.8915 H         1 <0>         0.0000
     35 H12        -1.6493   -3.8114   -1.4684 H         1 <0>         0.0000
     36 H13        -3.1061   -3.0884   -2.1712 H         1 <0>         0.0000
     37 H14         0.8666    1.7514    2.4383 H         1 <0>         0.0000
     38 H15        -0.7132    2.3331    1.8595 H         1 <0>         0.0000
     39 H16        -2.4443   -1.8541   -0.0835 H         1 <0>         0.0000
     40 H17        -2.3058   -0.7871   -1.5020 H         1 <0>         0.0000
     41 H18         0.6112   -1.5230    1.8969 H         1 <0>         0.0000
@<TRIPOS>BOND
     1    1    3 ar
     2    1    7 ar
     3    1   24 1
     4    2    4 ar
     5    2    7 ar
     6    2   25 1
     7    3    8 ar
     8    3   26 1
     9    4    8 ar
    10    4   27 1
    11    5   16 1
    12    5   17 2
    13    5   28 1
    14    6   16 2
    15    6   18 1
    16    6   29 1
    17    7   15 1
    18    8   23 1
    19    9   10 1
    20    9   11 1
    21    9   30 1
    22    9   31 1
    23   10   11 1
    24   10   32 1
    25   10   33 1
    26   11   15 1
    27   11   22 1
    28   12   14 1
    29   12   34 1
    30   12   35 1
    31   12   36 1
    32   13   15 1
    33   13   18 1
    34   13   37 1
    35   13   38 1
    36   14   22 1
    37   14   39 1
    38   14   40 1
    39   15   21 1
    40   17   18 1
    41   19   22 2
    42   20   22 2
    43   21   41 1
