@<TRIPOS>MOLECULE
*****
   32    33     0     0     0
SMALL
NO_CHARGES

@<TRIPOS>ATOM
      1 C1          1.5968   -2.7039    1.7572 C.ar      1 <0>         0.0000
      2 C2          0.2398   -3.0235    1.5666 C.ar      1 <0>         0.0000
      3 C3          2.0890   -1.5050    1.2591 C.ar      1 <0>         0.0000
      4 C4         -0.6151   -2.1504    0.9005 C.ar      1 <0>         0.0000
      5 C5          1.2463   -0.6126    0.5702 C.ar      1 <0>         0.0000
      6 C6         -0.1162   -0.9369    0.4050 C.ar      1 <0>         0.0000
      7 C7          1.7809    0.6261   -0.0279 C.2       1 <0>         0.0000
      8 C8         -2.5767    0.2222   -3.1056 C.2       1 <0>         0.0000
      9 C9          0.8018    1.3540   -0.9353 C.3       1 <0>         0.0000
     10 C10        -0.6379    1.2670   -0.4176 C.3       1 <0>         0.0000
     11 C11        -2.3557   -0.4182   -4.4660 C.3       1 <0>         0.0000
     12 C12        -0.8132    2.0141    0.9095 C.3       1 <0>         0.0000
     13 C13        -1.6551    1.8056   -1.4391 C.3       1 <0>         0.0000
     14 N1         -1.6235    1.1392   -2.7257 N.am      1 <0>         0.0000
     15 O1          2.9291    1.0226    0.1398 O.2       1 <0>         0.0000
     16 O2         -3.5405   -0.0647   -2.4026 O.2       1 <0>         0.0000
     17 O3         -1.0044   -0.1245   -0.2293 O.3       1 <0>         0.0000
     18 H1          2.2513   -3.3919    2.2843 H         1 <0>         0.0000
     19 H2         -0.1538   -3.9613    1.9507 H         1 <0>         0.0000
     20 H3          3.1330   -1.2279    1.3736 H         1 <0>         0.0000
     21 H4         -1.6673   -2.3778    0.7583 H         1 <0>         0.0000
     22 H5          1.1212    2.3928   -1.0490 H         1 <0>         0.0000
     23 H6          0.8648    0.8647   -1.9159 H         1 <0>         0.0000
     24 H7         -2.1868   -1.4890   -4.3208 H         1 <0>         0.0000
     25 H8         -3.2662   -0.3060   -5.0595 H         1 <0>         0.0000
     26 H9         -1.5103   -0.0005   -5.0208 H         1 <0>         0.0000
     27 H10        -1.8427    1.9111    1.2630 H         1 <0>         0.0000
     28 H11        -0.5893    3.0779    0.7820 H         1 <0>         0.0000
     29 H12        -0.1452    1.6216    1.6806 H         1 <0>         0.0000
     30 H13        -1.4815    2.8794   -1.5706 H         1 <0>         0.0000
     31 H14        -2.6601    1.6641   -1.0367 H         1 <0>         0.0000
     32 H15        -0.8836    1.3603   -3.3764 H         1 <0>         0.0000
@<TRIPOS>BOND
     1    1    2 ar
     2    1    3 ar
     3    1   18 1
     4    2    4 ar
     5    2   19 1
     6    3    5 ar
     7    3   20 1
     8    4    6 ar
     9    4   21 1
    10    5    6 ar
    11    5    7 1
    12    6   17 1
    13    7    9 1
    14    7   15 2
    15    8   11 1
    16    8   14 am
    17    8   16 2
    18    9   10 1
    19    9   22 1
    20    9   23 1
    21   10   12 1
    22   10   13 1
    23   10   17 1
    24   11   24 1
    25   11   25 1
    26   11   26 1
    27   12   27 1
    28   12   28 1
    29   12   29 1
    30   13   14 1
    31   13   30 1
    32   13   31 1
    33   14   32 1
