@<TRIPOS>MOLECULE
*****
   39    41     0     0     0
SMALL
NO_CHARGES

@<TRIPOS>ATOM
      1 C1          3.3701    0.4197   -5.3110 C.ar      1 <0>         0.0000
      2 C2          3.5928   -0.1479   -4.0504 C.ar      1 <0>         0.0000
      3 C3          2.4512    1.4631   -5.4665 C.ar      1 <0>         0.0000
      4 C4          2.8968    0.3226   -2.9351 C.ar      1 <0>         0.0000
      5 C5          1.7440    1.9430   -4.3605 C.ar      1 <0>         0.0000
      6 C6         -3.2593   -1.5404    0.4742 C.2       1 <0>         0.0000
      7 C7         -2.7396    0.4497    0.9201 C.2       1 <0>         0.0000
      8 C8          1.9793    1.3618   -3.1128 C.ar      1 <0>         0.0000
      9 C9          0.7319   -0.6776    0.4224 C.2       1 <0>         0.0000
     10 C10         1.5792   -2.3549    2.1232 C.3       1 <0>         0.0000
     11 C11         2.4271   -1.1308    2.2292 C.3       1 <0>         0.0000
     12 C12         0.9393   -0.9921    1.8635 C.3       1 <0>         0.0000
     13 C13         0.0015   -0.4330    2.9182 C.3       1 <0>         0.0000
     14 C14        -0.2676    0.7325   -1.4411 C.3       1 <0>         0.0000
     15 C15        -0.3570    0.3573    0.0392 C.3       1 <0>         0.0000
     16 N1         -3.7616   -0.3882    1.0125 N.2       1 <0>         0.0000
     17 N2         -2.0000   -1.4620    0.0587 N.2       1 <0>         0.0000
     18 N3         -1.6749   -0.1718    0.3564 N.pl3     1 <0>         0.0000
     19 O1          1.4114   -1.1756   -0.4631 O.2       1 <0>         0.0000
     20 O2          1.9381    1.9238   -0.5058 O.2       1 <0>         0.0000
     21 O3          0.4114    3.2373   -2.0790 O.2       1 <0>         0.0000
     22 S1          1.0660    1.9744   -1.6948 S.o2      1 <0>         0.0000
     23 H1          3.9171    0.0492   -6.1739 H         1 <0>         0.0000
     24 H2          4.3096   -0.9560   -3.9347 H         1 <0>         0.0000
     25 H3          2.2872    1.9058   -6.4450 H         1 <0>         0.0000
     26 H4          3.0517   -0.1061   -1.9511 H         1 <0>         0.0000
     27 H5          1.0350    2.7601   -4.4498 H         1 <0>         0.0000
     28 H6         -3.8302   -2.4557    0.3874 H         1 <0>         0.0000
     29 H7         -2.7179    1.4824    1.2448 H         1 <0>         0.0000
     30 H8          1.7157   -2.9910    1.2555 H         1 <0>         0.0000
     31 H9          1.2670   -2.8557    3.0348 H         1 <0>         0.0000
     32 H10         2.7056   -0.7642    3.2126 H         1 <0>         0.0000
     33 H11         3.1358   -0.9302    1.4334 H         1 <0>         0.0000
     34 H12         0.3714   -0.6923    3.9144 H         1 <0>         0.0000
     35 H13        -1.0074   -0.8444    2.8270 H         1 <0>         0.0000
     36 H14        -0.0608    0.6599    2.8782 H         1 <0>         0.0000
     37 H15        -1.1832    1.2154   -1.7852 H         1 <0>         0.0000
     38 H16        -0.0437   -0.1456   -2.0466 H         1 <0>         0.0000
     39 H17        -0.2136    1.2446    0.6610 H         1 <0>         0.0000
@<TRIPOS>BOND
     1    1    3 ar
     2    1    2 ar
     3    1   23 1
     4    2    4 ar
     5    2   24 1
     6    3    5 ar
     7    3   25 1
     8    4    8 ar
     9    4   26 1
    10    5    8 ar
    11    5   27 1
    12    6   16 1
    13    6   17 2
    14    6   28 1
    15    7   16 2
    16    7   18 1
    17    7   29 1
    18    8   22 1
    19    9   12 1
    20    9   15 1
    21    9   19 2
    22   10   11 1
    23   10   12 1
    24   10   30 1
    25   10   31 1
    26   11   12 1
    27   11   32 1
    28   11   33 1
    29   12   13 1
    30   13   34 1
    31   13   35 1
    32   13   36 1
    33   14   15 1
    34   14   22 1
    35   14   37 1
    36   14   38 1
    37   15   18 1
    38   15   39 1
    39   17   18 1
    40   20   22 2
    41   21   22 2
