@<TRIPOS>MOLECULE
*****
   49    51     0     0     0
SMALL
NO_CHARGES

@<TRIPOS>ATOM
      1 C1         -5.2638   -1.4407   -2.9722 C.ar      1 <0>         0.0000
      2 C2         -5.4586   -0.4089   -2.0438 C.ar      1 <0>         0.0000
      3 C3         -3.8817   -1.4313   -0.5251 C.ar      1 <0>         0.0000
      4 C4         -0.8765   -6.3499    2.0518 C.ar      1 <0>         0.0000
      5 C5          0.2212   -6.7252    1.2527 C.ar      1 <0>         0.0000
      6 C6         -4.3787   -2.4724   -2.6672 C.ar      1 <0>         0.0000
      7 C7         -3.6959   -2.4590   -1.4459 C.ar      1 <0>         0.0000
      8 C8         -4.7787   -0.3885   -0.8152 C.ar      1 <0>         0.0000
      9 C9          0.2409   -6.1623   -0.0585 C.ar      1 <0>         0.0000
     10 C10        -1.7163   -5.0409    0.4105 C.ar      1 <0>         0.0000
     11 C11         1.2625   -7.6466    1.7711 C.2       1 <0>         0.0000
     12 C12        -3.9748   -3.6835   -3.4812 C.3       1 <0>         0.0000
     13 C13        -2.7772   -3.6589   -1.3548 C.3       1 <0>         0.0000
     14 C14        -3.3549   -4.6412   -2.4274 C.3       1 <0>         0.0000
     15 C15        -5.0264    0.7158    0.1878 C.3       1 <0>         0.0000
     16 C16        -4.4100   -5.5862   -1.8445 C.3       1 <0>         0.0000
     17 C17         1.1214   -5.7852   -2.4304 C.3       1 <0>         0.0000
     18 C18         2.2391   -9.1420    3.5893 C.3       1 <0>         0.0000
     19 C19         1.3225   -6.4573   -1.0717 C.3       1 <0>         0.0000
     20 C20         1.1040   -8.1997    3.1902 C.3       1 <0>         0.0000
     21 N1         -1.8444   -5.5257    1.6691 N.ar      1 <0>         0.0000
     22 N2         -0.7276   -5.3364   -0.4575 N.ar      1 <0>         0.0000
     23 N3         -2.6761   -4.1751   -0.0002 N.pl3     1 <0>         0.0000
     24 O1          2.2400   -7.9721    1.0983 O.2       1 <0>         0.0000
     25 H1         -5.8051   -1.4327   -3.9160 H         1 <0>         0.0000
     26 H2         -6.1539    0.3948   -2.2771 H         1 <0>         0.0000
     27 H3         -3.3335   -1.4301    0.4156 H         1 <0>         0.0000
     28 H4         -0.9797   -6.7394    3.0617 H         1 <0>         0.0000
     29 H5         -4.8130   -4.1393   -4.0189 H         1 <0>         0.0000
     30 H6         -3.2266   -3.3995   -4.2331 H         1 <0>         0.0000
     31 H7         -1.7646   -3.3758   -1.6613 H         1 <0>         0.0000
     32 H8         -2.5421   -5.2346   -2.8540 H         1 <0>         0.0000
     33 H9         -5.8091    0.4311    0.9017 H         1 <0>         0.0000
     34 H10        -4.1245    0.9405    0.7654 H         1 <0>         0.0000
     35 H11        -5.3512    1.6374   -0.3040 H         1 <0>         0.0000
     36 H12        -5.2472   -5.0296   -1.4070 H         1 <0>         0.0000
     37 H13        -3.9882   -6.2304   -1.0674 H         1 <0>         0.0000
     38 H14        -4.8142   -6.2325   -2.6305 H         1 <0>         0.0000
     39 H15         0.1829   -6.0972   -2.8975 H         1 <0>         0.0000
     40 H16         1.9456   -6.0562   -3.0984 H         1 <0>         0.0000
     41 H17         1.0936   -4.6959   -2.3408 H         1 <0>         0.0000
     42 H18         2.2934  -10.0000    2.9143 H         1 <0>         0.0000
     43 H19         3.2055   -8.6335    3.5462 H         1 <0>         0.0000
     44 H20         2.0840   -9.5101    4.6086 H         1 <0>         0.0000
     45 H21         2.2850   -6.1728   -0.6332 H         1 <0>         0.0000
     46 H22         1.4017   -7.5439   -1.1803 H         1 <0>         0.0000
     47 H23         1.0449   -7.3574    3.8912 H         1 <0>         0.0000
     48 H24         0.1377   -8.7150    3.2620 H         1 <0>         0.0000
     49 H25        -3.4657   -4.0724    0.6253 H         1 <0>         0.0000
@<TRIPOS>BOND
     1    1    2 ar
     2    1    6 ar
     3    1   25 1
     4    2    8 ar
     5    2   26 1
     6    3    7 ar
     7    3    8 ar
     8    3   27 1
     9    4    5 ar
    10    4   21 ar
    11    4   28 1
    12    5    9 ar
    13    5   11 1
    14    6    7 ar
    15    6   12 1
    16    7   13 1
    17    8   15 1
    18    9   19 1
    19    9   22 ar
    20   10   21 ar
    21   10   22 ar
    22   10   23 1
    23   11   20 1
    24   11   24 2
    25   12   14 1
    26   12   29 1
    27   12   30 1
    28   13   14 1
    29   13   23 1
    30   13   31 1
    31   14   16 1
    32   14   32 1
    33   15   33 1
    34   15   34 1
    35   15   35 1
    36   16   36 1
    37   16   37 1
    38   16   38 1
    39   17   19 1
    40   17   39 1
    41   17   40 1
    42   17   41 1
    43   18   20 1
    44   18   42 1
    45   18   43 1
    46   18   44 1
    47   19   45 1
    48   19   46 1
    49   20   47 1
    50   20   48 1
    51   23   49 1
