@<TRIPOS>MOLECULE
*****
   34    34     0     0     0
SMALL
NO_CHARGES

@<TRIPOS>ATOM
      1 C1          7.8290   -0.5944   -1.9514 C.2       1 <0>         0.0000
      2 C2          6.6926   -0.6944    0.1176 C.2       1 <0>         0.0000
      3 C3          8.5267   -0.7859   -3.2764 C.2       1 <0>         0.0000
      4 C4         -0.7971   -0.7569    2.1684 C.3       1 <0>         0.0000
      5 C5         11.4685   -1.2730   -4.5627 C.3       1 <0>         0.0000
      6 C6          0.6250   -1.0397    2.6646 C.3       1 <0>         0.0000
      7 C7          1.6959   -0.7128    1.6168 C.3       1 <0>         0.0000
      8 C8          3.1188   -1.0132    2.1078 C.3       1 <0>         0.0000
      9 C9         10.1963   -2.1228   -4.5015 C.3       1 <0>         0.0000
     10 C10         4.1624   -0.6771    1.0461 C.3       1 <0>         0.0000
     11 N1          7.5615    0.5918   -1.4693 N.2       1 <0>         0.0000
     12 N2          6.9112    0.5291   -0.2644 N.2       1 <0>         0.0000
     13 N3          9.3834   -1.8525   -3.3133 N.am      1 <0>         0.0000
     14 O1          8.2917   -0.0559   -4.2300 O.2       1 <0>         0.0000
     15 O2          5.8884   -2.6716    1.6902 O.2       1 <0>         0.0000
     16 S1          7.2819   -1.9312   -0.9570 S.3       1 <0>         0.0000
     17 S2          5.8425   -1.1557    1.6572 S.o       1 <0>         0.0000
     18 H1         -0.9208    0.2991    1.9022 H         1 <0>         0.0000
     19 H2         -1.0310   -1.3526    1.2787 H         1 <0>         0.0000
     20 H3         -1.5410   -0.9969    2.9353 H         1 <0>         0.0000
     21 H4         11.2152   -0.2099   -4.5834 H         1 <0>         0.0000
     22 H5         12.1136   -1.4619   -3.6977 H         1 <0>         0.0000
     23 H6         12.0372   -1.5099   -5.4682 H         1 <0>         0.0000
     24 H7          0.7117   -2.0956    2.9512 H         1 <0>         0.0000
     25 H8          0.8196   -0.4577    3.5747 H         1 <0>         0.0000
     26 H9          1.6187    0.3458    1.3345 H         1 <0>         0.0000
     27 H10         1.4987   -1.2905    0.7039 H         1 <0>         0.0000
     28 H11         3.2014   -2.0738    2.3692 H         1 <0>         0.0000
     29 H12         3.3219   -0.4396    3.0209 H         1 <0>         0.0000
     30 H13        10.4370   -3.1903   -4.4993 H         1 <0>         0.0000
     31 H14         9.5659   -1.9237   -5.3702 H         1 <0>         0.0000
     32 H15         4.2114    0.3928    0.8203 H         1 <0>         0.0000
     33 H16         4.0002   -1.2404    0.1220 H         1 <0>         0.0000
     34 H17         9.6883   -2.2499   -2.4330 H         1 <0>         0.0000
@<TRIPOS>BOND
     1    1    3 1
     2    1   11 2
     3    1   16 1
     4    2   12 2
     5    2   16 1
     6    2   17 1
     7    3   13 am
     8    3   14 2
     9    4    6 1
    10    4   18 1
    11    4   19 1
    12    4   20 1
    13    5    9 1
    14    5   21 1
    15    5   22 1
    16    5   23 1
    17    6    7 1
    18    6   24 1
    19    6   25 1
    20    7    8 1
    21    7   26 1
    22    7   27 1
    23    8   10 1
    24    8   28 1
    25    8   29 1
    26    9   13 1
    27    9   30 1
    28    9   31 1
    29   10   17 1
    30   10   32 1
    31   10   33 1
    32   11   12 1
    33   13   34 1
    34   15   17 2
