@<TRIPOS>MOLECULE
*****
   23    23     0     0     0
SMALL
NO_CHARGES

@<TRIPOS>ATOM
      1 C1          0.2446   -2.0055   -0.4725 C.3       1 <0>         0.0000
      2 C2         -0.3230   -1.7513    0.9253 C.3       1 <0>         0.0000
      3 C3         -0.1490   -0.9271   -1.4809 C.3       1 <0>         0.0000
      4 C4          0.1225   -0.4146    1.5049 C.3       1 <0>         0.0000
      5 C5          1.9745    1.9965   -1.8760 C.3       1 <0>         0.0000
      6 C6          1.7425    0.6695   -1.2374 C.3       1 <0>         0.0000
      7 N1          0.2928    0.4240   -1.0224 N.pl3     1 <0>         0.0000
      8 O1          0.2893    2.1471    0.9304 O.2       1 <0>         0.0000
      9 O2         -1.8336    0.9093    0.3794 O.2       1 <0>         0.0000
     10 S1         -0.3862    0.9485    0.4732 S.o2      1 <0>         0.0000
     11 H1          1.3368   -2.0802   -0.4097 H         1 <0>         0.0000
     12 H2         -0.1153   -2.9766   -0.8320 H         1 <0>         0.0000
     13 H3         -1.4181   -1.7926    0.8823 H         1 <0>         0.0000
     14 H4         -0.0014   -2.5573    1.5948 H         1 <0>         0.0000
     15 H5          0.2925   -1.1479   -2.4593 H         1 <0>         0.0000
     16 H6         -1.2351   -0.9119   -1.6273 H         1 <0>         0.0000
     17 H7         -0.3279   -0.2544    2.4895 H         1 <0>         0.0000
     18 H8          1.2102   -0.3671    1.6148 H         1 <0>         0.0000
     19 H9          1.5723    2.7904   -1.2295 H         1 <0>         0.0000
     20 H10         3.0543    2.1512   -2.0179 H         1 <0>         0.0000
     21 H11         1.4683    2.0270   -2.8521 H         1 <0>         0.0000
     22 H12         2.1472   -0.1185   -1.8895 H         1 <0>         0.0000
     23 H13         2.2589    0.6430   -0.2665 H         1 <0>         0.0000
@<TRIPOS>BOND
     1    1    2 1
     2    1    3 1
     3    1   11 1
     4    1   12 1
     5    2    4 1
     6    2   13 1
     7    2   14 1
     8    3    7 1
     9    3   15 1
    10    3   16 1
    11    4   10 1
    12    4   17 1
    13    4   18 1
    14    5    6 1
    15    5   19 1
    16    5   20 1
    17    5   21 1
    18    6    7 1
    19    6   22 1
    20    6   23 1
    21    7   10 1
    22    8   10 2
    23    9   10 2
