@<TRIPOS>MOLECULE
*****
   67    71     0     0     0
SMALL
NO_CHARGES

@<TRIPOS>ATOM
      1 C1          2.1204    1.1498    1.5148 C.1       1 <0>         0.0000
      2 C2          2.7306    2.1916    1.3564 C.1       1 <0>         0.0000
      3 C3         -1.4118   -8.2044    2.9506 C.ar      1 <0>         0.0000
      4 C4         -2.7282   -8.1106    3.4118 C.ar      1 <0>         0.0000
      5 C5          0.2620   -0.3579    0.9058 C.ar      1 <0>         0.0000
      6 C6         -0.6459   -7.0450    2.8255 C.ar      1 <0>         0.0000
      7 C7         -3.2712   -6.8583    3.7097 C.ar      1 <0>         0.0000
      8 C8         -0.4407   -1.5392    1.0608 C.ar      1 <0>         0.0000
      9 C9          1.8237   -1.0139    2.6448 C.ar      1 <0>         0.0000
     10 C10         1.4102   -0.0721    1.6955 C.ar      1 <0>         0.0000
     11 C11         1.1145   -2.2131    2.8010 C.ar      1 <0>         0.0000
     12 C12        -1.1780   -5.7888    3.1533 C.ar      1 <0>         0.0000
     13 C13        -2.5219   -5.6800    3.5713 C.ar      1 <0>         0.0000
     14 C14        -0.0249   -2.4923    2.0132 C.ar      1 <0>         0.0000
     15 C15         1.5440   -3.1943    3.7912 C.2       1 <0>         0.0000
     16 C16        -0.3515   -4.5526    3.0064 C.2       1 <0>         0.0000
     17 C17         1.2059   -5.8328    8.6427 C.3       1 <0>         0.0000
     18 C18         3.6101    3.9695   -0.2668 C.3       1 <0>         0.0000
     19 C19         2.6845    4.6671    0.6879 C.3       1 <0>         0.0000
     20 C20         1.6034   -6.0727    7.1829 C.3       1 <0>         0.0000
     21 C21        -0.3092   -5.8309    8.8201 C.3       1 <0>         0.0000
     22 C22        -0.6001   -5.0948    6.4588 C.3       1 <0>         0.0000
     23 C23         3.4434    3.4237    1.1519 C.3       1 <0>         0.0000
     24 C24         0.9129   -5.0701    6.2492 C.3       1 <0>         0.0000
     25 C25        -3.1867   -4.3440    3.8120 C.3       1 <0>         0.0000
     26 C26        -3.2862   -5.7420    7.6269 C.3       1 <0>         0.0000
     27 C27        -2.8738   -3.2263    7.6488 C.3       1 <0>         0.0000
     28 C28         1.2543   -5.3875    4.7853 C.3       1 <0>         0.0000
     29 C29        -2.4444   -4.5938    8.1763 C.3       1 <0>         0.0000
     30 N1         -0.7471   -3.6644    2.1519 N.2       1 <0>         0.0000
     31 N2          0.7730   -4.3819    3.8273 N.am      1 <0>         0.0000
     32 N3         -0.9440   -4.8045    7.9048 N.4       1 <0>         0.0000
     33 O1          2.4866   -3.0555    4.5731 O.2       1 <0>         0.0000
     34 H1         -0.9891   -9.1677    2.6801 H         1 <0>         0.0000
     35 H2         -3.3368   -9.0046    3.5162 H         1 <0>         0.0000
     36 H3         -0.0573    0.3728    0.1686 H         1 <0>         0.0000
     37 H4          0.3701   -7.1119    2.4440 H         1 <0>         0.0000
     38 H5         -4.3084   -6.7890    4.0306 H         1 <0>         0.0000
     39 H6         -1.3143   -1.7604    0.4551 H         1 <0>         0.0000
     40 H7          2.6958   -0.8312    3.2634 H         1 <0>         0.0000
     41 H8          1.6193   -6.6088    9.2936 H         1 <0>         0.0000
     42 H9          1.6172   -4.8787    8.9959 H         1 <0>         0.0000
     43 H10         3.1739    3.3855   -1.0701 H         1 <0>         0.0000
     44 H11         4.5634    4.4334   -0.4999 H         1 <0>         0.0000
     45 H12         2.9961    5.6151    1.1153 H         1 <0>         0.0000
     46 H13         1.6157    4.5600    0.5357 H         1 <0>         0.0000
     47 H14         2.6881   -5.9864    7.0758 H         1 <0>         0.0000
     48 H15         1.3323   -7.0959    6.8908 H         1 <0>         0.0000
     49 H16        -0.7458   -6.7965    8.5588 H         1 <0>         0.0000
     50 H17        -0.6017   -5.5777    9.8413 H         1 <0>         0.0000
     51 H18        -1.1013   -4.3445    5.8504 H         1 <0>         0.0000
     52 H19        -1.0228   -6.0720    6.2211 H         1 <0>         0.0000
     53 H20         4.2743    3.5928    1.8317 H         1 <0>         0.0000
     54 H21         1.2913   -4.0633    6.4622 H         1 <0>         0.0000
     55 H22        -2.5225   -3.6178    4.2898 H         1 <0>         0.0000
     56 H23        -3.4787   -3.8923    2.8593 H         1 <0>         0.0000
     57 H24        -4.0865   -4.4575    4.4238 H         1 <0>         0.0000
     58 H25        -3.2895   -5.7638    6.5352 H         1 <0>         0.0000
     59 H26        -2.9627   -6.7175    7.9988 H         1 <0>         0.0000
     60 H27        -4.3171   -5.5954    7.9594 H         1 <0>         0.0000
     61 H28        -2.8731   -3.1823    6.5579 H         1 <0>         0.0000
     62 H29        -2.2430   -2.4195    8.0382 H         1 <0>         0.0000
     63 H30        -3.8951   -3.0280    7.9831 H         1 <0>         0.0000
     64 H31         0.8549   -6.3620    4.5186 H         1 <0>         0.0000
     65 H32         2.3412   -5.4230    4.6954 H         1 <0>         0.0000
     66 H33        -2.5084   -4.5864    9.2682 H         1 <0>         0.0000
     67 H34        -0.4968   -3.9086    8.1293 H         1 <0>         0.0000
@<TRIPOS>BOND
     1    1    2 3
     2    1   10 1
     3    2   23 1
     4    3    4 ar
     5    3    6 ar
     6    3   34 1
     7    4    7 ar
     8    4   35 1
     9    5    8 ar
    10    5   10 ar
    11    5   36 1
    12    6   12 ar
    13    6   37 1
    14    7   13 ar
    15    7   38 1
    16    8   14 ar
    17    8   39 1
    18    9   10 ar
    19    9   11 ar
    20    9   40 1
    21   11   14 ar
    22   11   15 1
    23   12   13 ar
    24   12   16 1
    25   13   25 1
    26   14   30 1
    27   15   31 am
    28   15   33 2
    29   16   30 2
    30   16   31 1
    31   17   20 1
    32   17   21 1
    33   17   41 1
    34   17   42 1
    35   18   19 1
    36   18   23 1
    37   18   43 1
    38   18   44 1
    39   19   23 1
    40   19   45 1
    41   19   46 1
    42   20   24 1
    43   20   47 1
    44   20   48 1
    45   21   32 1
    46   21   49 1
    47   21   50 1
    48   22   24 1
    49   22   32 1
    50   22   51 1
    51   22   52 1
    52   23   53 1
    53   24   28 1
    54   24   54 1
    55   25   55 1
    56   25   56 1
    57   25   57 1
    58   26   29 1
    59   26   58 1
    60   26   59 1
    61   26   60 1
    62   27   29 1
    63   27   61 1
    64   27   62 1
    65   27   63 1
    66   28   31 1
    67   28   64 1
    68   28   65 1
    69   29   32 1
    70   29   66 1
    71   32   67 1
