@<TRIPOS>MOLECULE
*****
   47    51     0     0     0
SMALL
NO_CHARGES

@<TRIPOS>ATOM
      1 C1         -4.0477   -1.6105    3.9976 C.ar      1 <0>         0.0000
      2 C2          2.5944   -0.1471    0.1274 C.ar      1 <0>         0.0000
      3 C3         -3.6906   -0.5651    3.1425 C.ar      1 <0>         0.0000
      4 C4          1.4212    0.4239    0.6171 C.ar      1 <0>         0.0000
      5 C5         -3.6189   -1.6186    5.3284 C.ar      1 <0>         0.0000
      6 C6          1.1828   -1.4730    2.0983 C.ar      1 <0>         0.0000
      7 C7          4.2968   -3.2380   -0.5982 C.ar      1 <0>         0.0000
      8 C8         -2.4651    0.4899    4.9415 C.ar      1 <0>         0.0000
      9 C9          5.4838   -1.2014   -0.1559 C.ar      1 <0>         0.0000
     10 C10         6.5963   -2.8790   -1.2581 C.ar      1 <0>         0.0000
     11 C11         3.0897   -1.3750    0.5889 C.ar      1 <0>         0.0000
     12 C12         2.3697   -2.0310    1.6123 C.ar      1 <0>         0.0000
     13 C13         4.3001   -1.9494   -0.0480 C.ar      1 <0>         0.0000
     14 C14        -2.8981    0.4957    3.6071 C.ar      1 <0>         0.0000
     15 C15         0.6939   -0.2542    1.6087 C.ar      1 <0>         0.0000
     16 C16         5.4628   -3.6873   -1.1954 C.ar      1 <0>         0.0000
     17 C17        -2.8290   -0.5610    5.7846 C.ar      1 <0>         0.0000
     18 C18         2.8477   -3.2715    2.2456 C.2       1 <0>         0.0000
     19 C19        -1.1801    1.3912    1.8916 C.2       1 <0>         0.0000
     20 C20        -3.5218    2.4016    1.9441 C.3       1 <0>         0.0000
     21 C21        -2.7405    3.0401    3.0520 C.3       1 <0>         0.0000
     22 C22        -2.4606    1.5879    2.6765 C.3       1 <0>         0.0000
     23 N1          6.6019   -1.6444   -0.7430 N.ar      1 <0>         0.0000
     24 N2          4.1617   -3.5729    2.4844 N.2       1 <0>         0.0000
     25 N3          2.0300   -4.2211    2.7179 N.2       1 <0>         0.0000
     26 N4          4.1798   -4.7245    3.1092 N.2       1 <0>         0.0000
     27 N5          2.9035   -5.0823    3.2360 N.pl3     1 <0>         0.0000
     28 N6         -0.5130    0.2181    2.1592 N.am      1 <0>         0.0000
     29 O1         -0.7868    2.2330    1.0856 O.2       1 <0>         0.0000
     30 F1          5.5010   -4.9293   -1.7401 F         1 <0>         0.0000
     31 Cl1        -2.2797   -0.5532    7.4522 Cl        1 <0>         0.0000
     32 H1         -4.6636   -2.4273    3.6313 H         1 <0>         0.0000
     33 H2          3.1304    0.3643   -0.6673 H         1 <0>         0.0000
     34 H3         -4.0247   -0.5657    2.1085 H         1 <0>         0.0000
     35 H4          1.0611    1.3695    0.2365 H         1 <0>         0.0000
     36 H5         -3.8929   -2.4256    6.0003 H         1 <0>         0.0000
     37 H6          0.6487   -1.9927    2.8898 H         1 <0>         0.0000
     38 H7          3.4156   -3.8721   -0.5701 H         1 <0>         0.0000
     39 H8         -1.8478    1.3008    5.3162 H         1 <0>         0.0000
     40 H9          5.5298   -0.2018    0.2722 H         1 <0>         0.0000
     41 H10         7.5056   -3.2412   -1.7336 H         1 <0>         0.0000
     42 H11        -4.5548    2.1293    2.1368 H         1 <0>         0.0000
     43 H12        -3.2826    2.6953    0.9278 H         1 <0>         0.0000
     44 H13        -1.9784    3.7612    2.7773 H         1 <0>         0.0000
     45 H14        -3.2384    3.2056    4.0023 H         1 <0>         0.0000
     46 H15         2.6250   -5.9501    3.6813 H         1 <0>         0.0000
     47 H16        -0.9406   -0.3886    2.8483 H         1 <0>         0.0000
@<TRIPOS>BOND
     1    1    3 ar
     2    1    5 ar
     3    1   32 1
     4    2    4 ar
     5    2   11 ar
     6    2   33 1
     7    3   14 ar
     8    3   34 1
     9    4   15 ar
    10    4   35 1
    11    5   17 ar
    12    5   36 1
    13    6   12 ar
    14    6   15 ar
    15    6   37 1
    16    7   13 ar
    17    7   16 ar
    18    7   38 1
    19    8   14 ar
    20    8   17 ar
    21    8   39 1
    22    9   13 ar
    23    9   23 ar
    24    9   40 1
    25   10   16 ar
    26   10   23 ar
    27   10   41 1
    28   11   12 ar
    29   11   13 1
    30   12   18 1
    31   14   22 1
    32   15   28 1
    33   16   30 1
    34   17   31 1
    35   18   24 1
    36   18   25 2
    37   19   22 1
    38   19   28 am
    39   19   29 2
    40   20   21 1
    41   20   22 1
    42   20   42 1
    43   20   43 1
    44   21   22 1
    45   21   44 1
    46   21   45 1
    47   24   26 2
    48   25   27 1
    49   26   27 1
    50   27   46 1
    51   28   47 1
