@<TRIPOS>MOLECULE
*****
   68    70     0     0     0
SMALL
NO_CHARGES

@<TRIPOS>ATOM
      1 C1         -9.8225   -1.7605    7.1398 C.1       1 <0>         0.0000
      2 C2         -7.9915   -3.0087    8.1536 C.ar      1 <0>         0.0000
      3 C3         -6.6350   -3.2659    8.3380 C.ar      1 <0>         0.0000
      4 C4         -6.0924   -1.4393    6.8362 C.ar      1 <0>         0.0000
      5 C5         -8.4113   -1.9750    7.3033 C.ar      1 <0>         0.0000
      6 C6         -7.4452   -1.1856    6.6442 C.ar      1 <0>         0.0000
      7 C7         -5.6891   -2.4847    7.6736 C.ar      1 <0>         0.0000
      8 C8         -3.7251   -2.8035    9.1481 C.2       1 <0>         0.0000
      9 C9         -3.3405   -2.9205    6.8580 C.2       1 <0>         0.0000
     10 C10        -2.0074    1.2360    0.4203 C.2       1 <0>         0.0000
     11 C11        -2.1604   -0.3606    2.2813 C.3       1 <0>         0.0000
     12 C12        -1.1451    1.8035    2.7223 C.3       1 <0>         0.0000
     13 C13        -0.8816   -1.0486    2.7558 C.3       1 <0>         0.0000
     14 C14         0.1317    1.0960    3.1848 C.3       1 <0>         0.0000
     15 C15        -2.2291   -3.0351    8.9357 C.3       1 <0>         0.0000
     16 C16        -1.8288   -4.3751    9.5738 C.3       1 <0>         0.0000
     17 C17        -1.4357   -1.8637    9.5331 C.3       1 <0>         0.0000
     18 C18        -1.4899    4.2393   -2.0258 C.3       1 <0>         0.0000
     19 C19        -1.5900    2.6235   -0.0705 C.3       1 <0>         0.0000
     20 C20        -1.9307    2.8528   -1.5447 C.3       1 <0>         0.0000
     21 C21        -0.3801   -1.9219    6.1461 C.3       1 <0>         0.0000
     22 C22         0.7017   -2.1392    5.0841 C.3       1 <0>         0.0000
     23 C23        -0.8965   -3.2425    6.7284 C.3       1 <0>         0.0000
     24 C24         1.0134   -0.8630    4.2906 C.3       1 <0>         0.0000
     25 C25        -7.8719   -0.0539    5.7350 C.3       1 <0>         0.0000
     26 N1        -10.9746   -1.6254    7.0385 N.1       1 <0>         0.0000
     27 N2         -4.3040   -2.7305    7.8829 N.am      1 <0>         0.0000
     28 N3         -2.1453   -3.0774    7.4699 N.pl3     1 <0>         0.0000
     29 N4         -1.8641    0.9737    1.7632 N.am      1 <0>         0.0000
     30 N5         -0.1814   -0.2181    3.7435 N.3       1 <0>         0.0000
     31 O1         -4.2986   -2.7042   10.2155 O.2       1 <0>         0.0000
     32 O2         -2.4703    0.3976   -0.3564 O.2       1 <0>         0.0000
     33 F1         -6.8070    0.6010    5.2173 F         1 <0>         0.0000
     34 F2         -8.6133   -0.5012    4.6964 F         1 <0>         0.0000
     35 F3         -8.6189    0.8606    6.3987 F         1 <0>         0.0000
     36 S1         -3.6619   -2.9720    5.2295 S.2       1 <0>         0.0000
     37 H1         -8.7362   -3.6112    8.6629 H         1 <0>         0.0000
     38 H2         -6.3139   -4.0638    8.9977 H         1 <0>         0.0000
     39 H3         -5.3511   -0.8322    6.3341 H         1 <0>         0.0000
     40 H4         -2.6369   -0.9367    1.4895 H         1 <0>         0.0000
     41 H5         -2.8557   -0.2701    3.1249 H         1 <0>         0.0000
     42 H6         -1.7908    1.9787    3.5927 H         1 <0>         0.0000
     43 H7         -0.8973    2.7707    2.2889 H         1 <0>         0.0000
     44 H8         -1.1604   -1.9999    3.2150 H         1 <0>         0.0000
     45 H9         -0.2360   -1.2657    1.8834 H         1 <0>         0.0000
     46 H10         0.8304    1.0216    2.3278 H         1 <0>         0.0000
     47 H11         0.6187    1.7003    3.9586 H         1 <0>         0.0000
     48 H12        -0.7556   -4.5520    9.4606 H         1 <0>         0.0000
     49 H13        -2.3702   -5.2046    9.1104 H         1 <0>         0.0000
     50 H14        -2.0656   -4.3517   10.6403 H         1 <0>         0.0000
     51 H15        -0.3623   -2.0215    9.3941 H         1 <0>         0.0000
     52 H16        -1.6434   -1.7946   10.6037 H         1 <0>         0.0000
     53 H17        -1.7144   -0.9192    9.0585 H         1 <0>         0.0000
     54 H18        -0.4063    4.3736   -1.9215 H         1 <0>         0.0000
     55 H19        -1.9783    5.0371   -1.4534 H         1 <0>         0.0000
     56 H20        -1.7414    4.3879   -3.0812 H         1 <0>         0.0000
     57 H21        -0.5092    2.7469    0.0812 H         1 <0>         0.0000
     58 H22        -2.0723    3.3918    0.5469 H         1 <0>         0.0000
     59 H23        -3.0085    2.7275   -1.6872 H         1 <0>         0.0000
     60 H24        -1.4573    2.0725   -2.1476 H         1 <0>         0.0000
     61 H25        -1.2168   -1.3935    5.6864 H         1 <0>         0.0000
     62 H26        -0.0007   -1.2778    6.9483 H         1 <0>         0.0000
     63 H27         1.6346   -2.4924    5.5415 H         1 <0>         0.0000
     64 H28         0.3836   -2.9334    4.3993 H         1 <0>         0.0000
     65 H29        -0.1663   -3.6975    7.4029 H         1 <0>         0.0000
     66 H30        -1.0874   -3.9542    5.9202 H         1 <0>         0.0000
     67 H31         1.4968   -0.1378    4.9566 H         1 <0>         0.0000
     68 H32         1.7461   -1.1035    3.4961 H         1 <0>         0.0000
@<TRIPOS>BOND
     1    1    5 1
     2    1   26 3
     3    2    3 ar
     4    2    5 ar
     5    2   37 1
     6    3    7 ar
     7    3   38 1
     8    4    6 ar
     9    4    7 ar
    10    4   39 1
    11    5    6 ar
    12    6   25 1
    13    7   27 1
    14    8   15 1
    15    8   27 am
    16    8   31 2
    17    9   27 1
    18    9   28 1
    19    9   36 2
    20   10   19 1
    21   10   29 am
    22   10   32 2
    23   11   13 1
    24   11   29 1
    25   11   40 1
    26   11   41 1
    27   12   14 1
    28   12   29 1
    29   12   42 1
    30   12   43 1
    31   13   30 1
    32   13   44 1
    33   13   45 1
    34   14   30 1
    35   14   46 1
    36   14   47 1
    37   15   16 1
    38   15   17 1
    39   15   28 1
    40   16   48 1
    41   16   49 1
    42   16   50 1
    43   17   51 1
    44   17   52 1
    45   17   53 1
    46   18   20 1
    47   18   54 1
    48   18   55 1
    49   18   56 1
    50   19   20 1
    51   19   57 1
    52   19   58 1
    53   20   59 1
    54   20   60 1
    55   21   22 1
    56   21   23 1
    57   21   61 1
    58   21   62 1
    59   22   24 1
    60   22   63 1
    61   22   64 1
    62   23   28 1
    63   23   65 1
    64   23   66 1
    65   24   30 1
    66   24   67 1
    67   24   68 1
    68   25   33 1
    69   25   34 1
    70   25   35 1
