@<TRIPOS>MOLECULE
*****
   34    34     0     0     0
SMALL
NO_CHARGES

@<TRIPOS>ATOM
      1 C1          9.5119   -1.9671   -1.2253 C.2       1 <0>         0.0000
      2 C2          7.9884   -0.6885    0.0180 C.2       1 <0>         0.0000
      3 C3         10.5247   -2.9371   -1.7573 C.2       1 <0>         0.0000
      4 C4          2.3924    3.1082    2.6047 C.3       1 <0>         0.0000
      5 C5         13.2722   -2.9578   -3.5473 C.3       1 <0>         0.0000
      6 C6          2.6586    1.6093    2.4298 C.3       1 <0>         0.0000
      7 C7          3.8926    1.3197    1.5677 C.3       1 <0>         0.0000
      8 C8          4.1614   -0.1810    1.4046 C.3       1 <0>         0.0000
      9 C9         11.8653   -3.5333   -3.7362 C.3       1 <0>         0.0000
     10 C10         5.3424   -0.5145    0.4956 C.3       1 <0>         0.0000
     11 N1          8.9905   -0.9921   -1.9286 N.2       1 <0>         0.0000
     12 N2          8.1064   -0.2402   -1.2022 N.2       1 <0>         0.0000
     13 N3         10.8365   -2.7449   -3.0616 N.am      1 <0>         0.0000
     14 O1         10.9912   -3.8163   -1.0313 O.2       1 <0>         0.0000
     15 O2          7.1212   -0.7416    2.5296 O.2       1 <0>         0.0000
     16 S1          8.9648   -2.0697    0.4223 S.3       1 <0>         0.0000
     17 S2          6.9198    0.0796    1.2709 S.o       1 <0>         0.0000
     18 H1          3.2405    3.6058    3.0888 H         1 <0>         0.0000
     19 H2          2.2295    3.5968    1.6371 H         1 <0>         0.0000
     20 H3          1.5053    3.2856    3.2217 H         1 <0>         0.0000
     21 H4         13.3403   -1.9404   -3.9467 H         1 <0>         0.0000
     22 H5         13.5330   -2.9328   -2.4858 H         1 <0>         0.0000
     23 H6         14.0079   -3.5799   -4.0682 H         1 <0>         0.0000
     24 H7          1.7807    1.1299    1.9770 H         1 <0>         0.0000
     25 H8          2.7903    1.1418    3.4139 H         1 <0>         0.0000
     26 H9          4.7645    1.8097    2.0202 H         1 <0>         0.0000
     27 H10         3.7642    1.7780    0.5775 H         1 <0>         0.0000
     28 H11         3.2761   -0.6679    0.9764 H         1 <0>         0.0000
     29 H12         4.3271   -0.6458    2.3831 H         1 <0>         0.0000
     30 H13        11.8149   -4.5467   -3.3320 H         1 <0>         0.0000
     31 H14        11.6028   -3.5819   -4.7973 H         1 <0>         0.0000
     32 H15         5.2809   -0.0295   -0.4836 H         1 <0>         0.0000
     33 H16         5.4593   -1.5944    0.3659 H         1 <0>         0.0000
     34 H17        10.4242   -1.9396   -3.5202 H         1 <0>         0.0000
@<TRIPOS>BOND
     1    1    3 1
     2    1   11 2
     3    1   16 1
     4    2   12 2
     5    2   16 1
     6    2   17 1
     7    3   13 am
     8    3   14 2
     9    4    6 1
    10    4   18 1
    11    4   19 1
    12    4   20 1
    13    5    9 1
    14    5   21 1
    15    5   22 1
    16    5   23 1
    17    6    7 1
    18    6   24 1
    19    6   25 1
    20    7    8 1
    21    7   26 1
    22    7   27 1
    23    8   10 1
    24    8   28 1
    25    8   29 1
    26    9   13 1
    27    9   30 1
    28    9   31 1
    29   10   17 1
    30   10   32 1
    31   10   33 1
    32   11   12 1
    33   13   34 1
    34   15   17 2
