@<TRIPOS>MOLECULE
*****
   41    43     0     0     0
SMALL
NO_CHARGES

@<TRIPOS>ATOM
      1 C1         -2.3077   -1.8005    2.1285 C.ar      1 <0>         0.0000
      2 C2         -2.9828    0.4712    1.7237 C.ar      1 <0>         0.0000
      3 C3         -3.6329   -2.1595    2.3788 C.ar      1 <0>         0.0000
      4 C4         -4.3139    0.1321    1.9726 C.ar      1 <0>         0.0000
      5 C5         -0.6791    0.8158    5.5271 C.2       1 <0>         0.0000
      6 C6         -1.2729    2.2720    4.1311 C.2       1 <0>         0.0000
      7 C7         -1.9608   -0.4854    1.7944 C.ar      1 <0>         0.0000
      8 C8         -4.6307   -1.1869    2.2980 C.ar      1 <0>         0.0000
      9 C9         -1.1019    0.4598   -1.0088 C.3       1 <0>         0.0000
     10 C10        -0.9887   -1.0374   -0.9521 C.3       1 <0>         0.0000
     11 C11        -0.1799   -0.1844    0.0067 C.3       1 <0>         0.0000
     12 C12         3.7656   -1.7119   -0.5871 C.3       1 <0>         0.0000
     13 C13        -0.1275    1.2498    2.0950 C.3       1 <0>         0.0000
     14 C14         2.3214   -1.6824   -0.0905 C.3       1 <0>         0.0000
     15 C15        -0.4888   -0.1465    1.5177 C.3       1 <0>         0.0000
     16 N1         -1.3973    1.9666    5.4183 N.2       1 <0>         0.0000
     17 N2         -0.1183    0.4041    4.3929 N.2       1 <0>         0.0000
     18 N3         -0.5095    1.3566    3.4979 N.pl3     1 <0>         0.0000
     19 O1          2.2540    0.9642    0.3442 O.2       1 <0>         0.0000
     20 O2          1.5978    0.0796   -1.9466 O.2       1 <0>         0.0000
     21 O3          0.3568   -1.1312    2.1134 O.3       1 <0>         0.0000
     22 S1          1.5852   -0.0654   -0.4764 S.o2      1 <0>         0.0000
     23 Cl1        -6.2990   -1.6246    2.6161 Cl        1 <0>         0.0000
     24 H1         -1.5248   -2.5478    2.1959 H         1 <0>         0.0000
     25 H2         -2.7615    1.5051    1.4774 H         1 <0>         0.0000
     26 H3         -3.8890   -3.1823    2.6371 H         1 <0>         0.0000
     27 H4         -5.0944    0.8845    1.9212 H         1 <0>         0.0000
     28 H5         -0.5605    0.2674    6.4525 H         1 <0>         0.0000
     29 H6         -1.7025    3.1303    3.6309 H         1 <0>         0.0000
     30 H7         -0.6334    0.9619   -1.8478 H         1 <0>         0.0000
     31 H8         -2.0062    0.9191   -0.6273 H         1 <0>         0.0000
     32 H9         -1.8058   -1.6068   -0.5249 H         1 <0>         0.0000
     33 H10        -0.4543   -1.5171   -1.7652 H         1 <0>         0.0000
     34 H11         3.8172   -1.5619   -1.6678 H         1 <0>         0.0000
     35 H12         4.3640   -0.9404   -0.0961 H         1 <0>         0.0000
     36 H13         4.2016   -2.6871   -0.3500 H         1 <0>         0.0000
     37 H14         0.9464    1.4004    1.9948 H         1 <0>         0.0000
     38 H15        -0.6335    2.0481    1.5509 H         1 <0>         0.0000
     39 H16         2.2309   -1.8010    0.9879 H         1 <0>         0.0000
     40 H17         1.6954   -2.4261   -0.5895 H         1 <0>         0.0000
     41 H18         0.3665   -0.9464    3.0798 H         1 <0>         0.0000
@<TRIPOS>BOND
     1    1    3 ar
     2    1    7 ar
     3    1   24 1
     4    2    4 ar
     5    2    7 ar
     6    2   25 1
     7    3    8 ar
     8    3   26 1
     9    4    8 ar
    10    4   27 1
    11    5   16 1
    12    5   17 2
    13    5   28 1
    14    6   16 2
    15    6   18 1
    16    6   29 1
    17    7   15 1
    18    8   23 1
    19    9   10 1
    20    9   11 1
    21    9   30 1
    22    9   31 1
    23   10   11 1
    24   10   32 1
    25   10   33 1
    26   11   15 1
    27   11   22 1
    28   12   14 1
    29   12   34 1
    30   12   35 1
    31   12   36 1
    32   13   15 1
    33   13   18 1
    34   13   37 1
    35   13   38 1
    36   14   22 1
    37   14   39 1
    38   14   40 1
    39   15   21 1
    40   17   18 1
    41   19   22 2
    42   20   22 2
    43   21   41 1
