@<TRIPOS>MOLECULE
*****
   24    24     0     0     0
SMALL
NO_CHARGES

@<TRIPOS>ATOM
      1 C1          0.1436    0.4716   -0.3395 C.2       1 <0>         0.0000
      2 C2         -0.0833   -0.8110   -0.7085 C.2       1 <0>         0.0000
      3 C3          0.4889    1.5687   -1.2542 C.2       1 <0>         0.0000
      4 C4         -0.1893   -1.0505    1.7207 C.3       1 <0>         0.0000
      5 C5         -0.5285   -1.7532    0.3890 C.3       1 <0>         0.0000
      6 C6         -3.0022   -0.9687    0.2538 C.3       1 <0>         0.0000
      7 C7          0.8822    3.8966   -1.3904 C.3       1 <0>         0.0000
      8 C8         -2.0193   -2.1442    0.2343 C.3       1 <0>         0.0000
      9 O1          0.6895    1.4670   -2.4521 O.2       1 <0>         0.0000
     10 O2         -0.0189   -1.2574   -1.9885 O.3       1 <0>         0.0000
     11 O3          0.5528    2.7521   -0.5825 O.3       1 <0>         0.0000
     12 S1         -0.0814    0.7678    1.4124 S.3       1 <0>         0.0000
     13 H1         -0.9442   -1.2371    2.4877 H         1 <0>         0.0000
     14 H2          0.7797   -1.3885    2.0955 H         1 <0>         0.0000
     15 H3          0.0593   -2.6802    0.3249 H         1 <0>         0.0000
     16 H4         -2.9493   -0.4130    1.1939 H         1 <0>         0.0000
     17 H5         -4.0278   -1.3314    0.1323 H         1 <0>         0.0000
     18 H6         -2.7950   -0.2634   -0.5563 H         1 <0>         0.0000
     19 H7          0.8973    4.7428   -0.7034 H         1 <0>         0.0000
     20 H8          0.1291    4.0451   -2.1683 H         1 <0>         0.0000
     21 H9          1.8599    3.7641   -1.8602 H         1 <0>         0.0000
     22 H10        -2.1447   -2.7043   -0.7023 H         1 <0>         0.0000
     23 H11        -2.2612   -2.8493    1.0385 H         1 <0>         0.0000
     24 H12        -0.1782   -2.2150   -1.9919 H         1 <0>         0.0000
@<TRIPOS>BOND
     1    1    2 2
     2    1    3 1
     3    1   12 1
     4    2    5 1
     5    2   10 1
     6    3    9 2
     7    3   11 1
     8    4    5 1
     9    4   12 1
    10    4   13 1
    11    4   14 1
    12    5    8 1
    13    5   15 1
    14    6    8 1
    15    6   16 1
    16    6   17 1
    17    6   18 1
    18    7   11 1
    19    7   19 1
    20    7   20 1
    21    7   21 1
    22    8   22 1
    23    8   23 1
    24   10   24 1
