@<TRIPOS>MOLECULE
*****
   29    31     0     0     0
SMALL
NO_CHARGES

@<TRIPOS>ATOM
      1 C1          1.2858    0.4854    6.4826 C.ar      1 <0>         0.0000
      2 C2          0.8541   -0.4220    5.5084 C.ar      1 <0>         0.0000
      3 C3          1.1950    1.8619    6.2399 C.ar      1 <0>         0.0000
      4 C4          5.1286    2.2081    2.7796 C.2       1 <0>         0.0000
      5 C5          0.3349    0.0422    4.2979 C.ar      1 <0>         0.0000
      6 C6          0.7119    2.3335    5.0192 C.ar      1 <0>         0.0000
      7 C7          1.6993    4.5881    2.0227 C.ar      1 <0>         0.0000
      8 C8          2.9562    5.1746    2.1172 C.ar      1 <0>         0.0000
      9 C9          6.3328    2.8216    2.8469 C.2       1 <0>         0.0000
     10 C10         2.6465    2.4036    2.4793 C.ar      1 <0>         0.0000
     11 C11         3.9281    2.9734    2.5416 C.ar      1 <0>         0.0000
     12 C12         0.3010    1.4183    4.0371 C.ar      1 <0>         0.0000
     13 C13         1.5315    3.2079    2.2430 C.ar      1 <0>         0.0000
     14 C14         4.0669    4.3666    2.3775 C.ar      1 <0>         0.0000
     15 C15         6.4687    4.2679    2.6814 C.2       1 <0>         0.0000
     16 N1         -0.3071    1.8322    2.8037 N.2       1 <0>         0.0000
     17 N2          0.2073    2.6881    2.0465 N.2       1 <0>         0.0000
     18 O1          7.5043    4.8950    2.7305 O.2       1 <0>         0.0000
     19 O2          5.2874    4.9769    2.4465 O.3       1 <0>         0.0000
     20 H1          1.6721    0.1242    7.4317 H         1 <0>         0.0000
     21 H2          0.9030   -1.4908    5.6991 H         1 <0>         0.0000
     22 H3          1.5047    2.5704    7.0036 H         1 <0>         0.0000
     23 H4          5.0480    1.1309    2.9081 H         1 <0>         0.0000
     24 H5         -0.0362   -0.6465    3.5438 H         1 <0>         0.0000
     25 H6          0.6462    3.4002    4.8298 H         1 <0>         0.0000
     26 H7          0.8251    5.1883    1.7876 H         1 <0>         0.0000
     27 H8          3.0985    6.2411    1.9740 H         1 <0>         0.0000
     28 H9          7.2570    2.2836    3.0263 H         1 <0>         0.0000
     29 H10         2.5355    1.3325    2.6144 H         1 <0>         0.0000
@<TRIPOS>BOND
     1    1    3 ar
     2    1    2 ar
     3    1   20 1
     4    2    5 ar
     5    2   21 1
     6    3    6 ar
     7    3   22 1
     8    4   11 1
     9    4    9 2
    10    4   23 1
    11    5   12 ar
    12    5   24 1
    13    6   12 ar
    14    6   25 1
    15    7    8 ar
    16    7   13 ar
    17    7   26 1
    18    8   14 ar
    19    8   27 1
    20    9   15 1
    21    9   28 1
    22   10   11 ar
    23   10   13 ar
    24   10   29 1
    25   11   14 ar
    26   12   16 1
    27   13   17 1
    28   14   19 1
    29   15   18 2
    30   15   19 1
    31   16   17 2
