@<TRIPOS>MOLECULE
*****
   31    33     0     0     0
SMALL
NO_CHARGES

@<TRIPOS>ATOM
      1 C1         -8.2953    3.7784    4.6015 C.1       1 <0>         0.0000
      2 C2         -2.6379   -2.7781    1.4286 C.ar      1 <0>         0.0000
      3 C3         -2.7288   -3.7652    2.4055 C.ar      1 <0>         0.0000
      4 C4         -4.1926   -2.3634    3.7915 C.ar      1 <0>         0.0000
      5 C5         -4.2311    0.4849    1.4897 C.2       1 <0>         0.0000
      6 C6         -8.3999    3.6884    3.1880 C.2       1 <0>         0.0000
      7 C7         -4.1028   -1.3550    2.8150 C.ar      1 <0>         0.0000
      8 C8         -4.6776   -0.0281    2.7035 C.2       1 <0>         0.0000
      9 C9         -3.3274   -1.5806    1.6479 C.ar      1 <0>         0.0000
     10 C10        -3.5004   -3.5456    3.5657 C.ar      1 <0>         0.0000
     11 C11        -7.6733    2.9247    2.3045 C.2       1 <0>         0.0000
     12 C12        -9.1383    4.1270    1.2131 C.2       1 <0>         0.0000
     13 C13        -5.4733    0.6133    3.7417 C.2       1 <0>         0.0000
     14 C14        -9.8302    4.6012   -0.0135 C.3       1 <0>         0.0000
     15 N1         -8.2333    3.8847    5.7613 N.1       1 <0>         0.0000
     16 N2         -9.3283    4.4450    2.4471 N.2       1 <0>         0.0000
     17 N3         -6.3458    1.5601    3.6503 N.2       1 <0>         0.0000
     18 N4         -3.4234   -0.4394    0.8664 N.pl3     1 <0>         0.0000
     19 N5         -6.6122    2.0567    2.3925 N.pl3     1 <0>         0.0000
     20 O1         -8.1200    3.1849    1.0445 O.3       1 <0>         0.0000
     21 Br1        -3.5979   -4.9484    4.8718 Br        1 <0>         0.0000
     22 H1         -2.0482   -2.9434    0.5310 H         1 <0>         0.0000
     23 H2         -2.2085   -4.7082    2.2770 H         1 <0>         0.0000
     24 H3         -4.7868   -2.2320    4.6897 H         1 <0>         0.0000
     25 H4         -4.3659    1.4684    1.0609 H         1 <0>         0.0000
     26 H5         -5.3377    0.2494    4.7584 H         1 <0>         0.0000
     27 H6         -9.1264    5.0793   -0.7028 H         1 <0>         0.0000
     28 H7        -10.3073    3.7693   -0.5421 H         1 <0>         0.0000
     29 H8        -10.5932    5.3242    0.2762 H         1 <0>         0.0000
     30 H9         -2.9635   -0.2978   -0.0223 H         1 <0>         0.0000
     31 H10        -6.5005    1.4271    1.5942 H         1 <0>         0.0000
@<TRIPOS>BOND
     1    1    6 1
     2    1   15 3
     3    2    3 ar
     4    2    9 ar
     5    2   22 1
     6    3   10 ar
     7    3   23 1
     8    4    7 ar
     9    4   10 ar
    10    4   24 1
    11    5    8 2
    12    5   18 1
    13    5   25 1
    14    6   11 2
    15    6   16 1
    16    7    8 1
    17    7    9 ar
    18    8   13 1
    19    9   18 1
    20   10   21 1
    21   11   19 1
    22   11   20 1
    23   12   14 1
    24   12   16 2
    25   12   20 1
    26   13   17 2
    27   13   26 1
    28   14   27 1
    29   14   28 1
    30   14   29 1
    31   17   19 1
    32   18   30 1
    33   19   31 1
