@<TRIPOS>MOLECULE
*****
   36    38     0     0     0
SMALL
NO_CHARGES

@<TRIPOS>ATOM
      1 C1          9.1145   -1.5638    2.5362 C.1       1 <0>         0.0000
      2 C2          7.2047   -2.5222   -0.5208 C.ar      1 <0>         0.0000
      3 C3          8.2806   -2.2629    0.3294 C.ar      1 <0>         0.0000
      4 C4          5.8925   -2.3668   -0.0731 C.ar      1 <0>         0.0000
      5 C5          6.0129   -6.6854    6.1910 C.ar      1 <0>         0.0000
      6 C6          7.8150   -5.7569    4.8468 C.ar      1 <0>         0.0000
      7 C7          6.8552   -7.7121    6.6181 C.ar      1 <0>         0.0000
      8 C8          8.6594   -6.7888    5.2590 C.ar      1 <0>         0.0000
      9 C9          6.7049   -1.6728    2.0999 C.ar      1 <0>         0.0000
     10 C10         8.0212   -1.8274    1.6407 C.ar      1 <0>         0.0000
     11 C11         4.4515   -3.1587    3.7501 C.2       1 <0>         0.0000
     12 C12         5.6298   -1.9729    1.2503 C.ar      1 <0>         0.0000
     13 C13         6.4938   -5.7189    5.3026 C.ar      1 <0>         0.0000
     14 C14         8.1613   -7.7477    6.1362 C.ar      1 <0>         0.0000
     15 C15         4.2132   -3.0641    5.1580 C.2       1 <0>         0.0000
     16 C16         5.3499   -4.2198    3.6370 C.2       1 <0>         0.0000
     17 C17         3.8271   -2.2941    2.7436 C.2       1 <0>         0.0000
     18 C18         3.3284   -2.0896    5.8725 C.3       1 <0>         0.0000
     19 N1          9.9988   -1.3714    3.2712 N.1       1 <0>         0.0000
     20 N2          4.9277   -3.9573    5.8359 N.2       1 <0>         0.0000
     21 N3          4.2910   -1.8121    1.6477 N.2       1 <0>         0.0000
     22 N4          5.6258   -4.6659    4.8939 N.pl3     1 <0>         0.0000
     23 F1          8.9796   -8.7480    6.5436 F         1 <0>         0.0000
     24 Cl1         5.9277   -5.0264    2.2342 Cl        1 <0>         0.0000
     25 H1          7.3902   -2.8443   -1.5417 H         1 <0>         0.0000
     26 H2          9.3047   -2.3814   -0.0094 H         1 <0>         0.0000
     27 H3          5.0516   -2.5639   -0.7314 H         1 <0>         0.0000
     28 H4          4.9901   -6.6216    6.5464 H         1 <0>         0.0000
     29 H5          8.1887   -4.9799    4.1882 H         1 <0>         0.0000
     30 H6          6.5129   -8.4770    7.3077 H         1 <0>         0.0000
     31 H7          9.6903   -6.8434    4.9246 H         1 <0>         0.0000
     32 H8          6.5234   -1.3304    3.1129 H         1 <0>         0.0000
     33 H9          2.8030   -1.9949    2.9846 H         1 <0>         0.0000
     34 H10         2.2906   -2.1712    5.5308 H         1 <0>         0.0000
     35 H11         3.3570   -2.2875    6.9458 H         1 <0>         0.0000
     36 H12         3.6518   -1.0579    5.6997 H         1 <0>         0.0000
@<TRIPOS>BOND
     1    1   10 1
     2    1   19 3
     3    2    3 ar
     4    2    4 ar
     5    2   25 1
     6    3   10 ar
     7    3   26 1
     8    4   12 ar
     9    4   27 1
    10    5    7 ar
    11    5   13 ar
    12    5   28 1
    13    6    8 ar
    14    6   13 ar
    15    6   29 1
    16    7   14 ar
    17    7   30 1
    18    8   14 ar
    19    8   31 1
    20    9   10 ar
    21    9   12 ar
    22    9   32 1
    23   11   15 1
    24   11   16 2
    25   11   17 1
    26   12   21 1
    27   13   22 1
    28   14   23 1
    29   15   18 1
    30   15   20 2
    31   16   22 1
    32   16   24 1
    33   17   21 2
    34   17   33 1
    35   18   34 1
    36   18   35 1
    37   18   36 1
    38   20   22 1
