@<TRIPOS>MOLECULE
*****
   28    29     0     0     0
SMALL
NO_CHARGES

@<TRIPOS>ATOM
      1 C1          5.3883   -7.1860    1.4847 C.ar      1 <0>         0.0000
      2 C2          4.2775   -7.9879    1.1691 C.ar      1 <0>         0.0000
      3 C3          5.2387   -5.8259    1.7585 C.ar      1 <0>         0.0000
      4 C4          2.9925   -7.4380    1.1235 C.ar      1 <0>         0.0000
      5 C5          3.9574   -5.2566    1.7155 C.ar      1 <0>         0.0000
      6 C6          2.8454   -6.0771    1.3959 C.ar      1 <0>         0.0000
      7 C7          2.3790   -3.7197    1.8475 C.2       1 <0>         0.0000
      8 C8          0.6665    0.0188    2.1402 C.2       1 <0>         0.0000
      9 C9          0.5274    1.1312    2.8866 C.2       1 <0>         0.0000
     10 C10        -0.0912   -1.2435    2.2551 C.2       1 <0>         0.0000
     11 C11        -0.3708    1.3516    4.0698 C.3       1 <0>         0.0000
     12 N1          3.6590   -3.9224    1.9666 N.2       1 <0>         0.0000
     13 N2          0.4270   -2.4217    2.1146 N.2       1 <0>         0.0000
     14 N3         -1.4568   -1.1726    2.5491 N.pl3     1 <0>         0.0000
     15 N4          1.8035   -2.4829    1.9928 N.pl3     1 <0>         0.0000
     16 S1          1.3678   -5.1147    1.4234 S.3       1 <0>         0.0000
     17 H1          6.3786   -7.6327    1.5157 H         1 <0>         0.0000
     18 H2          4.4152   -9.0448    0.9582 H         1 <0>         0.0000
     19 H3          6.0916   -5.1997    2.0042 H         1 <0>         0.0000
     20 H4          2.1341   -8.0585    0.8807 H         1 <0>         0.0000
     21 H5          1.4182    0.0159    1.3519 H         1 <0>         0.0000
     22 H6          1.1670    1.9739    2.6225 H         1 <0>         0.0000
     23 H7         -1.0982    2.1451    3.8549 H         1 <0>         0.0000
     24 H8          0.2231    1.7001    4.9233 H         1 <0>         0.0000
     25 H9         -0.9145    0.4512    4.3557 H         1 <0>         0.0000
     26 H10        -1.9431   -0.4362    2.0472 H         1 <0>         0.0000
     27 H11        -1.9127   -2.0757    2.4437 H         1 <0>         0.0000
     28 H12         2.3839   -1.8022    2.4789 H         1 <0>         0.0000
@<TRIPOS>BOND
     1    1    2 ar
     2    1    3 ar
     3    1   17 1
     4    2    4 ar
     5    2   18 1
     6    3    5 ar
     7    3   19 1
     8    4    6 ar
     9    4   20 1
    10    5    6 ar
    11    5   12 1
    12    6   16 1
    13    7   12 2
    14    7   15 1
    15    7   16 1
    16    8    9 2
    17    8   10 1
    18    8   21 1
    19    9   11 1
    20    9   22 1
    21   10   13 2
    22   10   14 1
    23   11   23 1
    24   11   24 1
    25   11   25 1
    26   13   15 1
    27   14   26 1
    28   14   27 1
    29   15   28 1
