@<TRIPOS>MOLECULE
*****
   27    28     0     0     0
SMALL
NO_CHARGES

@<TRIPOS>ATOM
      1 C1          1.3679   -8.3636   -4.1564 C.1       1 <0>         0.0000
      2 C2          3.0326   -0.0580    0.3918 C.ar      1 <0>         0.0000
      3 C3          1.9001   -2.0371    1.1979 C.ar      1 <0>         0.0000
      4 C4          2.1155    0.7525    1.0586 C.ar      1 <0>         0.0000
      5 C5          0.9841   -1.2369    1.8820 C.ar      1 <0>         0.0000
      6 C6          1.7568   -7.2879   -3.3025 C.ar      1 <0>         0.0000
      7 C7          2.9331   -1.4613    0.4321 C.ar      1 <0>         0.0000
      8 C8          3.0387   -7.2396   -2.7065 C.ar      1 <0>         0.0000
      9 C9          3.3965   -6.1722   -1.8769 C.ar      1 <0>         0.0000
     10 C10         1.0923    0.1530    1.7977 C.ar      1 <0>         0.0000
     11 C11         2.4478   -5.1308   -1.7123 C.ar      1 <0>         0.0000
     12 C12         0.8816   -6.2295   -2.9911 C.ar      1 <0>         0.0000
     13 C13         3.9557   -2.2519   -0.2810 C.2       1 <0>         0.0000
     14 N1          1.0476   -9.2397   -4.8546 N.1       1 <0>         0.0000
     15 N2          1.2174   -5.1993   -2.2470 N.ar      1 <0>         0.0000
     16 N3          3.8650   -3.3890   -0.8816 N.2       1 <0>         0.0000
     17 N4          2.6390   -4.0021   -0.9378 N.pl3     1 <0>         0.0000
     18 Cl1         4.1358   -8.5421   -2.9986 Cl        1 <0>         0.0000
     19 Cl2         4.9046   -6.1924   -1.0211 Cl        1 <0>         0.0000
     20 Cl3        -0.7420   -6.2430   -3.6239 Cl        1 <0>         0.0000
     21 Br1        -0.1687    1.2543    2.7216 Br        1 <0>         0.0000
     22 H1          3.8356    0.4055   -0.1762 H         1 <0>         0.0000
     23 H2          1.8317   -3.1153    1.3016 H         1 <0>         0.0000
     24 H3          2.1969    1.8334    1.0097 H         1 <0>         0.0000
     25 H4          0.1995   -1.6907    2.4785 H         1 <0>         0.0000
     26 H5          4.9501   -1.8119   -0.3448 H         1 <0>         0.0000
     27 H6          1.8009   -3.4187   -0.9046 H         1 <0>         0.0000
@<TRIPOS>BOND
     1    1    6 1
     2    1   14 3
     3    2    4 ar
     4    2    7 ar
     5    2   22 1
     6    3    5 ar
     7    3    7 ar
     8    3   23 1
     9    4   10 ar
    10    4   24 1
    11    5   10 ar
    12    5   25 1
    13    6    8 ar
    14    6   12 ar
    15    7   13 1
    16    8    9 ar
    17    8   18 1
    18    9   11 ar
    19    9   19 1
    20   10   21 1
    21   11   15 ar
    22   11   17 1
    23   12   15 ar
    24   12   20 1
    25   13   16 2
    26   13   26 1
    27   16   17 1
    28   17   27 1
