@<TRIPOS>MOLECULE
*****
   34    36     0     0     0
SMALL
NO_CHARGES

@<TRIPOS>ATOM
      1 C1         -0.4458    0.7079   -1.5505 C.ar      1 <0>         0.0000
      2 C2         -0.6579    0.0574   -0.3275 C.ar      1 <0>         0.0000
      3 C3         -4.7026   -1.6610   -8.0086 C.ar      1 <0>         0.0000
      4 C4         -4.4385   -1.2023   -6.7160 C.ar      1 <0>         0.0000
      5 C5         -3.6854   -2.2390   -8.7728 C.ar      1 <0>         0.0000
      6 C6         -0.9539    0.1557   -2.7214 C.ar      1 <0>         0.0000
      7 C7         -1.3792   -1.1316   -0.2932 C.ar      1 <0>         0.0000
      8 C8         -2.1389   -1.9304   -6.9547 C.ar      1 <0>         0.0000
      9 C9         -3.1556   -1.3540   -6.1786 C.ar      1 <0>         0.0000
     10 C10        -2.3842   -2.3688   -8.2612 C.ar      1 <0>         0.0000
     11 C11        -1.6917   -1.0378   -2.6980 C.ar      1 <0>         0.0000
     12 C12        -1.9108   -1.6888   -1.4700 C.ar      1 <0>         0.0000
     13 C13        -2.8780   -0.7923   -4.8131 C.2       1 <0>         0.0000
     14 C14        -2.2412   -3.0583   -3.9761 C.3       1 <0>         0.0000
     15 C15        -3.2913   -3.5726   -2.9941 C.3       1 <0>         0.0000
     16 C16        -1.2740   -2.9435   -9.1111 C.3       1 <0>         0.0000
     17 N1         -2.1549   -1.5959   -3.9307 N.am      1 <0>         0.0000
     18 O1         -3.2382    0.3457   -4.5284 O.2       1 <0>         0.0000
     19 S1         -2.8214   -3.2049   -1.2669 S.3       1 <0>         0.0000
     20 H1          0.1164    1.6364   -1.5909 H         1 <0>         0.0000
     21 H2         -0.2618    0.4738    0.5947 H         1 <0>         0.0000
     22 H3         -5.7018   -1.5617   -8.4246 H         1 <0>         0.0000
     23 H4         -5.2115   -0.7230   -6.1227 H         1 <0>         0.0000
     24 H5         -3.9004   -2.5866   -9.7812 H         1 <0>         0.0000
     25 H6         -0.7968    0.6511   -3.6732 H         1 <0>         0.0000
     26 H7         -1.5452   -1.6388    0.6544 H         1 <0>         0.0000
     27 H8         -1.1380   -2.0217   -6.5378 H         1 <0>         0.0000
     28 H9         -1.2594   -3.4807   -3.7408 H         1 <0>         0.0000
     29 H10        -2.5142   -3.3698   -4.9820 H         1 <0>         0.0000
     30 H11        -4.2635   -3.1274   -3.2215 H         1 <0>         0.0000
     31 H12        -3.3796   -4.6605   -3.0607 H         1 <0>         0.0000
     32 H13        -0.9101   -2.2015   -9.8316 H         1 <0>         0.0000
     33 H14        -0.4221   -3.2558   -8.5007 H         1 <0>         0.0000
     34 H15        -1.6183   -3.8112   -9.6828 H         1 <0>         0.0000
@<TRIPOS>BOND
     1    1    2 ar
     2    1    6 ar
     3    1   20 1
     4    2    7 ar
     5    2   21 1
     6    3    4 ar
     7    3    5 ar
     8    3   22 1
     9    4    9 ar
    10    4   23 1
    11    5   10 ar
    12    5   24 1
    13    6   11 ar
    14    6   25 1
    15    7   12 ar
    16    7   26 1
    17    8    9 ar
    18    8   10 ar
    19    8   27 1
    20    9   13 1
    21   10   16 1
    22   11   12 ar
    23   11   17 1
    24   12   19 1
    25   13   17 am
    26   13   18 2
    27   14   15 1
    28   14   17 1
    29   14   28 1
    30   14   29 1
    31   15   19 1
    32   15   30 1
    33   15   31 1
    34   16   32 1
    35   16   33 1
    36   16   34 1
