@<TRIPOS>MOLECULE
*****
   30    31     0     0     0
SMALL
NO_CHARGES

@<TRIPOS>ATOM
      1 C1         -3.7423   -3.5899   -0.2710 C.ar      1 <0>         0.0000
      2 C2         -3.2083   -2.3441    0.0569 C.ar      1 <0>         0.0000
      3 C3         -3.1444   -4.3971   -1.2430 C.ar      1 <0>         0.0000
      4 C4         -1.4248   -2.6883   -1.5685 C.ar      1 <0>         0.0000
      5 C5          2.7630    3.4615   -1.3842 C.2       1 <0>         0.0000
      6 C6          1.2818    1.5344   -1.0197 C.2       1 <0>         0.0000
      7 C7         -2.0481   -1.8912   -0.5935 C.ar      1 <0>         0.0000
      8 C8          1.5350    2.8927   -0.9336 C.2       1 <0>         0.0000
      9 C9         -1.9907   -3.9230   -1.8741 C.ar      1 <0>         0.0000
     10 C10         3.6925    2.6439   -1.9411 C.2       1 <0>         0.0000
     11 C11         2.2822    0.6723   -1.6401 C.2       1 <0>         0.0000
     12 C12         0.0636    0.9574   -0.4573 C.2       1 <0>         0.0000
     13 C13         5.0225    3.0632   -2.4786 C.3       1 <0>         0.0000
     14 N1         -0.4400   -0.1563   -0.8710 N.2       1 <0>         0.0000
     15 N2         -1.5289   -0.6385   -0.2569 N.pl3     1 <0>         0.0000
     16 O1          2.2313   -0.5219   -1.8193 O.2       1 <0>         0.0000
     17 O2          3.4741    1.3177   -2.0697 O.3       1 <0>         0.0000
     18 O3          0.6472    3.7894   -0.4244 O.3       1 <0>         0.0000
     19 Cl1        -1.2183   -4.9240   -3.0953 Cl        1 <0>         0.0000
     20 H1         -4.6394   -3.9372    0.2344 H         1 <0>         0.0000
     21 H2         -3.6891   -1.7241    0.8106 H         1 <0>         0.0000
     22 H3         -3.5571   -5.3654   -1.5043 H         1 <0>         0.0000
     23 H4         -0.5212   -2.3404   -2.0546 H         1 <0>         0.0000
     24 H5          2.9281    4.5282   -1.2981 H         1 <0>         0.0000
     25 H6         -0.3942    1.4851    0.3962 H         1 <0>         0.0000
     26 H7          5.8245    2.5303   -1.9569 H         1 <0>         0.0000
     27 H8          5.1688    4.1380   -2.3575 H         1 <0>         0.0000
     28 H9          5.0975    2.8078   -3.5408 H         1 <0>         0.0000
     29 H10        -1.9230   -0.1521    0.5487 H         1 <0>         0.0000
     30 H11        -0.2176    3.3634   -0.3044 H         1 <0>         0.0000
@<TRIPOS>BOND
     1    1    2 ar
     2    1    3 ar
     3    1   20 1
     4    2    7 ar
     5    2   21 1
     6    3    9 ar
     7    3   22 1
     8    4    7 ar
     9    4    9 ar
    10    4   23 1
    11    5    8 1
    12    5   10 2
    13    5   24 1
    14    6    8 2
    15    6   11 1
    16    6   12 1
    17    7   15 1
    18    8   18 1
    19    9   19 1
    20   10   13 1
    21   10   17 1
    22   11   16 2
    23   11   17 1
    24   12   14 2
    25   12   25 1
    26   13   26 1
    27   13   27 1
    28   13   28 1
    29   14   15 1
    30   15   29 1
    31   18   30 1
