@<TRIPOS>MOLECULE
*****
   40    42     0     0     0
SMALL
NO_CHARGES

@<TRIPOS>ATOM
      1 C1         -0.5543    4.5896    2.0955 C.1       1 <0>         0.0000
      2 C2         -7.1975    7.0432    2.0660 C.ar      1 <0>         0.0000
      3 C3         -5.4142    8.4564    2.8398 C.ar      1 <0>         0.0000
      4 C4         -6.2864    6.0122    1.8345 C.ar      1 <0>         0.0000
      5 C5         -4.4870    7.4402    2.6164 C.ar      1 <0>         0.0000
      6 C6         -6.7826    8.2825    2.5740 C.ar      1 <0>         0.0000
      7 C7         -4.9263    6.2088    2.1102 C.ar      1 <0>         0.0000
      8 C8         -2.3261    2.9497    1.3600 C.2       1 <0>         0.0000
      9 C9         -2.4264    0.8786    0.6628 C.2       1 <0>         0.0000
     10 C10        -1.9298    4.2684    1.8512 C.2       1 <0>         0.0000
     11 C11        -2.0217   -0.4942    0.2388 C.3       1 <0>         0.0000
     12 C12        -0.9655   -0.5067   -0.8856 C.3       1 <0>         0.0000
     13 C13         0.4581   -0.1479   -0.4344 C.3       1 <0>         0.0000
     14 C14         0.6534    1.2674    0.1297 C.3       1 <0>         0.0000
     15 C15        -0.1293    1.5616    1.4142 C.3       1 <0>         0.0000
     16 C16        -7.7761    9.3856    2.8554 C.3       1 <0>         0.0000
     17 N1          0.5726    4.8331    2.2784 N.1       1 <0>         0.0000
     18 N2         -3.5833    2.6755    1.0094 N.2       1 <0>         0.0000
     19 N3         -3.6426    1.3784    0.5681 N.2       1 <0>         0.0000
     20 N4         -2.7566    5.2743    2.0768 N.2       1 <0>         0.0000
     21 N5         -1.5544    1.8189    1.1629 N.pl3     1 <0>         0.0000
     22 N6         -4.0427    5.1445    1.8593 N.pl3     1 <0>         0.0000
     23 H1         -8.2494    6.8776    1.8445 H         1 <0>         0.0000
     24 H2         -5.0642    9.4099    3.2296 H         1 <0>         0.0000
     25 H3         -6.6266    5.0586    1.4372 H         1 <0>         0.0000
     26 H4         -3.4330    7.5878    2.8236 H         1 <0>         0.0000
     27 H5         -1.6478   -1.0621    1.1016 H         1 <0>         0.0000
     28 H6         -2.9364   -0.9886   -0.0966 H         1 <0>         0.0000
     29 H7         -0.9448   -1.5136   -1.3171 H         1 <0>         0.0000
     30 H8         -1.2894    0.1694   -1.6860 H         1 <0>         0.0000
     31 H9          0.7829   -0.8748    0.3230 H         1 <0>         0.0000
     32 H10         1.1351   -0.2752   -1.2871 H         1 <0>         0.0000
     33 H11         1.7156    1.4070    0.3597 H         1 <0>         0.0000
     34 H12         0.3953    2.0239   -0.6208 H         1 <0>         0.0000
     35 H13        -0.0601    0.7174    2.1094 H         1 <0>         0.0000
     36 H14         0.2887    2.4269    1.9184 H         1 <0>         0.0000
     37 H15        -8.1030    9.3640    3.9024 H         1 <0>         0.0000
     38 H16        -7.3405   10.3723    2.6703 H         1 <0>         0.0000
     39 H17        -8.6692    9.2882    2.2310 H         1 <0>         0.0000
     40 H18        -4.3923    4.2482    1.4801 H         1 <0>         0.0000
@<TRIPOS>BOND
     1    1   10 1
     2    1   17 3
     3    2    4 ar
     4    2    6 ar
     5    2   23 1
     6    3    5 ar
     7    3    6 ar
     8    3   24 1
     9    4    7 ar
    10    4   25 1
    11    5    7 ar
    12    5   26 1
    13    6   16 1
    14    7   22 1
    15    8   10 1
    16    8   18 2
    17    8   21 1
    18    9   11 1
    19    9   19 2
    20    9   21 1
    21   10   20 2
    22   11   12 1
    23   11   27 1
    24   11   28 1
    25   12   13 1
    26   12   29 1
    27   12   30 1
    28   13   14 1
    29   13   31 1
    30   13   32 1
    31   14   15 1
    32   14   33 1
    33   14   34 1
    34   15   21 1
    35   15   35 1
    36   15   36 1
    37   16   37 1
    38   16   38 1
    39   16   39 1
    40   18   19 1
    41   20   22 1
    42   22   40 1
