@<TRIPOS>MOLECULE
*****
   40    44     0     0     0
SMALL
NO_CHARGES

@<TRIPOS>ATOM
      1 C1          0.9397   -1.4318   -0.6002 C.ar      1 <0>         0.0000
      2 C2         -0.2715   -1.1927    0.0850 C.ar      1 <0>         0.0000
      3 C3          1.7802   -2.4800   -0.2313 C.ar      1 <0>         0.0000
      4 C4         -0.6667   -1.9954    1.1556 C.ar      1 <0>         0.0000
      5 C5          6.8974   -4.6699    3.6245 C.2       1 <0>         0.0000
      6 C6          1.4061   -3.3078    0.8430 C.ar      1 <0>         0.0000
      7 C7          2.0030   -4.4476    1.4903 C.2       1 <0>         0.0000
      8 C8          0.1797   -3.0459    1.5241 C.ar      1 <0>         0.0000
      9 C9          5.9232   -5.1746    2.7169 C.2       1 <0>         0.0000
     10 C10         1.1587   -4.8368    2.5016 C.2       1 <0>         0.0000
     11 C11         7.8526   -4.1190    2.8147 C.2       1 <0>         0.0000
     12 C12         4.7144   -5.9545    3.1495 C.2       1 <0>         0.0000
     13 C13         3.3110   -5.1358    1.2109 C.3       1 <0>         0.0000
     14 C14         1.4028   -5.9934    3.4178 C.3       1 <0>         0.0000
     15 C15         9.2985   -2.5650    4.2924 C.3       1 <0>         0.0000
     16 C16        10.0230   -3.8793    4.2010 C.3       1 <0>         0.0000
     17 C17         2.5015   -6.8643    2.7812 C.3       1 <0>         0.0000
     18 C18         9.1293   -3.4305    3.0513 C.3       1 <0>         0.0000
     19 N1          6.2611   -4.9583    1.4584 N.2       1 <0>         0.0000
     20 N2          0.0574   -3.9916    2.5330 N.pl3     1 <0>         0.0000
     21 N3          3.6294   -6.0439    2.3252 N.am      1 <0>         0.0000
     22 O1          4.7718   -6.5266    4.2446 O.2       1 <0>         0.0000
     23 O2          7.4866   -4.2859    1.5167 O.3       1 <0>         0.0000
     24 H1          1.2172   -0.7854   -1.4286 H         1 <0>         0.0000
     25 H2         -0.9071   -0.3678   -0.2257 H         1 <0>         0.0000
     26 H3          2.7106   -2.6544   -0.7665 H         1 <0>         0.0000
     27 H4         -1.5993   -1.8060    1.6820 H         1 <0>         0.0000
     28 H5          6.8699   -4.7397    4.7017 H         1 <0>         0.0000
     29 H6          3.2679   -5.7162    0.2790 H         1 <0>         0.0000
     30 H7          4.1155   -4.4147    1.0877 H         1 <0>         0.0000
     31 H8          1.7284   -5.6556    4.4095 H         1 <0>         0.0000
     32 H9          0.4964   -6.5958    3.5583 H         1 <0>         0.0000
     33 H10         8.4456   -2.4933    4.9602 H         1 <0>         0.0000
     34 H11         9.8687   -1.6478    4.1811 H         1 <0>         0.0000
     35 H12        11.0945   -3.8716    4.0257 H         1 <0>         0.0000
     36 H13         9.6647   -4.7074    4.8044 H         1 <0>         0.0000
     37 H14         2.8771   -7.6004    3.4895 H         1 <0>         0.0000
     38 H15         2.0961   -7.3820    1.9048 H         1 <0>         0.0000
     39 H16         9.6224   -3.0973    2.1438 H         1 <0>         0.0000
     40 H17        -0.7204   -4.0706    3.1722 H         1 <0>         0.0000
@<TRIPOS>BOND
     1    1    2 ar
     2    1    3 ar
     3    1   24 1
     4    2    4 ar
     5    2   25 1
     6    3    6 ar
     7    3   26 1
     8    4    8 ar
     9    4   27 1
    10    5    9 1
    11    5   11 2
    12    5   28 1
    13    6    7 1
    14    6    8 ar
    15    7   10 2
    16    7   13 1
    17    8   20 1
    18    9   12 1
    19    9   19 2
    20   10   14 1
    21   10   20 1
    22   11   18 1
    23   11   23 1
    24   12   21 am
    25   12   22 2
    26   13   21 1
    27   13   29 1
    28   13   30 1
    29   14   17 1
    30   14   31 1
    31   14   32 1
    32   15   16 1
    33   15   18 1
    34   15   33 1
    35   15   34 1
    36   16   18 1
    37   16   35 1
    38   16   36 1
    39   17   21 1
    40   17   37 1
    41   17   38 1
    42   18   39 1
    43   19   23 1
    44   20   40 1
