@<TRIPOS>MOLECULE
*****
   41    43     0     0     0
SMALL
NO_CHARGES

@<TRIPOS>ATOM
      1 C1         -7.2426    7.6700   -3.7570 C.ar      1 <0>         0.0000
      2 C2         -6.3994    6.5676   -3.6155 C.ar      1 <0>         0.0000
      3 C3         -2.6237   -0.6941   -2.0078 C.ar      1 <0>         0.0000
      4 C4         -2.0255   -1.8449   -2.5152 C.ar      1 <0>         0.0000
      5 C5         -1.9895    1.7769   -4.7241 C.2       1 <0>         0.0000
      6 C6         -1.3649   -0.6422   -4.5261 C.ar      1 <0>         0.0000
      7 C7         -5.1656    7.3065   -5.5633 C.ar      1 <0>         0.0000
      8 C8         -1.9704    0.5292   -4.0218 C.ar      1 <0>         0.0000
      9 C9         -2.6115    2.9017   -4.2359 C.2       1 <0>         0.0000
     10 C10        -7.0728    8.6039   -4.7861 C.ar      1 <0>         0.0000
     11 C11        -6.0118    8.4101   -5.6994 C.ar      1 <0>         0.0000
     12 C12        -5.3499    6.3811   -4.5250 C.ar      1 <0>         0.0000
     13 C13        -2.5942    0.4770   -2.7656 C.ar      1 <0>         0.0000
     14 C14        -1.4017   -1.8059   -3.7737 C.ar      1 <0>         0.0000
     15 C15        -3.2213    2.8118   -2.8942 C.2       1 <0>         0.0000
     16 C16        -2.5671    4.1576   -5.0254 C.2       1 <0>         0.0000
     17 C17        -8.0033    9.7874   -4.9126 C.3       1 <0>         0.0000
     18 C18        -5.7856    9.3912   -6.8266 C.3       1 <0>         0.0000
     19 C19        -1.4212    4.2841   -6.0150 C.3       1 <0>         0.0000
     20 N1         -3.4091    5.1508   -5.0858 N.2       1 <0>         0.0000
     21 N2         -4.5349    5.2472   -4.3793 N.pl3     1 <0>         0.0000
     22 O1         -3.7435    3.7214   -2.2700 O.2       1 <0>         0.0000
     23 O2         -3.1886    1.5911   -2.2470 O.3       1 <0>         0.0000
     24 Br1        -0.5887   -3.3991   -4.4580 Br        1 <0>         0.0000
     25 H1         -8.0525    7.8064   -3.0437 H         1 <0>         0.0000
     26 H2         -6.5506    5.8596   -2.8038 H         1 <0>         0.0000
     27 H3         -3.1128   -0.6928   -1.0388 H         1 <0>         0.0000
     28 H4         -2.0410   -2.7663   -1.9431 H         1 <0>         0.0000
     29 H5         -1.4938    1.8132   -5.6881 H         1 <0>         0.0000
     30 H6         -0.8786   -0.6226   -5.4965 H         1 <0>         0.0000
     31 H7         -4.3488    7.1522   -6.2599 H         1 <0>         0.0000
     32 H8         -7.4625   10.7392   -4.8442 H         1 <0>         0.0000
     33 H9         -8.5284    9.7908   -5.8756 H         1 <0>         0.0000
     34 H10        -8.7594    9.7781   -4.1227 H         1 <0>         0.0000
     35 H11        -6.6627    9.4593   -7.4810 H         1 <0>         0.0000
     36 H12        -5.5957   10.4018   -6.4459 H         1 <0>         0.0000
     37 H13        -4.9304    9.0983   -7.4411 H         1 <0>         0.0000
     38 H14        -1.5448    3.6220   -6.8821 H         1 <0>         0.0000
     39 H15        -1.3939    5.3082   -6.3882 H         1 <0>         0.0000
     40 H16        -0.4554    4.0491   -5.5538 H         1 <0>         0.0000
     41 H17        -4.6140    4.7217   -3.5072 H         1 <0>         0.0000
@<TRIPOS>BOND
     1    1    2 ar
     2    1   10 ar
     3    1   25 1
     4    2   12 ar
     5    2   26 1
     6    3    4 ar
     7    3   13 ar
     8    3   27 1
     9    4   14 ar
    10    4   28 1
    11    5    8 1
    12    5    9 2
    13    5   29 1
    14    6    8 ar
    15    6   14 ar
    16    6   30 1
    17    7   11 ar
    18    7   12 ar
    19    7   31 1
    20    8   13 ar
    21    9   15 1
    22    9   16 1
    23   10   11 ar
    24   10   17 1
    25   11   18 1
    26   12   21 1
    27   13   23 1
    28   14   24 1
    29   15   22 2
    30   15   23 1
    31   16   19 1
    32   16   20 2
    33   17   32 1
    34   17   33 1
    35   17   34 1
    36   18   35 1
    37   18   36 1
    38   18   37 1
    39   19   38 1
    40   19   39 1
    41   19   40 1
    42   20   21 1
    43   21   41 1
