@<TRIPOS>MOLECULE
*****
   35    37     0     0     0
SMALL
NO_CHARGES

@<TRIPOS>ATOM
      1 C1         -1.3119   -3.4442    0.3726 C.ar      1 <0>         0.0000
      2 C2         -0.2924   -2.6816    2.7168 C.ar      1 <0>         0.0000
      3 C3         -0.0772    0.5032    2.2445 C.2       1 <0>         0.0000
      4 C4          0.4639   -2.7906    3.9384 C.2       1 <0>         0.0000
      5 C5         -0.1942    0.7941    0.8390 C.2       1 <0>         0.0000
      6 C6          1.2701    0.5817    2.4812 C.2       1 <0>         0.0000
      7 C7         -1.4412   -2.0324    2.2009 C.ar      1 <0>         0.0000
      8 C8          0.2896   -3.6421    1.8802 C.ar      1 <0>         0.0000
      9 C9          0.2222   -2.1820    5.2861 C.3       1 <0>         0.0000
     10 C10        -1.4228    0.8542   -0.0143 C.3       1 <0>         0.0000
     11 C11         2.1401    0.4043    3.6807 C.3       1 <0>         0.0000
     12 C12        -3.4223   -0.6366    2.4657 C.3       1 <0>         0.0000
     13 C13        -1.1820    0.1906    3.2171 C.3       1 <0>         0.0000
     14 N1         -1.9638   -2.4784    1.0436 N.ar      1 <0>         0.0000
     15 N2         -0.1590   -4.0432    0.6931 N.ar      1 <0>         0.0000
     16 N3          1.4309   -3.6695    3.8053 N.2       1 <0>         0.0000
     17 N4          0.9803    1.0228    0.2948 N.2       1 <0>         0.0000
     18 N5         -2.0393   -0.9583    2.8259 N.pl3     1 <0>         0.0000
     19 O1          1.9153    0.8916    1.3345 O.3       1 <0>         0.0000
     20 O2          1.3551   -4.2001    2.4902 O.3       1 <0>         0.0000
     21 H1         -1.7736   -3.7631   -0.5598 H         1 <0>         0.0000
     22 H2         -0.8471   -2.1932    5.5158 H         1 <0>         0.0000
     23 H3          0.7573   -2.7561    6.0451 H         1 <0>         0.0000
     24 H4          0.5670   -1.1480    5.3394 H         1 <0>         0.0000
     25 H5         -2.1553    1.5527    0.4043 H         1 <0>         0.0000
     26 H6         -1.1557    1.1909   -1.0181 H         1 <0>         0.0000
     27 H7         -1.8931   -0.1307   -0.0853 H         1 <0>         0.0000
     28 H8          2.4889   -0.6305    3.7652 H         1 <0>         0.0000
     29 H9          3.0184    1.0494    3.5981 H         1 <0>         0.0000
     30 H10         1.6066    0.6691    4.5958 H         1 <0>         0.0000
     31 H11        -3.8696   -0.0744    3.2906 H         1 <0>         0.0000
     32 H12        -3.9826   -1.5608    2.3275 H         1 <0>         0.0000
     33 H13        -3.5057   -0.0485    1.5458 H         1 <0>         0.0000
     34 H14        -0.7650    0.0371    4.2144 H         1 <0>         0.0000
     35 H15        -1.8583    1.0464    3.2996 H         1 <0>         0.0000
@<TRIPOS>BOND
     1    1   14 ar
     2    1   15 ar
     3    1   21 1
     4    2    4 1
     5    2    7 ar
     6    2    8 ar
     7    3    5 1
     8    3    6 2
     9    3   13 1
    10    4    9 1
    11    4   16 2
    12    5   10 1
    13    5   17 2
    14    6   11 1
    15    6   19 1
    16    7   14 ar
    17    7   18 1
    18    8   15 ar
    19    8   20 1
    20    9   22 1
    21    9   23 1
    22    9   24 1
    23   10   25 1
    24   10   26 1
    25   10   27 1
    26   11   28 1
    27   11   29 1
    28   11   30 1
    29   12   18 1
    30   12   31 1
    31   12   32 1
    32   12   33 1
    33   13   18 1
    34   13   34 1
    35   13   35 1
    36   16   20 1
    37   17   19 1
