@<TRIPOS>MOLECULE
*****
   23    23     0     0     0
SMALL
NO_CHARGES

@<TRIPOS>ATOM
      1 C1          5.4119    0.1311   -0.7851 C.1       1 <0>         0.0000
      2 C2          2.2312   -0.5864    0.0484 C.ar      1 <0>         0.0000
      3 C3          1.2217    0.0117    0.8031 C.ar      1 <0>         0.0000
      4 C4          2.1434   -1.0196    2.8010 C.ar      1 <0>         0.0000
      5 C5          3.2273   -1.3845    0.6273 C.ar      1 <0>         0.0000
      6 C6          3.1560   -1.5668    2.0159 C.ar      1 <0>         0.0000
      7 C7          1.1942   -0.2226    2.1731 C.ar      1 <0>         0.0000
      8 C8          5.6071   -1.2315   -0.2813 C.3       1 <0>         0.0000
      9 C9          4.2752   -2.0268   -0.2689 C.3       1 <0>         0.0000
     10 N1          5.2175    1.2005   -1.1985 N.1       1 <0>         0.0000
     11 N2          4.5516   -3.3927    0.1814 N.3       1 <0>         0.0000
     12 N3          4.1752   -2.3365    2.7656 N.pl3     1 <0>         0.0000
     13 O1          3.7820   -3.3069    3.4113 O.3       1 <0>         0.0000
     14 O2          5.3313   -1.9076    2.7497 O.2       1 <0>         0.0000
     15 F1          0.2144    0.3315    2.9212 F         1 <0>         0.0000
     16 H1          2.2512   -0.4251   -1.0256 H         1 <0>         0.0000
     17 H2          0.4639    0.6384    0.3442 H         1 <0>         0.0000
     18 H3          2.1000   -1.1999    3.8696 H         1 <0>         0.0000
     19 H4          6.3266   -1.7380   -0.9349 H         1 <0>         0.0000
     20 H5          6.0274   -1.1960    0.7253 H         1 <0>         0.0000
     21 H6          3.8757   -1.9865   -1.2934 H         1 <0>         0.0000
     22 H7          5.2934   -3.8141   -0.3750 H         1 <0>         0.0000
     23 H8          3.7220   -3.9723    0.0689 H         1 <0>         0.0000
@<TRIPOS>BOND
     1    1    8 1
     2    1   10 3
     3    2    3 ar
     4    2    5 ar
     5    2   16 1
     6    3    7 ar
     7    3   17 1
     8    4    6 ar
     9    4    7 ar
    10    4   18 1
    11    5    6 ar
    12    5    9 1
    13    6   12 1
    14    7   15 1
    15    8    9 1
    16    8   19 1
    17    8   20 1
    18    9   11 1
    19    9   21 1
    20   11   22 1
    21   11   23 1
    22   12   13 1
    23   12   14 2
