@<TRIPOS>MOLECULE
*****
   31    33     0     0     0
SMALL
NO_CHARGES

@<TRIPOS>ATOM
      1 C1         -1.8732   -0.8550   -0.8491 C.ar      1 <0>         0.0000
      2 C2         -0.6961   -0.9571   -0.0964 C.ar      1 <0>         0.0000
      3 C3         -5.3557   -2.4476    1.7777 C.ar      1 <0>         0.0000
      4 C4         -4.5254   -3.2639    1.0074 C.ar      1 <0>         0.0000
      5 C5         -2.5575   -2.0105   -1.2180 C.ar      1 <0>         0.0000
      6 C6         -6.6149   -2.0645    1.3050 C.ar      1 <0>         0.0000
      7 C7         -0.2111   -2.2098    0.2756 C.ar      1 <0>         0.0000
      8 C8         -6.2331   -3.3736   -0.7161 C.ar      1 <0>         0.0000
      9 C9         -4.9606   -3.7206   -0.2449 C.ar      1 <0>         0.0000
     10 C10        -2.1049   -3.2706   -0.8038 C.ar      1 <0>         0.0000
     11 C11        -7.0246   -2.5393    0.0622 C.ar      1 <0>         0.0000
     12 C12        -0.9116   -3.3789   -0.0651 C.ar      1 <0>         0.0000
     13 C13        -4.1510   -4.6780   -1.0721 C.2       1 <0>         0.0000
     14 C14        -1.9319   -5.5565   -1.6304 C.3       1 <0>         0.0000
     15 C15        -1.2157   -6.1720   -0.4343 C.3       1 <0>         0.0000
     16 N1         -2.7889   -4.4569   -1.1801 N.am      1 <0>         0.0000
     17 O1         -4.6884   -5.6501   -1.6033 O.2       1 <0>         0.0000
     18 F1         -8.2493   -2.1803   -0.4023 F         1 <0>         0.0000
     19 S1         -0.2416   -4.9223    0.5102 S.3       1 <0>         0.0000
     20 H1         -2.2452    0.1166   -1.1610 H         1 <0>         0.0000
     21 H2         -0.1459   -0.0636    0.1858 H         1 <0>         0.0000
     22 H3         -5.0204   -2.1013    2.7512 H         1 <0>         0.0000
     23 H4         -3.5477   -3.5460    1.3831 H         1 <0>         0.0000
     24 H5         -3.4593   -1.9486   -1.8189 H         1 <0>         0.0000
     25 H6         -7.2731   -1.4211    1.8809 H         1 <0>         0.0000
     26 H7          0.7144   -2.2890    0.8404 H         1 <0>         0.0000
     27 H8         -6.5967   -3.7548   -1.6647 H         1 <0>         0.0000
     28 H9         -1.2154   -5.1702   -2.3609 H         1 <0>         0.0000
     29 H10        -2.5664   -6.3009   -2.1120 H         1 <0>         0.0000
     30 H11        -1.9442   -6.6294    0.2386 H         1 <0>         0.0000
     31 H12        -0.5065   -6.9376   -0.7603 H         1 <0>         0.0000
@<TRIPOS>BOND
     1    1    2 ar
     2    1    5 ar
     3    1   20 1
     4    2    7 ar
     5    2   21 1
     6    3    4 ar
     7    3    6 ar
     8    3   22 1
     9    4    9 ar
    10    4   23 1
    11    5   10 ar
    12    5   24 1
    13    6   11 ar
    14    6   25 1
    15    7   12 ar
    16    7   26 1
    17    8    9 ar
    18    8   11 ar
    19    8   27 1
    20    9   13 1
    21   10   12 ar
    22   10   16 1
    23   11   18 1
    24   12   19 1
    25   13   16 am
    26   13   17 2
    27   14   15 1
    28   14   16 1
    29   14   28 1
    30   14   29 1
    31   15   19 1
    32   15   30 1
    33   15   31 1
