@<TRIPOS>MOLECULE
*****
   24    25     0     0     0
SMALL
NO_CHARGES

@<TRIPOS>ATOM
      1 C1          2.0718   -0.4351   -0.3646 C.ar      1 <0>         0.0000
      2 C2          0.7272   -0.5461    0.0013 C.ar      1 <0>         0.0000
      3 C3          3.0314   -1.1564    0.3383 C.ar      1 <0>         0.0000
      4 C4          0.3644   -1.3767    1.0633 C.ar      1 <0>         0.0000
      5 C5          2.6993   -2.0059    1.4177 C.ar      1 <0>         0.0000
      6 C6          1.3321   -2.1001    1.7661 C.ar      1 <0>         0.0000
      7 C7          6.0745   -5.3186    5.2793 C.2       1 <0>         0.0000
      8 C8          4.9260   -4.6438    4.7373 C.2       1 <0>         0.0000
      9 C9          3.8276   -2.6901    2.0547 C.2       1 <0>         0.0000
     10 N1          5.7832   -5.7461    6.4791 N.2       1 <0>         0.0000
     11 N2          3.9508   -4.6752    5.6099 N.2       1 <0>         0.0000
     12 N3          3.7353   -3.5093    3.0399 N.2       1 <0>         0.0000
     13 N4          7.3248   -5.4184    4.6639 N.pl3     1 <0>         0.0000
     14 N5          4.8960   -4.0858    3.4701 N.pl3     1 <0>         0.0000
     15 O1          4.4735   -5.3573    6.7019 O.3       1 <0>         0.0000
     16 Br1         0.6926   -3.1909    3.1986 Br        1 <0>         0.0000
     17 H1          2.3689    0.2073   -1.1885 H         1 <0>         0.0000
     18 H2         -0.0394    0.0090   -0.5323 H         1 <0>         0.0000
     19 H3          4.0778   -1.0697    0.0542 H         1 <0>         0.0000
     20 H4         -0.6769   -1.4668    1.3543 H         1 <0>         0.0000
     21 H5          4.8090   -2.4517    1.6180 H         1 <0>         0.0000
     22 H6          7.2685   -5.8728    3.7550 H         1 <0>         0.0000
     23 H7          7.9887   -5.9134    5.2540 H         1 <0>         0.0000
     24 H8          5.7844   -3.6817    3.1622 H         1 <0>         0.0000
@<TRIPOS>BOND
     1    1    2 ar
     2    1    3 ar
     3    1   17 1
     4    2    4 ar
     5    2   18 1
     6    3    5 ar
     7    3   19 1
     8    4    6 ar
     9    4   20 1
    10    5    6 ar
    11    5    9 1
    12    6   16 1
    13    7    8 1
    14    7   10 2
    15    7   13 1
    16    8   11 2
    17    8   14 1
    18    9   12 2
    19    9   21 1
    20   10   15 1
    21   11   15 1
    22   12   14 1
    23   13   22 1
    24   13   23 1
    25   14   24 1
