@<TRIPOS>MOLECULE
*****
   19    20     0     0     0
SMALL
NO_CHARGES

@<TRIPOS>ATOM
      1 C1         -2.1835   -1.1684   -0.4039 C.1       1 <0>         0.0000
      2 C2          1.4158   -0.0382    1.6315 C.ar      1 <0>         0.0000
      3 C3          0.2497   -0.3893    0.9460 C.ar      1 <0>         0.0000
      4 C4          1.6779   -0.5954    2.8826 C.ar      1 <0>         0.0000
      5 C5         -0.6260   -1.2997    1.5465 C.ar      1 <0>         0.0000
      6 C6          0.7278   -1.4934    3.3793 C.ar      1 <0>         0.0000
      7 C7         -2.3888   -3.1769    1.1314 C.3       1 <0>         0.0000
      8 C8         -3.1128   -2.0496    1.7854 C.3       1 <0>         0.0000
      9 C9         -1.9007   -1.7388    0.8923 C.3       1 <0>         0.0000
     10 N1         -2.4125   -0.7090   -1.4493 N.1       1 <0>         0.0000
     11 N2         -0.3782   -1.8408    2.7538 N.ar      1 <0>         0.0000
     12 Br1         1.0361   -2.2957    5.1043 Br        1 <0>         0.0000
     13 H1          2.1173    0.6664    1.1931 H         1 <0>         0.0000
     14 H2          0.0258    0.0318   -0.0282 H         1 <0>         0.0000
     15 H3          2.5692   -0.3514    3.4487 H         1 <0>         0.0000
     16 H4         -1.7278   -3.7774    1.7468 H         1 <0>         0.0000
     17 H5         -2.8492   -3.6763    0.2857 H         1 <0>         0.0000
     18 H6         -4.0831   -1.7551    1.4003 H         1 <0>         0.0000
     19 H7         -2.9424   -1.8863    2.8440 H         1 <0>         0.0000
@<TRIPOS>BOND
     1    1    9 1
     2    1   10 3
     3    2    3 ar
     4    2    4 ar
     5    2   13 1
     6    3    5 ar
     7    3   14 1
     8    4    6 ar
     9    4   15 1
    10    5    9 1
    11    5   11 ar
    12    6   11 ar
    13    6   12 1
    14    7    8 1
    15    7    9 1
    16    7   16 1
    17    7   17 1
    18    8    9 1
    19    8   18 1
    20    8   19 1
