@<TRIPOS>MOLECULE
*****
   36    39     0     0     0
SMALL
NO_CHARGES

@<TRIPOS>ATOM
      1 C1          2.6367   -7.8026    3.3671 C.2       1 <0>         0.0000
      2 C2          4.0751   -6.2786    3.3887 C.2       1 <0>         0.0000
      3 C3          3.2250   -3.8792    1.6501 C.2       1 <0>         0.0000
      4 C4          3.0005   -3.0821    3.8097 C.2       1 <0>         0.0000
      5 C5          0.4747   -3.5556   -0.1054 C.3       1 <0>         0.0000
      6 C6          0.8465   -2.0827   -0.3474 C.3       1 <0>         0.0000
      7 C7          0.1421   -8.0843    3.8927 C.3       1 <0>         0.0000
      8 C8          0.2934   -8.2097    2.4065 C.3       1 <0>         0.0000
      9 C9          0.7253   -3.7264    1.3967 C.3       1 <0>         0.0000
     10 C10         2.1075   -1.8679    0.5168 C.3       1 <0>         0.0000
     11 C11         1.4387   -8.6430    3.3193 C.3       1 <0>         0.0000
     12 C12         2.0304   -2.9198    1.6639 C.3       1 <0>         0.0000
     13 C13         4.6834   -4.8989    3.4010 C.3       1 <0>         0.0000
     14 N1          2.7153   -6.4954    3.3472 N.2       1 <0>         0.0000
     15 N2          4.8080   -7.3633    3.4336 N.2       1 <0>         0.0000
     16 N3          2.1197   -2.3809    3.0213 N.am      1 <0>         0.0000
     17 N4          3.7355   -3.9116    2.9316 N.am      1 <0>         0.0000
     18 O1          3.6374   -4.5206    0.6988 O.2       1 <0>         0.0000
     19 O2          3.1654   -3.0122    5.0152 O.2       1 <0>         0.0000
     20 O3          3.8411   -8.4001    3.4248 O.3       1 <0>         0.0000
     21 H1         -0.5548   -3.7936   -0.3901 H         1 <0>         0.0000
     22 H2          1.1456   -4.2119   -0.6690 H         1 <0>         0.0000
     23 H3          1.0203   -1.8516   -1.4019 H         1 <0>         0.0000
     24 H4          0.0320   -1.4352   -0.0001 H         1 <0>         0.0000
     25 H5          0.2014   -7.0918    4.3270 H         1 <0>         0.0000
     26 H6         -0.5008   -8.7870    4.4133 H         1 <0>         0.0000
     27 H7         -0.2398   -9.0015    1.8897 H         1 <0>         0.0000
     28 H8          0.4554   -7.3040    1.8316 H         1 <0>         0.0000
     29 H9         -0.0862   -3.2579    1.9680 H         1 <0>         0.0000
     30 H10         0.8121   -4.7628    1.7323 H         1 <0>         0.0000
     31 H11         3.0068   -2.0520   -0.0766 H         1 <0>         0.0000
     32 H12         2.1829   -0.8599    0.9313 H         1 <0>         0.0000
     33 H13         1.6298   -9.7054    3.4209 H         1 <0>         0.0000
     34 H14         4.9565   -4.6202    4.4216 H         1 <0>         0.0000
     35 H15         5.5795   -4.8875    2.7775 H         1 <0>         0.0000
     36 H16         1.3267   -1.9493    3.4787 H         1 <0>         0.0000
@<TRIPOS>BOND
     1    1   11 1
     2    1   14 2
     3    1   20 1
     4    2   13 1
     5    2   14 1
     6    2   15 2
     7    3   12 1
     8    3   17 am
     9    3   18 2
    10    4   16 am
    11    4   17 am
    12    4   19 2
    13    5    6 1
    14    5    9 1
    15    5   21 1
    16    5   22 1
    17    6   10 1
    18    6   23 1
    19    6   24 1
    20    7    8 1
    21    7   11 1
    22    7   25 1
    23    7   26 1
    24    8   11 1
    25    8   27 1
    26    8   28 1
    27    9   12 1
    28    9   29 1
    29    9   30 1
    30   10   12 1
    31   10   31 1
    32   10   32 1
    33   11   33 1
    34   12   16 1
    35   13   17 1
    36   13   34 1
    37   13   35 1
    38   15   20 1
    39   16   36 1
