@<TRIPOS>MOLECULE
*****
   48    51     0     0     0
SMALL
NO_CHARGES

@<TRIPOS>ATOM
      1 C1         -6.2995    0.6570    3.5555 C.2       1 <0>         0.0000
      2 C2         -5.6830    1.6260    2.8115 C.2       1 <0>         0.0000
      3 C3         -4.3321    0.6121    4.5670 C.2       1 <0>         0.0000
      4 C4          0.3960   -0.0472    2.5562 C.2       1 <0>         0.0000
      5 C5          2.0092   -2.1086    3.8051 C.3       1 <0>         0.0000
      6 C6          0.5280   -2.0476    4.1567 C.3       1 <0>         0.0000
      7 C7          0.3892    0.3522    5.0429 C.3       1 <0>         0.0000
      8 C8          0.8061   -0.2283   -0.4941 C.3       1 <0>         0.0000
      9 C9          2.3503    1.4180    0.6161 C.3       1 <0>         0.0000
     10 C10         2.2005   -1.7846    2.3311 C.3       1 <0>         0.0000
     11 C11        -0.8390    0.4172    5.9508 C.3       1 <0>         0.0000
     12 C12        -1.5870   -0.6484    4.0144 C.3       1 <0>         0.0000
     13 C13         1.3398    0.2905   -1.8330 C.3       1 <0>         0.0000
     14 C14         2.7895    1.8365   -0.7903 C.3       1 <0>         0.0000
     15 C15         1.8813   -0.0433    0.5872 C.3       1 <0>         0.0000
     16 C16        -0.0352   -0.6398    3.9104 C.3       1 <0>         0.0000
     17 C17        -3.2595    0.2609    5.5619 C.3       1 <0>         0.0000
     18 N1         -5.5265    0.0852    4.5460 N.2       1 <0>         0.0000
     19 N2          1.4928   -0.5662    1.9154 N.am      1 <0>         0.0000
     20 N3         -1.9343    0.3947    4.9869 N.3       1 <0>         0.0000
     21 O1         -0.2262    0.9135    2.0943 O.2       1 <0>         0.0000
     22 O2          1.7544    1.6523   -1.7539 O.3       1 <0>         0.0000
     23 S1         -4.0512    1.8488    3.3557 S.3       1 <0>         0.0000
     24 H1         -7.3194    0.3149    3.4143 H         1 <0>         0.0000
     25 H2         -6.0839    2.1906    1.9796 H         1 <0>         0.0000
     26 H3          2.5756   -1.3956    4.4145 H         1 <0>         0.0000
     27 H4          2.4226   -3.1030    4.0044 H         1 <0>         0.0000
     28 H5         -0.0188   -2.7752    3.5423 H         1 <0>         0.0000
     29 H6          0.3569   -2.3305    5.2018 H         1 <0>         0.0000
     30 H7          0.5753    1.3419    4.6208 H         1 <0>         0.0000
     31 H8          1.2884    0.0217    5.5694 H         1 <0>         0.0000
     32 H9         -0.0915    0.3257   -0.2145 H         1 <0>         0.0000
     33 H10         0.5420   -1.2890   -0.5902 H         1 <0>         0.0000
     34 H11         3.1896    1.5312    1.3135 H         1 <0>         0.0000
     35 H12         1.5331    2.0564    0.9551 H         1 <0>         0.0000
     36 H13         3.2657   -1.6453    2.1175 H         1 <0>         0.0000
     37 H14         1.8592   -2.6318    1.7164 H         1 <0>         0.0000
     38 H15        -0.8652   -0.4514    6.6384 H         1 <0>         0.0000
     39 H16        -0.8750    1.3274    6.5582 H         1 <0>         0.0000
     40 H17        -2.0680   -0.4524    3.0552 H         1 <0>         0.0000
     41 H18        -1.9184   -1.6402    4.3724 H         1 <0>         0.0000
     42 H19         2.1858   -0.3325   -2.1728 H         1 <0>         0.0000
     43 H20         0.5643    0.2547   -2.6025 H         1 <0>         0.0000
     44 H21         3.0438    2.8992   -0.8194 H         1 <0>         0.0000
     45 H22         3.6826    1.2640   -1.0967 H         1 <0>         0.0000
     46 H23         2.7437   -0.6519    0.2887 H         1 <0>         0.0000
     47 H24        -3.3333    0.9487    6.4134 H         1 <0>         0.0000
     48 H25        -3.4733   -0.7534    5.9438 H         1 <0>         0.0000
@<TRIPOS>BOND
     1    1    2 2
     2    1   18 1
     3    1   24 1
     4    2   23 1
     5    2   25 1
     6    3   17 1
     7    3   18 2
     8    3   23 1
     9    4   16 1
    10    4   19 am
    11    4   21 2
    12    5    6 1
    13    5   10 1
    14    5   26 1
    15    5   27 1
    16    6   16 1
    17    6   28 1
    18    6   29 1
    19    7   11 1
    20    7   16 1
    21    7   30 1
    22    7   31 1
    23    8   13 1
    24    8   15 1
    25    8   32 1
    26    8   33 1
    27    9   14 1
    28    9   15 1
    29    9   34 1
    30    9   35 1
    31   10   19 1
    32   10   36 1
    33   10   37 1
    34   11   20 1
    35   11   38 1
    36   11   39 1
    37   12   16 1
    38   12   20 1
    39   12   40 1
    40   12   41 1
    41   13   22 1
    42   13   42 1
    43   13   43 1
    44   14   22 1
    45   14   44 1
    46   14   45 1
    47   15   19 1
    48   15   46 1
    49   17   20 1
    50   17   47 1
    51   17   48 1
