@<TRIPOS>MOLECULE
*****
   28    29     0     0     0
SMALL
NO_CHARGES

@<TRIPOS>ATOM
      1 C1          0.6248   -1.2612    4.0117 C.ar      1 <0>         0.0000
      2 C2          2.2725    0.3173    3.9656 C.ar      1 <0>         0.0000
      3 C3          1.7022   -0.8036    1.8598 C.ar      1 <0>         0.0000
      4 C4          0.7745   -1.5247    2.6475 C.ar      1 <0>         0.0000
      5 C5          2.4605    0.1423    2.5964 C.ar      1 <0>         0.0000
      6 C6          3.1348   -1.4766   -0.0425 C.3       1 <0>         0.0000
      7 C7          0.7542   -1.1054   -0.4341 C.3       1 <0>         0.0000
      8 C8          3.4500   -0.8299   -1.3877 C.3       1 <0>         0.0000
      9 C9          1.1085   -0.4259   -1.7567 C.3       1 <0>         0.0000
     10 C10         2.6366   -0.4408   -3.6264 C.3       1 <0>         0.0000
     11 N1          1.3596   -0.3618    4.6704 N.ar      1 <0>         0.0000
     12 N2          1.8767   -0.9436    0.4885 N.pl3     1 <0>         0.0000
     13 N3          2.3313   -1.0029   -2.3163 N.3       1 <0>         0.0000
     14 Cl1        -0.1713   -2.8425    1.9764 Cl        1 <0>         0.0000
     15 Cl2         3.6176    1.1794    1.7852 Cl        1 <0>         0.0000
     16 H1         -0.1044   -1.8261    4.5883 H         1 <0>         0.0000
     17 H2          2.8673    1.0536    4.5012 H         1 <0>         0.0000
     18 H3          3.0469   -2.5667   -0.1711 H         1 <0>         0.0000
     19 H4          3.9445   -1.2840    0.6621 H         1 <0>         0.0000
     20 H5         -0.1345   -0.6379   -0.0046 H         1 <0>         0.0000
     21 H6          0.5315   -2.1626   -0.6278 H         1 <0>         0.0000
     22 H7          3.6819    0.2390   -1.2250 H         1 <0>         0.0000
     23 H8          4.3379   -1.3074   -1.8168 H         1 <0>         0.0000
     24 H9          0.2896   -0.5865   -2.4667 H         1 <0>         0.0000
     25 H10         1.2089    0.6640   -1.5919 H         1 <0>         0.0000
     26 H11         3.5283   -0.9257   -4.0368 H         1 <0>         0.0000
     27 H12         2.8207    0.6499   -3.5965 H         1 <0>         0.0000
     28 H13         1.8035   -0.6278   -4.3116 H         1 <0>         0.0000
@<TRIPOS>BOND
     1    1    4 ar
     2    1   11 ar
     3    1   16 1
     4    2    5 ar
     5    2   11 ar
     6    2   17 1
     7    3    4 ar
     8    3    5 ar
     9    3   12 1
    10    4   14 1
    11    5   15 1
    12    6    8 1
    13    6   12 1
    14    6   18 1
    15    6   19 1
    16    7    9 1
    17    7   12 1
    18    7   20 1
    19    7   21 1
    20    8   13 1
    21    8   22 1
    22    8   23 1
    23    9   13 1
    24    9   24 1
    25    9   25 1
    26   10   13 1
    27   10   26 1
    28   10   27 1
    29   10   28 1
