@<TRIPOS>MOLECULE
*****
   29    30     0     0     0
SMALL
NO_CHARGES

@<TRIPOS>ATOM
      1 C1          3.2023   -1.9194    4.6545 C.ar      1 <0>         0.0000
      2 C2          3.8341    0.6859    4.5191 C.ar      1 <0>         0.0000
      3 C3          2.5522   -1.0531    3.7702 C.ar      1 <0>         0.0000
      4 C4          4.4728   -0.2023    5.4023 C.ar      1 <0>         0.0000
      5 C5          1.4671   -1.5799    2.8660 C.2       1 <0>         0.0000
      6 C6         -1.2716    0.1457    1.0834 C.3       1 <0>         0.0000
      7 C7          0.1551   -0.5039   -0.3341 C.3       1 <0>         0.0000
      8 C8         -0.1528   -0.9267    1.1293 C.3       1 <0>         0.0000
      9 C9         -1.3931    1.2768   -1.1768 C.3       1 <0>         0.0000
     10 C10        -1.9179    2.6686   -0.8609 C.3       1 <0>         0.0000
     11 N1          2.8746    0.2501    3.7076 N.ar      1 <0>         0.0000
     12 N2          4.1692   -1.4866    5.4760 N.ar      1 <0>         0.0000
     13 N3         -0.5978    0.7506   -0.0941 N.3       1 <0>         0.0000
     14 N4          0.9009   -0.6341    2.0721 N.am      1 <0>         0.0000
     15 O1          1.1501   -2.7711    2.8826 O.2       1 <0>         0.0000
     16 F1         -2.7036    3.1182   -1.8727 F         1 <0>         0.0000
     17 F2         -2.6746    2.6750    0.2679 F         1 <0>         0.0000
     18 F3         -0.9279    3.5689   -0.6855 F         1 <0>         0.0000
     19 Cl1         5.7267    0.4070    6.4565 Cl        1 <0>         0.0000
     20 H1          2.9325   -2.9702    4.6932 H         1 <0>         0.0000
     21 H2          4.1057    1.7374    4.4793 H         1 <0>         0.0000
     22 H3         -2.2526   -0.2927    0.8435 H         1 <0>         0.0000
     23 H4         -1.3712    0.8072    1.9481 H         1 <0>         0.0000
     24 H5          1.2060   -0.3650   -0.6073 H         1 <0>         0.0000
     25 H6         -0.3314   -1.1764   -1.0581 H         1 <0>         0.0000
     26 H7         -0.4592   -1.9590    1.2837 H         1 <0>         0.0000
     27 H8         -0.7714    1.3685   -2.0722 H         1 <0>         0.0000
     28 H9         -2.2665    0.6497   -1.4297 H         1 <0>         0.0000
     29 H10         1.2665    0.3107    2.1434 H         1 <0>         0.0000
@<TRIPOS>BOND
     1    1    3 ar
     2    1   12 ar
     3    1   20 1
     4    2    4 ar
     5    2   11 ar
     6    2   21 1
     7    3    5 1
     8    3   11 ar
     9    4   12 ar
    10    4   19 1
    11    5   14 am
    12    5   15 2
    13    6    8 1
    14    6   13 1
    15    6   22 1
    16    6   23 1
    17    7    8 1
    18    7   13 1
    19    7   24 1
    20    7   25 1
    21    8   14 1
    22    8   26 1
    23    9   10 1
    24    9   13 1
    25    9   27 1
    26    9   28 1
    27   10   16 1
    28   10   17 1
    29   10   18 1
    30   14   29 1
