@<TRIPOS>MOLECULE
*****
   29    30     0     0     0
SMALL
NO_CHARGES

@<TRIPOS>ATOM
      1 C1         -1.6630    1.0060   -4.6760 C.ar      1 <0>         0.0000
      2 C2         -1.6572    0.6240   -3.3384 C.ar      1 <0>         0.0000
      3 C3         -0.5064    0.9778   -5.4660 C.ar      1 <0>         0.0000
      4 C4          0.7196    0.1657   -3.5317 C.ar      1 <0>         0.0000
      5 C5         -0.4459    0.1964   -2.7555 C.ar      1 <0>         0.0000
      6 C6          0.6899    0.5526   -4.8790 C.ar      1 <0>         0.0000
      7 C7         -1.3050    0.0494   -0.4170 C.2       1 <0>         0.0000
      8 C8          0.3544   -1.4167    0.4991 C.3       1 <0>         0.0000
      9 C9          0.8182   -0.8830   -0.8639 C.3       1 <0>         0.0000
     10 C10        -0.7249   -0.4170    0.9208 C.3       1 <0>         0.0000
     11 C11         1.9315    0.8679   -6.8994 C.3       1 <0>         0.0000
     12 N1         -0.3784   -0.2189   -1.4048 N.am      1 <0>         0.0000
     13 N2         -1.7826   -0.9664    1.7619 N.3       1 <0>         0.0000
     14 O1         -2.4015    0.5837   -0.5403 O.2       1 <0>         0.0000
     15 O2          1.8947    0.4793   -5.5301 O.3       1 <0>         0.0000
     16 H1         -2.5980    1.3333   -5.1234 H         1 <0>         0.0000
     17 H2         -2.5602    0.6581   -2.7466 H         1 <0>         0.0000
     18 H3         -0.5541    1.2806   -6.5054 H         1 <0>         0.0000
     19 H4          1.6748   -0.1418   -3.1232 H         1 <0>         0.0000
     20 H5         -0.1142   -2.3982    0.3856 H         1 <0>         0.0000
     21 H6          1.1801   -1.5028    1.2100 H         1 <0>         0.0000
     22 H7          1.6412   -0.1632   -0.7642 H         1 <0>         0.0000
     23 H8          1.1427   -1.6798   -1.5378 H         1 <0>         0.0000
     24 H9         -0.2451    0.4797    1.3542 H         1 <0>         0.0000
     25 H10         2.9669    0.7400   -7.2183 H         1 <0>         0.0000
     26 H11         1.6397    1.9179   -7.0255 H         1 <0>         0.0000
     27 H12         1.2814    0.2324   -7.5134 H         1 <0>         0.0000
     28 H13        -2.6257   -0.4108    1.6110 H         1 <0>         0.0000
     29 H14        -1.5345   -0.8823    2.7447 H         1 <0>         0.0000
@<TRIPOS>BOND
     1    1    2 ar
     2    1    3 ar
     3    1   16 1
     4    2    5 ar
     5    2   17 1
     6    3    6 ar
     7    3   18 1
     8    4    5 ar
     9    4    6 ar
    10    4   19 1
    11    5   12 1
    12    6   15 1
    13    7   10 1
    14    7   12 am
    15    7   14 2
    16    8    9 1
    17    8   10 1
    18    8   20 1
    19    8   21 1
    20    9   12 1
    21    9   22 1
    22    9   23 1
    23   10   13 1
    24   10   24 1
    25   11   15 1
    26   11   25 1
    27   11   26 1
    28   11   27 1
    29   13   28 1
    30   13   29 1
