@<TRIPOS>MOLECULE
*****
   36    38     0     0     0
SMALL
NO_CHARGES

@<TRIPOS>ATOM
      1 C1          5.0671   -4.1992   -4.6838 C.1       1 <0>         0.0000
      2 C2          4.1984   -1.9817   -5.3056 C.ar      1 <0>         0.0000
      3 C3          4.0576   -2.7184   -2.9925 C.ar      1 <0>         0.0000
      4 C4          3.5849   -0.7825   -4.9478 C.ar      1 <0>         0.0000
      5 C5          3.4454   -1.5156   -2.6516 C.ar      1 <0>         0.0000
      6 C6          4.4914    2.2644   -0.6572 C.2       1 <0>         0.0000
      7 C7          4.2643    2.0068   -1.9904 C.2       1 <0>         0.0000
      8 C8          2.6200    1.2124   -0.7488 C.2       1 <0>         0.0000
      9 C9          4.4347   -2.9599   -4.3258 C.ar      1 <0>         0.0000
     10 C10         3.1948   -0.5380   -3.6249 C.ar      1 <0>         0.0000
     11 C11         0.2060    1.3086   -5.3691 C.3       1 <0>         0.0000
     12 C12         0.0988    2.5208   -4.3986 C.3       1 <0>         0.0000
     13 C13         0.3207    0.0641   -4.4615 C.3       1 <0>         0.0000
     14 C14         0.2321    1.9360   -2.9696 C.3       1 <0>         0.0000
     15 C15         0.9509    0.5823   -3.1536 C.3       1 <0>         0.0000
     16 C16         2.4849    0.7579   -3.2680 C.3       1 <0>         0.0000
     17 N1          5.5782   -5.2051   -4.9762 N.1       1 <0>         0.0000
     18 N2          3.4577    1.7660    0.1093 N.2       1 <0>         0.0000
     19 N3          3.0529    1.3388   -2.0465 N.pl3     1 <0>         0.0000
     20 H1          4.4983   -2.1648   -6.3328 H         1 <0>         0.0000
     21 H2          4.2528   -3.4714   -2.2351 H         1 <0>         0.0000
     22 H3          3.4073   -0.0271   -5.7096 H         1 <0>         0.0000
     23 H4          3.1770   -1.3284   -1.6158 H         1 <0>         0.0000
     24 H5          5.3305    2.7816   -0.2100 H         1 <0>         0.0000
     25 H6          4.8355    2.2198   -2.8831 H         1 <0>         0.0000
     26 H7          1.6857    0.7362   -0.4873 H         1 <0>         0.0000
     27 H8         -0.6533    1.2365   -6.0412 H         1 <0>         0.0000
     28 H9          1.0909    1.4024   -6.0079 H         1 <0>         0.0000
     29 H10         0.8937    3.2470   -4.5949 H         1 <0>         0.0000
     30 H11        -0.8464    3.0574   -4.5172 H         1 <0>         0.0000
     31 H12        -0.6790   -0.3156   -4.2235 H         1 <0>         0.0000
     32 H13         0.8721   -0.7589   -4.9216 H         1 <0>         0.0000
     33 H14         0.7497    2.6111   -2.2843 H         1 <0>         0.0000
     34 H15        -0.7599    1.7452   -2.5461 H         1 <0>         0.0000
     35 H16         0.7446   -0.1109   -2.3319 H         1 <0>         0.0000
     36 H17         2.6826    1.4797   -4.0664 H         1 <0>         0.0000
@<TRIPOS>BOND
     1    1    9 1
     2    1   17 3
     3    2    4 ar
     4    2    9 ar
     5    2   20 1
     6    3    5 ar
     7    3    9 ar
     8    3   21 1
     9    4   10 ar
    10    4   22 1
    11    5   10 ar
    12    5   23 1
    13    6    7 2
    14    6   18 1
    15    6   24 1
    16    7   19 1
    17    7   25 1
    18    8   18 2
    19    8   19 1
    20    8   26 1
    21   10   16 1
    22   11   12 1
    23   11   13 1
    24   11   27 1
    25   11   28 1
    26   12   14 1
    27   12   29 1
    28   12   30 1
    29   13   15 1
    30   13   31 1
    31   13   32 1
    32   14   15 1
    33   14   33 1
    34   14   34 1
    35   15   16 1
    36   15   35 1
    37   16   19 1
    38   16   36 1
