@<TRIPOS>MOLECULE
*****
   32    33     0     0     0
SMALL
NO_CHARGES

@<TRIPOS>ATOM
      1 C1          0.4895    3.0381   -0.2726 C.ar      1 <0>         0.0000
      2 C2          2.1164    1.6586    0.8228 C.ar      1 <0>         0.0000
      3 C3          1.3898    4.1062   -0.2793 C.ar      1 <0>         0.0000
      4 C4          3.0326    2.7080    0.8157 C.ar      1 <0>         0.0000
      5 C5         -0.0151    4.4762    2.9427 C.2       1 <0>         0.0000
      6 C6          0.0030    3.1159    3.1625 C.2       1 <0>         0.0000
      7 C7         -1.7815    3.7012    2.0059 C.2       1 <0>         0.0000
      8 C8          0.8244    1.8040    0.2904 C.ar      1 <0>         0.0000
      9 C9          2.6630    3.9444    0.2726 C.ar      1 <0>         0.0000
     10 C10         0.3342   -0.5760   -0.4094 C.3       1 <0>         0.0000
     11 C11        -0.5684    0.2863    1.7928 C.3       1 <0>         0.0000
     12 C12        -1.5638    1.2319    2.4779 C.3       1 <0>         0.0000
     13 C13        -0.1809    0.6639    0.3450 C.3       1 <0>         0.0000
     14 N1         -1.1359    4.8334    2.2209 N.2       1 <0>         0.0000
     15 N2         -1.1371    2.6241    2.5560 N.pl3     1 <0>         0.0000
     16 O1          3.5899    4.9612    0.3160 O.3       1 <0>         0.0000
     17 H1         -0.5035    3.1890   -0.6880 H         1 <0>         0.0000
     18 H2          2.4183    0.7105    1.2626 H         1 <0>         0.0000
     19 H3          1.0853    5.0676   -0.6890 H         1 <0>         0.0000
     20 H4          4.0275    2.5924    1.2360 H         1 <0>         0.0000
     21 H5          0.7170    5.2094    3.2554 H         1 <0>         0.0000
     22 H6          0.7153    2.4715    3.6562 H         1 <0>         0.0000
     23 H7         -2.7159    3.5944    1.4681 H         1 <0>         0.0000
     24 H8          1.2154   -1.0026    0.0818 H         1 <0>         0.0000
     25 H9          0.6196   -0.3148   -1.4329 H         1 <0>         0.0000
     26 H10        -0.4340   -1.3565   -0.4529 H         1 <0>         0.0000
     27 H11        -1.0400   -0.7046    1.7938 H         1 <0>         0.0000
     28 H12         0.3367    0.1919    2.4032 H         1 <0>         0.0000
     29 H13        -1.7751    0.8665    3.4897 H         1 <0>         0.0000
     30 H14        -2.5109    1.2245    1.9298 H         1 <0>         0.0000
     31 H15        -1.0922    1.0031   -0.1647 H         1 <0>         0.0000
     32 H16         3.1926    5.7619   -0.0611 H         1 <0>         0.0000
@<TRIPOS>BOND
     1    1    3 ar
     2    1    8 ar
     3    1   17 1
     4    2    4 ar
     5    2    8 ar
     6    2   18 1
     7    3    9 ar
     8    3   19 1
     9    4    9 ar
    10    4   20 1
    11    5    6 2
    12    5   14 1
    13    5   21 1
    14    6   15 1
    15    6   22 1
    16    7   14 2
    17    7   15 1
    18    7   23 1
    19    8   13 1
    20    9   16 1
    21   10   13 1
    22   10   24 1
    23   10   25 1
    24   10   26 1
    25   11   12 1
    26   11   13 1
    27   11   27 1
    28   11   28 1
    29   12   15 1
    30   12   29 1
    31   12   30 1
    32   13   31 1
    33   16   32 1
