@<TRIPOS>MOLECULE
*****
   49    51     0     0     0
SMALL
NO_CHARGES

@<TRIPOS>ATOM
      1 C1         -2.3092    2.0451    2.3506 C.ar      1 <0>         0.0000
      2 C2          4.0290   -0.2689    0.3661 C.ar      1 <0>         0.0000
      3 C3         -1.3182    1.0797    2.1493 C.ar      1 <0>         0.0000
      4 C4          2.7453   -0.3906    0.9088 C.ar      1 <0>         0.0000
      5 C5         -2.8551    1.9592    0.0088 C.ar      1 <0>         0.0000
      6 C6          1.8339   -0.3327   -1.3459 C.ar      1 <0>         0.0000
      7 C7         -1.8728    0.9984   -0.2235 C.ar      1 <0>         0.0000
      8 C8         -3.1006    2.4891    1.2873 C.ar      1 <0>         0.0000
      9 C9          4.2460   -0.1854   -1.0106 C.ar      1 <0>         0.0000
     10 C10         3.1260   -0.2253   -1.8719 C.ar      1 <0>         0.0000
     11 C11         1.6552   -0.4062    0.0488 C.ar      1 <0>         0.0000
     12 C12        -1.1019    0.5597    0.8752 C.ar      1 <0>         0.0000
     13 C13         0.6129   -0.3283   -2.2191 C.2       1 <0>         0.0000
     14 C14        -1.5900    0.5261   -1.6315 C.3       1 <0>         0.0000
     15 C15        -4.1980    3.5043    1.4958 C.3       1 <0>         0.0000
     16 C16         5.8741   -2.5459   -1.8451 C.3       1 <0>         0.0000
     17 C17         7.6035   -0.9851   -2.8358 C.3       1 <0>         0.0000
     18 C18         3.0562    1.0435   -3.8887 C.3       1 <0>         0.0000
     19 C19         5.6648   -0.0435   -1.5368 C.3       1 <0>         0.0000
     20 C20         6.1229   -1.1700   -2.4778 C.3       1 <0>         0.0000
     21 O1          0.3355   -1.0760   -3.1211 O.2       1 <0>         0.0000
     22 O2          0.3358   -1.2224    2.1719 O.2       1 <0>         0.0000
     23 O3         -0.5705   -1.8204   -0.1475 O.2       1 <0>         0.0000
     24 O4         -0.1648    0.7069   -1.7797 O.3       1 <0>         0.0000
     25 O5          5.8247    1.2080   -2.2324 O.3       1 <0>         0.0000
     26 O6          3.3034   -0.2099   -3.2292 O.3       1 <0>         0.0000
     27 S1          0.0392   -0.8522    0.7787 S.o2      1 <0>         0.0000
     28 H1         -2.4687    2.4450    3.3488 H         1 <0>         0.0000
     29 H2          4.8859   -0.2565    1.0357 H         1 <0>         0.0000
     30 H3         -0.7305    0.7066    2.9811 H         1 <0>         0.0000
     31 H4          2.5922   -0.5079    1.9758 H         1 <0>         0.0000
     32 H5         -3.4404    2.3202   -0.8350 H         1 <0>         0.0000
     33 H6         -1.8382   -0.5255   -1.7864 H         1 <0>         0.0000
     34 H7         -2.1124    1.1425   -2.3662 H         1 <0>         0.0000
     35 H8         -4.2140    4.2451    0.6903 H         1 <0>         0.0000
     36 H9         -5.1789    3.0148    1.5085 H         1 <0>         0.0000
     37 H10        -4.0785    4.0336    2.4447 H         1 <0>         0.0000
     38 H11         6.3991   -2.6434   -0.8862 H         1 <0>         0.0000
     39 H12         4.8111   -2.7319   -1.6676 H         1 <0>         0.0000
     40 H13         6.2446   -3.3369   -2.5048 H         1 <0>         0.0000
     41 H14         8.2376   -1.0796   -1.9447 H         1 <0>         0.0000
     42 H15         7.9213   -1.7517   -3.5506 H         1 <0>         0.0000
     43 H16         7.7846   -0.0037   -3.2806 H         1 <0>         0.0000
     44 H17         3.0985    0.8318   -4.9579 H         1 <0>         0.0000
     45 H18         3.8324    1.7646   -3.6165 H         1 <0>         0.0000
     46 H19         2.0639    1.4344   -3.6378 H         1 <0>         0.0000
     47 H20         6.3344   -0.0540   -0.6630 H         1 <0>         0.0000
     48 H21         5.5247   -1.0908   -3.3892 H         1 <0>         0.0000
     49 H22         5.6850    1.9207   -1.5890 H         1 <0>         0.0000
@<TRIPOS>BOND
     1    1    3 ar
     2    1    8 ar
     3    1   28 1
     4    2    4 ar
     5    2    9 ar
     6    2   29 1
     7    3   12 ar
     8    3   30 1
     9    4   11 ar
    10    4   31 1
    11    5    7 ar
    12    5    8 ar
    13    5   32 1
    14    6   10 ar
    15    6   11 ar
    16    6   13 1
    17    7   12 ar
    18    7   14 1
    19    8   15 1
    20    9   10 ar
    21    9   19 1
    22   10   26 1
    23   11   27 1
    24   12   27 1
    25   13   21 2
    26   13   24 1
    27   14   24 1
    28   14   33 1
    29   14   34 1
    30   15   35 1
    31   15   36 1
    32   15   37 1
    33   16   20 1
    34   16   38 1
    35   16   39 1
    36   16   40 1
    37   17   20 1
    38   17   41 1
    39   17   42 1
    40   17   43 1
    41   18   26 1
    42   18   44 1
    43   18   45 1
    44   18   46 1
    45   19   20 1
    46   19   25 1
    47   19   47 1
    48   20   48 1
    49   22   27 2
    50   23   27 2
    51   25   49 1
