@<TRIPOS>MOLECULE
*****
   45    47     0     0     0
SMALL
NO_CHARGES

@<TRIPOS>ATOM
      1 C1          1.3477    4.5789    1.8108 C.ar      1 <0>         0.0000
      2 C2          3.2076    3.1426    2.4004 C.ar      1 <0>         0.0000
      3 C3          1.5500    5.3146    2.9835 C.ar      1 <0>         0.0000
      4 C4          3.4185    3.8761    3.5674 C.ar      1 <0>         0.0000
      5 C5         -0.6841    0.5308   -3.6460 C.2       1 <0>         0.0000
      6 C6         -1.9252    1.7988   -2.5165 C.2       1 <0>         0.0000
      7 C7          2.1644    3.4771    1.5253 C.ar      1 <0>         0.0000
      8 C8          2.5737    4.9464    3.8461 C.ar      1 <0>         0.0000
      9 C9         -0.7381    2.3118    2.5176 C.2       1 <0>         0.0000
     10 C10         1.1621    0.5698    2.7447 C.3       1 <0>         0.0000
     11 C11        -0.1301   -0.1738    2.6645 C.3       1 <0>         0.0000
     12 C12         0.0251    1.1693    1.9300 C.3       1 <0>         0.0000
     13 C13        -0.6067    3.6880    5.8798 C.3       1 <0>         0.0000
     14 C14        -1.2705    0.9409   -0.2122 C.3       1 <0>         0.0000
     15 C15        -1.2224    3.5368    4.5018 C.3       1 <0>         0.0000
     16 C16         0.7700    2.4397   -0.1668 C.3       1 <0>         0.0000
     17 C17         0.1387    1.1429    0.3967 C.3       1 <0>         0.0000
     18 N1         -1.5919    1.5376   -3.7762 N.2       1 <0>         0.0000
     19 N2         -0.4455    0.1565   -2.3913 N.2       1 <0>         0.0000
     20 N3         -1.2574    0.9841   -1.6703 N.pl3     1 <0>         0.0000
     21 O1         -1.4826    3.0525    1.8856 O.2       1 <0>         0.0000
     22 O2          0.9631    0.0260    0.0734 O.3       1 <0>         0.0000
     23 O3          2.0565    2.7045    0.3925 O.3       1 <0>         0.0000
     24 O4         -0.5373    2.4399    3.8425 O.3       1 <0>         0.0000
     25 F1          2.7540    5.6508    4.9993 F         1 <0>         0.0000
     26 H1          0.5453    4.8700    1.1438 H         1 <0>         0.0000
     27 H2          3.8363    2.2924    2.1556 H         1 <0>         0.0000
     28 H3          0.9229    6.1682    3.2225 H         1 <0>         0.0000
     29 H4          4.2156    3.6203    4.2588 H         1 <0>         0.0000
     30 H5         -0.1877    0.0592   -4.4841 H         1 <0>         0.0000
     31 H6         -2.6297    2.5478   -2.1780 H         1 <0>         0.0000
     32 H7          1.4134    1.0796    3.6656 H         1 <0>         0.0000
     33 H8          1.9892    0.1907    2.1583 H         1 <0>         0.0000
     34 H9         -0.1667   -1.0517    2.0292 H         1 <0>         0.0000
     35 H10        -0.7818   -0.1792    3.5317 H         1 <0>         0.0000
     36 H11        -0.7160    2.7691    6.4634 H         1 <0>         0.0000
     37 H12         0.4566    3.9303    5.8027 H         1 <0>         0.0000
     38 H13        -1.1070    4.4996    6.4182 H         1 <0>         0.0000
     39 H14        -1.6450   -0.0343    0.1092 H         1 <0>         0.0000
     40 H15        -1.9481    1.7199    0.1326 H         1 <0>         0.0000
     41 H16        -1.0982    4.4366    3.8969 H         1 <0>         0.0000
     42 H17        -2.2900    3.2994    4.5463 H         1 <0>         0.0000
     43 H18         0.9464    2.3039   -1.2360 H         1 <0>         0.0000
     44 H19         0.0860    3.2796   -0.0359 H         1 <0>         0.0000
     45 H20         0.8210   -0.1813   -0.8731 H         1 <0>         0.0000
@<TRIPOS>BOND
     1    1    3 ar
     2    1    7 ar
     3    1   26 1
     4    2    4 ar
     5    2    7 ar
     6    2   27 1
     7    3    8 ar
     8    3   28 1
     9    4    8 ar
    10    4   29 1
    11    5   18 1
    12    5   19 2
    13    5   30 1
    14    6   18 2
    15    6   20 1
    16    6   31 1
    17    7   23 1
    18    8   25 1
    19    9   12 1
    20    9   21 2
    21    9   24 1
    22   10   11 1
    23   10   12 1
    24   10   32 1
    25   10   33 1
    26   11   12 1
    27   11   34 1
    28   11   35 1
    29   12   17 1
    30   13   15 1
    31   13   36 1
    32   13   37 1
    33   13   38 1
    34   14   17 1
    35   14   20 1
    36   14   39 1
    37   14   40 1
    38   15   24 1
    39   15   41 1
    40   15   42 1
    41   16   17 1
    42   16   23 1
    43   16   43 1
    44   16   44 1
    45   17   22 1
    46   19   20 1
    47   22   45 1
