@<TRIPOS>MOLECULE
*****
   27    28     0     0     0
SMALL
NO_CHARGES

@<TRIPOS>ATOM
      1 C1         -0.2196    0.2530    2.1459 C.ar      1 <0>         0.0000
      2 C2          0.3557   -5.6604    4.0677 C.ar      1 <0>         0.0000
      3 C3          0.1766   -0.4088    0.9891 C.ar      1 <0>         0.0000
      4 C4          1.1843   -6.2361    5.0244 C.ar      1 <0>         0.0000
      5 C5          0.0586   -0.3044    3.3890 C.ar      1 <0>         0.0000
      6 C6          0.2949   -4.2763    3.9509 C.ar      1 <0>         0.0000
      7 C7          0.8428   -1.6157    1.1282 C.ar      1 <0>         0.0000
      8 C8          1.9260   -5.3905    5.8334 C.ar      1 <0>         0.0000
      9 C9          0.7299   -1.5161    3.4206 C.ar      1 <0>         0.0000
     10 C10         1.0763   -3.5183    4.8081 C.ar      1 <0>         0.0000
     11 C11         1.2858   -1.2448    5.8119 C.2       1 <0>         0.0000
     12 C12         0.9059   -1.7561    7.1861 C.3       1 <0>         0.0000
     13 N1          1.1307   -2.1885    2.3184 N.ar      1 <0>         0.0000
     14 N2          1.8933   -4.0416    5.7496 N.ar      1 <0>         0.0000
     15 N3          1.0053   -2.0685    4.6769 N.am      1 <0>         0.0000
     16 O1          1.7844   -0.1186    5.7208 O.2       1 <0>         0.0000
     17 H1         -0.7445    1.2011    2.0785 H         1 <0>         0.0000
     18 H2         -0.2418   -6.2896    3.4150 H         1 <0>         0.0000
     19 H3         -0.0291    0.0075    0.0096 H         1 <0>         0.0000
     20 H4          1.2479   -7.3128    5.1328 H         1 <0>         0.0000
     21 H5         -0.2464    0.2059    4.2967 H         1 <0>         0.0000
     22 H6         -0.3486   -3.8189    3.2065 H         1 <0>         0.0000
     23 H7          1.1739   -2.1715    0.2571 H         1 <0>         0.0000
     24 H8          2.5884   -5.7890    6.5949 H         1 <0>         0.0000
     25 H9          1.7347   -2.3224    7.6169 H         1 <0>         0.0000
     26 H10        -0.0021   -2.3634    7.1642 H         1 <0>         0.0000
     27 H11         0.7029   -0.8961    7.8329 H         1 <0>         0.0000
@<TRIPOS>BOND
     1    1    3 ar
     2    1    5 ar
     3    1   17 1
     4    2    4 ar
     5    2    6 ar
     6    2   18 1
     7    3    7 ar
     8    3   19 1
     9    4    8 ar
    10    4   20 1
    11    5    9 ar
    12    5   21 1
    13    6   10 ar
    14    6   22 1
    15    7   13 ar
    16    7   23 1
    17    8   14 ar
    18    8   24 1
    19    9   13 ar
    20    9   15 1
    21   10   14 ar
    22   10   15 1
    23   11   12 1
    24   11   15 am
    25   11   16 2
    26   12   25 1
    27   12   26 1
    28   12   27 1
