@<TRIPOS>MOLECULE
*****
   46    48     0     0     0
SMALL
NO_CHARGES

@<TRIPOS>ATOM
      1 C1         -2.2155    1.5207   -1.6038 C.ar      1 <0>         0.0000
      2 C2         -3.1384    2.5603   -1.7184 C.ar      1 <0>         0.0000
      3 C3         -5.6539    1.2418    5.3333 C.2       1 <0>         0.0000
      4 C4         -2.0189    0.8952   -0.3726 C.ar      1 <0>         0.0000
      5 C5         -3.6678    2.3491    0.6294 C.ar      1 <0>         0.0000
      6 C6         -3.8645    2.9745   -0.6018 C.ar      1 <0>         0.0000
      7 C7         -2.7450    1.3094    0.7440 C.ar      1 <0>         0.0000
      8 C8          1.3554   -0.0103    0.4847 C.2       1 <0>         0.0000
      9 C9          0.8581   -0.5986   -1.9195 C.2       1 <0>         0.0000
     10 C10        -1.0380   -0.1912   -0.3059 C.2       1 <0>         0.0000
     11 C11         2.8266    0.0960    0.1470 C.3       1 <0>         0.0000
     12 C12         2.3319   -0.4891   -2.2446 C.3       1 <0>         0.0000
     13 C13         3.1633   -0.8249   -1.0159 C.3       1 <0>         0.0000
     14 C14         0.3784    0.1412   -0.6757 C.3       1 <0>         0.0000
     15 C15        -4.0052    5.7218   -1.0339 C.3       1 <0>         0.0000
     16 C16        -4.7468    4.1334    3.6646 C.3       1 <0>         0.0000
     17 C17        -3.8114    3.7961    2.5113 C.3       1 <0>         0.0000
     18 N1         -4.7887    1.7551    6.2534 N.2       1 <0>         0.0000
     19 N2         -5.7981    1.9958    4.2407 N.2       1 <0>         0.0000
     20 N3         -4.3457    2.8968    5.7416 N.2       1 <0>         0.0000
     21 N4         -4.9663    2.9979    4.5579 N.pl3     1 <0>         0.0000
     22 O1          0.9869   -0.1175    1.6542 O.2       1 <0>         0.0000
     23 O2          0.0887   -1.1805   -2.6839 O.2       1 <0>         0.0000
     24 O3         -1.2978   -1.3436    0.0243 O.2       1 <0>         0.0000
     25 O4         -5.7767    4.0435   -1.9930 O.2       1 <0>         0.0000
     26 O5         -5.7082    4.4673    0.4892 O.2       1 <0>         0.0000
     27 O6         -4.3835    2.7611    1.7161 O.3       1 <0>         0.0000
     28 S1         -5.0146    4.2813   -0.7767 S.o2      1 <0>         0.0000
     29 Cl1        -2.5077    0.5386    2.2773 Cl        1 <0>         0.0000
     30 H1         -1.6564    1.2076   -2.4821 H         1 <0>         0.0000
     31 H2         -3.2831    3.0397   -2.6829 H         1 <0>         0.0000
     32 H3         -6.1855    0.3112    5.4581 H         1 <0>         0.0000
     33 H4          3.0478    1.1265   -0.1237 H         1 <0>         0.0000
     34 H5          3.3973   -0.1837    1.0311 H         1 <0>         0.0000
     35 H6          2.5527   -1.1820   -3.0549 H         1 <0>         0.0000
     36 H7          2.5426    0.5299   -2.5636 H         1 <0>         0.0000
     37 H8          2.9862   -1.8682   -0.7239 H         1 <0>         0.0000
     38 H9          4.2324   -0.7405   -1.2580 H         1 <0>         0.0000
     39 H10         0.3867    1.2139   -0.9403 H         1 <0>         0.0000
     40 H11        -4.6614    6.5854   -1.1524 H         1 <0>         0.0000
     41 H12        -3.3588    5.8491   -0.1642 H         1 <0>         0.0000
     42 H13        -3.4089    5.5680   -1.9345 H         1 <0>         0.0000
     43 H14        -5.7269    4.4587    3.2968 H         1 <0>         0.0000
     44 H15        -4.3296    4.9447    4.2721 H         1 <0>         0.0000
     45 H16        -3.6788    4.6750    1.8728 H         1 <0>         0.0000
     46 H17        -2.8299    3.4653    2.8660 H         1 <0>         0.0000
@<TRIPOS>BOND
     1    1    2 ar
     2    1    4 ar
     3    1   30 1
     4    2    6 ar
     5    2   31 1
     6    3   18 1
     7    3   19 2
     8    3   32 1
     9    4    7 ar
    10    4   10 1
    11    5    6 ar
    12    5    7 ar
    13    5   27 1
    14    6   28 1
    15    7   29 1
    16    8   11 1
    17    8   14 1
    18    8   22 2
    19    9   12 1
    20    9   14 1
    21    9   23 2
    22   10   14 1
    23   10   24 2
    24   11   13 1
    25   11   33 1
    26   11   34 1
    27   12   13 1
    28   12   35 1
    29   12   36 1
    30   13   37 1
    31   13   38 1
    32   14   39 1
    33   15   28 1
    34   15   40 1
    35   15   41 1
    36   15   42 1
    37   16   17 1
    38   16   21 1
    39   16   43 1
    40   16   44 1
    41   17   27 1
    42   17   45 1
    43   17   46 1
    44   18   20 2
    45   19   21 1
    46   20   21 1
    47   25   28 2
    48   26   28 2
