@<TRIPOS>MOLECULE
*****
   35    36     0     0     0
SMALL
NO_CHARGES

@<TRIPOS>ATOM
      1 C1         -2.5045    1.6780    0.7116 C.ar      1 <0>         0.0000
      2 C2         -2.9298    3.9651    0.0594 C.ar      1 <0>         0.0000
      3 C3         -1.6053    1.5436   -0.3462 C.ar      1 <0>         0.0000
      4 C4         -3.1668    2.8888    0.9144 C.ar      1 <0>         0.0000
      5 C5         -1.3683    2.6199   -1.2012 C.ar      1 <0>         0.0000
      6 C6         -2.0306    3.8307   -0.9984 C.ar      1 <0>         0.0000
      7 C7         -0.9221    0.2617   -0.5381 C.2       1 <0>         0.0000
      8 C8         -1.6306   -3.4137   -2.6931 C.3       1 <0>         0.0000
      9 C9         -2.5226   -3.1000   -1.4958 C.3       1 <0>         0.0000
     10 C10        -1.3120   -2.1584   -3.4996 C.3       1 <0>         0.0000
     11 C11        -1.9201   -2.0085   -0.6151 C.3       1 <0>         0.0000
     12 C12        -0.7064   -1.0648   -2.6236 C.3       1 <0>         0.0000
     13 C13        -1.5959   -0.7476   -1.4194 C.3       1 <0>         0.0000
     14 C14         0.8752    2.8037   -1.9685 C.3       1 <0>         0.0000
     15 O1          0.1516   -0.0378   -0.0260 O.2       1 <0>         0.0000
     16 O2         -4.0438    3.0198    1.9468 O.3       1 <0>         0.0000
     17 O3         -0.4867    2.4795   -2.2340 O.3       1 <0>         0.0000
     18 Cl1        -1.7583    5.1798   -2.0392 Cl        1 <0>         0.0000
     19 H1         -2.6931    0.8426    1.3820 H         1 <0>         0.0000
     20 H2         -3.4513    4.9051    0.2261 H         1 <0>         0.0000
     21 H3         -2.1291   -4.1470   -3.3393 H         1 <0>         0.0000
     22 H4         -0.6986   -3.8752   -2.3471 H         1 <0>         0.0000
     23 H5         -3.5090   -2.7793   -1.8504 H         1 <0>         0.0000
     24 H6         -2.6820   -4.0117   -0.9081 H         1 <0>         0.0000
     25 H7         -0.6155   -2.4121   -4.3066 H         1 <0>         0.0000
     26 H8         -2.2255   -1.7853   -3.9744 H         1 <0>         0.0000
     27 H9         -2.6375   -1.7522    0.1670 H         1 <0>         0.0000
     28 H10        -1.0232   -2.3919   -0.1270 H         1 <0>         0.0000
     29 H11         0.2864   -1.3712   -2.2977 H         1 <0>         0.0000
     30 H12        -0.5946   -0.1606   -3.2227 H         1 <0>         0.0000
     31 H13        -2.5152   -0.2951   -1.7603 H         1 <0>         0.0000
     32 H14         1.4702    2.6489   -2.8719 H         1 <0>         0.0000
     33 H15         1.2501    2.1715   -1.1596 H         1 <0>         0.0000
     34 H16         0.9389    3.8523   -1.6682 H         1 <0>         0.0000
     35 H17        -4.1001    2.1904    2.4478 H         1 <0>         0.0000
@<TRIPOS>BOND
     1    1    3 ar
     2    1    4 ar
     3    1   19 1
     4    2    4 ar
     5    2    6 ar
     6    2   20 1
     7    3    5 ar
     8    3    7 1
     9    4   16 1
    10    5    6 ar
    11    5   17 1
    12    6   18 1
    13    7   13 1
    14    7   15 2
    15    8   10 1
    16    8    9 1
    17    8   21 1
    18    8   22 1
    19    9   11 1
    20    9   23 1
    21    9   24 1
    22   10   12 1
    23   10   25 1
    24   10   26 1
    25   11   13 1
    26   11   27 1
    27   11   28 1
    28   12   13 1
    29   12   29 1
    30   12   30 1
    31   13   31 1
    32   14   17 1
    33   14   32 1
    34   14   33 1
    35   14   34 1
    36   16   35 1
