@<TRIPOS>MOLECULE
*****
   24    25     0     0     0
SMALL
NO_CHARGES

@<TRIPOS>ATOM
      1 C1          1.9135    0.6130    1.0362 C.ar      1 <0>         0.0000
      2 C2          1.0118   -0.1119    0.2517 C.ar      1 <0>         0.0000
      3 C3          2.8335   -0.0702    1.8250 C.ar      1 <0>         0.0000
      4 C4          1.0450   -1.5076    0.2685 C.ar      1 <0>         0.0000
      5 C5          2.8947   -1.4815    1.8656 C.ar      1 <0>         0.0000
      6 C6          1.9716   -2.1898    1.0621 C.ar      1 <0>         0.0000
      7 C7          6.2672   -5.3888    5.1270 C.2       1 <0>         0.0000
      8 C8          5.2085   -4.9109    4.2790 C.2       1 <0>         0.0000
      9 C9          3.9178   -2.0447    2.7505 C.2       1 <0>         0.0000
     10 N1          6.0236   -6.6332    5.4423 N.2       1 <0>         0.0000
     11 N2          4.3400   -5.8706    4.0844 N.2       1 <0>         0.0000
     12 N3          4.1415   -3.2984    2.9197 N.2       1 <0>         0.0000
     13 N4          7.3306   -4.6226    5.6109 N.pl3     1 <0>         0.0000
     14 N5          5.1720   -3.6309    3.7517 N.pl3     1 <0>         0.0000
     15 O1          4.8352   -6.9494    4.8071 O.3       1 <0>         0.0000
     16 Br1         1.8986   -4.0977    0.9909 Br        1 <0>         0.0000
     17 H1          1.8994    1.6992    1.0336 H         1 <0>         0.0000
     18 H2          0.2836    0.4004   -0.3710 H         1 <0>         0.0000
     19 H3          3.5348    0.4937    2.4360 H         1 <0>         0.0000
     20 H4          0.3473   -2.0773   -0.3364 H         1 <0>         0.0000
     21 H5          4.5162   -1.2944    3.2886 H         1 <0>         0.0000
     22 H6          7.8824   -4.2135    4.8600 H         1 <0>         0.0000
     23 H7          7.9335   -5.1707    6.2194 H         1 <0>         0.0000
     24 H8          5.5560   -2.9073    4.3651 H         1 <0>         0.0000
@<TRIPOS>BOND
     1    1    2 ar
     2    1    3 ar
     3    1   17 1
     4    2    4 ar
     5    2   18 1
     6    3    5 ar
     7    3   19 1
     8    4    6 ar
     9    4   20 1
    10    5    6 ar
    11    5    9 1
    12    6   16 1
    13    7    8 1
    14    7   10 2
    15    7   13 1
    16    8   11 2
    17    8   14 1
    18    9   12 2
    19    9   21 1
    20   10   15 1
    21   11   15 1
    22   12   14 1
    23   13   22 1
    24   13   23 1
    25   14   24 1
