@<TRIPOS>MOLECULE
*****
   30    31     0     0     0
SMALL
NO_CHARGES

@<TRIPOS>ATOM
      1 C1         -3.5088   -3.6989    0.3118 C.ar      1 <0>         0.0000
      2 C2         -3.1530   -2.3556    0.1947 C.ar      1 <0>         0.0000
      3 C3         -2.5597   -4.7124    0.1509 C.ar      1 <0>         0.0000
      4 C4         -0.8519   -3.0123   -0.2686 C.ar      1 <0>         0.0000
      5 C5          2.9738    3.3110   -1.1446 C.2       1 <0>         0.0000
      6 C6          1.3597    1.4637   -0.9922 C.2       1 <0>         0.0000
      7 C7         -1.8221   -2.0108   -0.0949 C.ar      1 <0>         0.0000
      8 C8          1.7188    2.7748   -0.7297 C.2       1 <0>         0.0000
      9 C9         -1.2430   -4.3419   -0.1373 C.ar      1 <0>         0.0000
     10 C10         3.8484    2.4960   -1.7876 C.2       1 <0>         0.0000
     11 C11         2.3192    0.5951   -1.6660 C.2       1 <0>         0.0000
     12 C12         0.0301    0.9638   -0.6525 C.2       1 <0>         0.0000
     13 C13         5.2068    2.8785   -2.2796 C.3       1 <0>         0.0000
     14 N1         -0.2191   -0.2868   -0.4549 N.2       1 <0>         0.0000
     15 N2         -1.4812   -0.6601   -0.2032 N.pl3     1 <0>         0.0000
     16 O1          2.1929   -0.5702   -1.9608 O.2       1 <0>         0.0000
     17 O2          3.5490    1.2036   -2.0387 O.3       1 <0>         0.0000
     18 O3          0.9214    3.6503   -0.0597 O.3       1 <0>         0.0000
     19 Cl1        -0.0340   -5.6001   -0.3499 Cl        1 <0>         0.0000
     20 H1         -4.5392   -3.9619    0.5352 H         1 <0>         0.0000
     21 H2         -3.9015   -1.5777    0.3297 H         1 <0>         0.0000
     22 H3         -2.8301   -5.7586    0.2441 H         1 <0>         0.0000
     23 H4          0.1692   -2.7404   -0.5079 H         1 <0>         0.0000
     24 H5          3.2198    4.3424   -0.9249 H         1 <0>         0.0000
     25 H6         -0.7914    1.6993   -0.6273 H         1 <0>         0.0000
     26 H7          5.9700    2.2544   -1.8029 H         1 <0>         0.0000
     27 H8          5.4165    3.9277   -2.0642 H         1 <0>         0.0000
     28 H9          5.2768    2.7124   -3.3597 H         1 <0>         0.0000
     29 H10        -2.2335    0.0290   -0.2149 H         1 <0>         0.0000
     30 H11         0.1738    3.1749    0.3390 H         1 <0>         0.0000
@<TRIPOS>BOND
     1    1    2 ar
     2    1    3 ar
     3    1   20 1
     4    2    7 ar
     5    2   21 1
     6    3    9 ar
     7    3   22 1
     8    4    7 ar
     9    4    9 ar
    10    4   23 1
    11    5    8 1
    12    5   10 2
    13    5   24 1
    14    6    8 2
    15    6   11 1
    16    6   12 1
    17    7   15 1
    18    8   18 1
    19    9   19 1
    20   10   13 1
    21   10   17 1
    22   11   16 2
    23   11   17 1
    24   12   14 2
    25   12   25 1
    26   13   26 1
    27   13   27 1
    28   13   28 1
    29   14   15 1
    30   15   29 1
    31   18   30 1
