@<TRIPOS>MOLECULE
*****
   37    39     0     0     0
SMALL
NO_CHARGES

@<TRIPOS>ATOM
      1 C1         -0.6979   -1.9375   -1.9645 C.1       1 <0>         0.0000
      2 C2          1.5521    4.1787   -0.6046 C.ar      1 <0>         0.0000
      3 C3          1.9064    4.5957   -1.8937 C.ar      1 <0>         0.0000
      4 C4          1.2806    2.8335   -0.3743 C.ar      1 <0>         0.0000
      5 C5          1.9939    3.6795   -2.9454 C.ar      1 <0>         0.0000
      6 C6         -0.2639   -2.2009   -0.6341 C.2       1 <0>         0.0000
      7 C7          1.3605    1.8873   -1.4114 C.ar      1 <0>         0.0000
      8 C8         -0.5055   -3.4632    0.0189 C.2       1 <0>         0.0000
      9 C9          1.7257    2.3239   -2.7108 C.ar      1 <0>         0.0000
     10 C10        -0.0488   -3.4805    1.3106 C.2       1 <0>         0.0000
     11 C11         0.3760   -1.2671    0.1848 C.2       1 <0>         0.0000
     12 C12         1.0640    0.4789   -1.1776 C.2       1 <0>         0.0000
     13 C13        -1.1763   -4.6534   -0.6194 C.3       1 <0>         0.0000
     14 C14        -0.1438   -4.6543    2.2463 C.3       1 <0>         0.0000
     15 C15        -1.5918   -5.6892    0.4375 C.3       1 <0>         0.0000
     16 C16        -0.4683   -5.9339    1.4550 C.3       1 <0>         0.0000
     17 C17         2.0652    1.7512   -5.0162 C.3       1 <0>         0.0000
     18 N1         -1.0693   -1.7600   -3.0577 N.1       1 <0>         0.0000
     19 N2          0.7362    0.0443   -0.0032 N.2       1 <0>         0.0000
     20 O1          1.7940    1.3599   -3.6719 O.3       1 <0>         0.0000
     21 S1          0.6536   -1.9508    1.7709 S.3       1 <0>         0.0000
     22 H1          1.4865    4.8992    0.2055 H         1 <0>         0.0000
     23 H2          2.1175    5.6442   -2.0876 H         1 <0>         0.0000
     24 H3          0.9969    2.4783    0.6115 H         1 <0>         0.0000
     25 H4          2.2709    4.0276   -3.9336 H         1 <0>         0.0000
     26 H5          1.1436   -0.1843   -2.0406 H         1 <0>         0.0000
     27 H6         -2.0462   -4.3253   -1.1989 H         1 <0>         0.0000
     28 H7         -0.4870   -5.1098   -1.3425 H         1 <0>         0.0000
     29 H8          0.7911   -4.7801    2.8044 H         1 <0>         0.0000
     30 H9         -0.9279   -4.4693    2.9932 H         1 <0>         0.0000
     31 H10        -2.4836   -5.3300    0.9668 H         1 <0>         0.0000
     32 H11        -1.8701   -6.6270   -0.0549 H         1 <0>         0.0000
     33 H12         0.4325   -6.2694    0.9260 H         1 <0>         0.0000
     34 H13        -0.7481   -6.7321    2.1507 H         1 <0>         0.0000
     35 H14         2.0224    0.8337   -5.6033 H         1 <0>         0.0000
     36 H15         3.0625    2.1979   -5.1067 H         1 <0>         0.0000
     37 H16         1.3091    2.4548   -5.3832 H         1 <0>         0.0000
@<TRIPOS>BOND
     1    1    6 1
     2    1   18 3
     3    2    3 ar
     4    2    4 ar
     5    2   22 1
     6    3    5 ar
     7    3   23 1
     8    4    7 ar
     9    4   24 1
    10    5    9 ar
    11    5   25 1
    12    6    8 1
    13    6   11 2
    14    7    9 ar
    15    7   12 1
    16    8   10 2
    17    8   13 1
    18    9   20 1
    19   10   14 1
    20   10   21 1
    21   11   19 1
    22   11   21 1
    23   12   19 2
    24   12   26 1
    25   13   15 1
    26   13   27 1
    27   13   28 1
    28   14   16 1
    29   14   29 1
    30   14   30 1
    31   15   16 1
    32   15   31 1
    33   15   32 1
    34   16   33 1
    35   16   34 1
    36   17   20 1
    37   17   35 1
    38   17   36 1
    39   17   37 1
