@<TRIPOS>MOLECULE
*****
   36    38     0     0     0
SMALL
NO_CHARGES

@<TRIPOS>ATOM
      1 C1         -3.1294    8.3343    2.4575 C.1       1 <0>         0.0000
      2 C2          0.0705    2.3203   -0.5453 C.ar      1 <0>         0.0000
      3 C3         -0.6455    1.1137   -0.3448 C.ar      1 <0>         0.0000
      4 C4         -0.5842    3.4619   -0.9621 C.ar      1 <0>         0.0000
      5 C5         -2.0054    1.0710   -0.5678 C.ar      1 <0>         0.0000
      6 C6         -4.1090    4.4407   -1.7867 C.ar      1 <0>         0.0000
      7 C7         -3.1274    7.9477    1.0965 C.2       1 <0>         0.0000
      8 C8         -1.9902    3.4546   -1.1936 C.ar      1 <0>         0.0000
      9 C9         -2.7528    4.5924   -1.6036 C.ar      1 <0>         0.0000
     10 C10        -2.7100    2.2293   -0.9937 C.ar      1 <0>         0.0000
     11 C11        -4.7348    3.1800   -1.5725 C.ar      1 <0>         0.0000
     12 C12        -3.9321    8.4357    0.0174 C.2       1 <0>         0.0000
     13 C13        -2.3210    6.9498    0.5309 C.2       1 <0>         0.0000
     14 C14        -6.2214    3.0375   -1.7816 C.3       1 <0>         0.0000
     15 C15        -4.9684    9.5123    0.0734 C.3       1 <0>         0.0000
     16 C16        -2.1456    5.9742   -1.7820 C.3       1 <0>         0.0000
     17 N1         -3.1147    8.6320    3.5876 N.1       1 <0>         0.0000
     18 N2         -4.0571    2.1127   -1.1875 N.ar      1 <0>         0.0000
     19 N3         -3.6485    7.7942   -1.1082 N.2       1 <0>         0.0000
     20 N4         -2.6401    6.9103   -0.7842 N.pl3     1 <0>         0.0000
     21 N5         -1.3165    6.1779    1.0913 N.pl3     1 <0>         0.0000
     22 H1          1.1432    2.3456   -0.3738 H         1 <0>         0.0000
     23 H2         -0.1173    0.2223   -0.0172 H         1 <0>         0.0000
     24 H3         -0.0060    4.3663   -1.1209 H         1 <0>         0.0000
     25 H4         -2.5798    0.1605   -0.4252 H         1 <0>         0.0000
     26 H5         -4.7135    5.2962   -2.0787 H         1 <0>         0.0000
     27 H6         -6.4954    3.2841   -2.8137 H         1 <0>         0.0000
     28 H7         -6.5319    2.0140   -1.5668 H         1 <0>         0.0000
     29 H8         -6.7736    3.7227   -1.1284 H         1 <0>         0.0000
     30 H9         -4.5222   10.4684    0.3665 H         1 <0>         0.0000
     31 H10        -5.4370    9.6282   -0.9059 H         1 <0>         0.0000
     32 H11        -5.7410    9.2736    0.8115 H         1 <0>         0.0000
     33 H12        -1.0563    5.9612   -1.7305 H         1 <0>         0.0000
     34 H13        -2.4297    6.3933   -2.7483 H         1 <0>         0.0000
     35 H14        -1.2577    6.2960    2.0984 H         1 <0>         0.0000
     36 H15        -1.3426    5.1922    0.8431 H         1 <0>         0.0000
@<TRIPOS>BOND
     1    1    7 1
     2    1   17 3
     3    2    3 ar
     4    2    4 ar
     5    2   22 1
     6    3    5 ar
     7    3   23 1
     8    4    8 ar
     9    4   24 1
    10    5   10 ar
    11    5   25 1
    12    6    9 ar
    13    6   11 ar
    14    6   26 1
    15    7   12 1
    16    7   13 2
    17    8    9 ar
    18    8   10 ar
    19    9   16 1
    20   10   18 ar
    21   11   14 1
    22   11   18 ar
    23   12   15 1
    24   12   19 2
    25   13   20 1
    26   13   21 1
    27   14   27 1
    28   14   28 1
    29   14   29 1
    30   15   30 1
    31   15   31 1
    32   15   32 1
    33   16   20 1
    34   16   33 1
    35   16   34 1
    36   19   20 1
    37   21   35 1
    38   21   36 1
