@<TRIPOS>MOLECULE
*****
   44    46     0     0     0
SMALL
NO_CHARGES

@<TRIPOS>ATOM
      1 C1         -2.9912    5.1095    3.2737 C.2       1 <0>         0.0000
      2 C2         -2.6620    2.9068    2.2948 C.2       1 <0>         0.0000
      3 C3         -2.4942    3.7723    3.3581 C.2       1 <0>         0.0000
      4 C4         -3.6609    5.5327    2.1562 C.2       1 <0>         0.0000
      5 C5         -3.3681    3.3215    1.0937 C.2       1 <0>         0.0000
      6 C6          1.7330   -1.2851   -2.0075 C.2       1 <0>         0.0000
      7 C7         -2.2537    1.4630    2.4117 C.2       1 <0>         0.0000
      8 C8         -0.5712   -0.9496    0.1818 C.3       1 <0>         0.0000
      9 C9          0.6992    1.2347    0.2514 C.3       1 <0>         0.0000
     10 C10        -1.1066   -0.4789    1.5318 C.3       1 <0>         0.0000
     11 C11        -0.7267    1.7507    0.4425 C.3       1 <0>         0.0000
     12 C12         1.9887   -0.9838    0.2798 C.3       1 <0>         0.0000
     13 C13         0.7334   -0.2319   -0.2013 C.3       1 <0>         0.0000
     14 C14        -1.8124    3.3444    4.6347 C.3       1 <0>         0.0000
     15 C15        -4.2375    6.9074    1.9749 C.3       1 <0>         0.0000
     16 C16         3.4369   -2.6894   -0.9149 C.3       1 <0>         0.0000
     17 N1         -3.8254    4.6510    1.1246 N.am      1 <0>         0.0000
     18 N2          2.2650   -1.8367   -0.8591 N.am      1 <0>         0.0000
     19 N3         -1.3873    0.9626    1.4879 N.am      1 <0>         0.0000
     20 O1         -3.5920    2.6315    0.0923 O.2       1 <0>         0.0000
     21 O2          1.9603   -1.6008   -3.1564 O.2       1 <0>         0.0000
     22 O3         -2.6945    0.7657    3.3349 O.2       1 <0>         0.0000
     23 O4          0.8627   -0.2855   -1.6539 O.3       1 <0>         0.0000
     24 H1         -2.8476    5.7971    4.0999 H         1 <0>         0.0000
     25 H2         -0.4160   -2.0329    0.1965 H         1 <0>         0.0000
     26 H3         -1.3119   -0.7404   -0.5952 H         1 <0>         0.0000
     27 H4          1.2304    1.8423   -0.4866 H         1 <0>         0.0000
     28 H5          1.2357    1.3270    1.2032 H         1 <0>         0.0000
     29 H6         -2.0311   -1.0005    1.7858 H         1 <0>         0.0000
     30 H7         -0.3947   -0.6994    2.3399 H         1 <0>         0.0000
     31 H8         -0.7000    2.7955    0.7558 H         1 <0>         0.0000
     32 H9         -1.2951    1.7062   -0.4915 H         1 <0>         0.0000
     33 H10         2.8260   -0.2959    0.4782 H         1 <0>         0.0000
     34 H11         1.7941   -1.5615    1.1895 H         1 <0>         0.0000
     35 H12        -2.5358    2.8468    5.2883 H         1 <0>         0.0000
     36 H13        -1.4016    4.2083    5.1646 H         1 <0>         0.0000
     37 H14        -1.0123    2.6247    4.4513 H         1 <0>         0.0000
     38 H15        -3.8061    7.4020    1.0970 H         1 <0>         0.0000
     39 H16        -4.0360    7.5267    2.8504 H         1 <0>         0.0000
     40 H17        -5.3230    6.8596    1.8310 H         1 <0>         0.0000
     41 H18         4.3626   -2.1138   -0.7716 H         1 <0>         0.0000
     42 H19         3.4674   -3.1663   -1.8953 H         1 <0>         0.0000
     43 H20         3.3776   -3.4605   -0.1405 H         1 <0>         0.0000
     44 H21        -4.3255    4.9324    0.2861 H         1 <0>         0.0000
@<TRIPOS>BOND
     1    1    3 1
     2    1    4 2
     3    1   24 1
     4    2    3 2
     5    2    5 1
     6    2    7 1
     7    3   14 1
     8    4   15 1
     9    4   17 1
    10    5   17 am
    11    5   20 2
    12    6   18 am
    13    6   21 2
    14    6   23 1
    15    7   19 am
    16    7   22 2
    17    8   10 1
    18    8   13 1
    19    8   25 1
    20    8   26 1
    21    9   11 1
    22    9   13 1
    23    9   27 1
    24    9   28 1
    25   10   19 1
    26   10   29 1
    27   10   30 1
    28   11   19 1
    29   11   31 1
    30   11   32 1
    31   12   13 1
    32   12   18 1
    33   12   33 1
    34   12   34 1
    35   13   23 1
    36   14   35 1
    37   14   36 1
    38   14   37 1
    39   15   38 1
    40   15   39 1
    41   15   40 1
    42   16   18 1
    43   16   41 1
    44   16   42 1
    45   16   43 1
    46   17   44 1
