@<TRIPOS>MOLECULE
*****
   51    54     0     0     0
SMALL
NO_CHARGES

@<TRIPOS>ATOM
      1 C1          2.3173    0.0876    5.5367 C.1       1 <0>         0.0000
      2 C2          3.7310   -3.3145    5.2140 C.ar      1 <0>         0.0000
      3 C3          2.6217   -1.1907    4.9773 C.ar      1 <0>         0.0000
      4 C4          3.3112   -2.1166    5.7898 C.ar      1 <0>         0.0000
      5 C5          3.4888   -3.5439    3.8519 C.ar      1 <0>         0.0000
      6 C6          2.3472   -1.5360    3.6134 C.ar      1 <0>         0.0000
      7 C7         -0.1760   -0.4146   -0.4481 C.2       1 <0>         0.0000
      8 C8          0.8987    2.3668   -0.2553 C.3       1 <0>         0.0000
      9 C9         -3.6524   -0.4617   -1.2394 C.3       1 <0>         0.0000
     10 C10        -3.9490   -0.3859   -2.7227 C.3       1 <0>         0.0000
     11 C11         1.6297    1.1394    0.3118 C.3       1 <0>         0.0000
     12 C12        -0.2335    0.4478    1.9466 C.3       1 <0>         0.0000
     13 C13        -0.4550    1.9993   -0.9016 C.3       1 <0>         0.0000
     14 C14         0.6873    0.3068    3.1650 C.3       1 <0>         0.0000
     15 C15         1.4301   -1.1560    1.3639 C.3       1 <0>         0.0000
     16 C16        -2.9018    0.5206   -2.1126 C.3       1 <0>         0.0000
     17 C17         0.6628    0.0256    0.7545 C.3       1 <0>         0.0000
     18 C18         3.6094   -1.7961    7.2315 C.3       1 <0>         0.0000
     19 C19         3.9773   -4.7957    3.1684 C.3       1 <0>         0.0000
     20 C20        -1.4382    0.2743   -2.4210 C.3       1 <0>         0.0000
     21 N1          2.1212    1.1256    6.0355 N.1       1 <0>         0.0000
     22 N2          2.8150   -2.6843    3.0827 N.ar      1 <0>         0.0000
     23 N3          1.6310   -0.7473    2.7647 N.pl3     1 <0>         0.0000
     24 N4         -0.5422    0.5926   -1.3036 N.am      1 <0>         0.0000
     25 O1         -0.4750   -1.5966   -0.6423 O.2       1 <0>         0.0000
     26 H1          4.2647   -4.0512    5.8062 H         1 <0>         0.0000
     27 H2          0.7141    3.1028    0.5333 H         1 <0>         0.0000
     28 H3          1.5417    2.8572   -0.9919 H         1 <0>         0.0000
     29 H4         -4.3952   -0.0683   -0.5510 H         1 <0>         0.0000
     30 H5         -3.0986   -1.3219   -0.8776 H         1 <0>         0.0000
     31 H6         -3.6044   -1.2054   -3.3476 H         1 <0>         0.0000
     32 H7         -4.8881    0.0574   -3.0409 H         1 <0>         0.0000
     33 H8          2.2851    0.7159   -0.4565 H         1 <0>         0.0000
     34 H9          2.2784    1.4306    1.1439 H         1 <0>         0.0000
     35 H10        -1.0734   -0.2496    2.0237 H         1 <0>         0.0000
     36 H11        -0.6390    1.4582    1.8632 H         1 <0>         0.0000
     37 H12        -1.2796    2.2380   -0.2175 H         1 <0>         0.0000
     38 H13        -0.6186    2.6017   -1.7995 H         1 <0>         0.0000
     39 H14         1.2075    1.2438    3.3842 H         1 <0>         0.0000
     40 H15         0.1344    0.0204    4.0641 H         1 <0>         0.0000
     41 H16         0.8483   -2.0783    1.2948 H         1 <0>         0.0000
     42 H17         2.3909   -1.3327    0.8767 H         1 <0>         0.0000
     43 H18        -3.1841    1.5668   -2.0106 H         1 <0>         0.0000
     44 H19         4.2560   -0.9156    7.3086 H         1 <0>         0.0000
     45 H20         2.6924   -1.5624    7.7815 H         1 <0>         0.0000
     46 H21         4.1072   -2.6352    7.7226 H         1 <0>         0.0000
     47 H22         3.1333   -5.3362    2.7285 H         1 <0>         0.0000
     48 H23         4.6532   -4.5331    2.3480 H         1 <0>         0.0000
     49 H24         4.5024   -5.4590    3.8598 H         1 <0>         0.0000
     50 H25        -1.1264    0.8768   -3.2830 H         1 <0>         0.0000
     51 H26        -1.2795   -0.7762   -2.6665 H         1 <0>         0.0000
@<TRIPOS>BOND
     1    1    3 1
     2    1   21 3
     3    2    4 ar
     4    2    5 ar
     5    2   26 1
     6    3    4 ar
     7    3    6 ar
     8    4   18 1
     9    5   19 1
    10    5   22 ar
    11    6   22 ar
    12    6   23 1
    13    7   17 1
    14    7   24 am
    15    7   25 2
    16    8   11 1
    17    8   13 1
    18    8   27 1
    19    8   28 1
    20    9   10 1
    21    9   16 1
    22    9   29 1
    23    9   30 1
    24   10   16 1
    25   10   31 1
    26   10   32 1
    27   11   17 1
    28   11   33 1
    29   11   34 1
    30   12   14 1
    31   12   17 1
    32   12   35 1
    33   12   36 1
    34   13   24 1
    35   13   37 1
    36   13   38 1
    37   14   23 1
    38   14   39 1
    39   14   40 1
    40   15   17 1
    41   15   23 1
    42   15   41 1
    43   15   42 1
    44   16   20 1
    45   16   43 1
    46   18   44 1
    47   18   45 1
    48   18   46 1
    49   19   47 1
    50   19   48 1
    51   19   49 1
    52   20   24 1
    53   20   50 1
    54   20   51 1
