@<TRIPOS>MOLECULE
*****
   29    30     0     0     0
SMALL
NO_CHARGES

@<TRIPOS>ATOM
      1 C1         -0.9062   -3.6831    4.9203 C.1       1 <0>         0.0000
      2 C2         -4.4344    1.1301    1.7894 C.2       1 <0>         0.0000
      3 C3          0.1557   -4.1567    4.1093 C.2       1 <0>         0.0000
      4 C4         -2.5224   -0.3886    1.6981 C.2       1 <0>         0.0000
      5 C5         -3.6494   -0.8734    2.3517 C.2       1 <0>         0.0000
      6 C6          0.6147   -3.6665    2.9062 C.2       1 <0>         0.0000
      7 C7          1.8346   -5.3737    3.5264 C.2       1 <0>         0.0000
      8 C8         -1.2274   -1.0294    1.4878 C.2       1 <0>         0.0000
      9 C9         -3.8154   -2.2220    2.9812 C.3       1 <0>         0.0000
     10 C10         2.9443   -6.3488    3.3682 C.3       1 <0>         0.0000
     11 C11        -0.3227   -0.5818    0.3596 C.3       1 <0>         0.0000
     12 N1         -1.7702   -3.2994    5.6042 N.1       1 <0>         0.0000
     13 N2         -4.7134    0.0058    2.3860 N.2       1 <0>         0.0000
     14 N3          0.9640   -5.2525    4.4678 N.2       1 <0>         0.0000
     15 N4         -0.9092   -1.9925    2.2976 N.2       1 <0>         0.0000
     16 N5          0.2771   -2.6354    2.0789 N.pl3     1 <0>         0.0000
     17 O1          1.6796   -4.4190    2.5148 O.3       1 <0>         0.0000
     18 S1         -2.8395    1.2340    1.1109 S.3       1 <0>         0.0000
     19 H1         -5.1275    1.9605    1.7041 H         1 <0>         0.0000
     20 H2         -3.3973   -2.2414    3.9923 H         1 <0>         0.0000
     21 H3         -4.8797   -2.4607    3.0386 H         1 <0>         0.0000
     22 H4         -3.2876   -2.9932    2.4154 H         1 <0>         0.0000
     23 H5          2.8258   -6.9348    2.4509 H         1 <0>         0.0000
     24 H6          3.9117   -5.8383    3.3195 H         1 <0>         0.0000
     25 H7          2.9389   -7.0225    4.2256 H         1 <0>         0.0000
     26 H8          0.6724   -0.3206    0.7387 H         1 <0>         0.0000
     27 H9         -0.2033   -1.3805   -0.3848 H         1 <0>         0.0000
     28 H10        -0.7189    0.2832   -0.1713 H         1 <0>         0.0000
     29 H11         0.7763   -2.5687    1.1953 H         1 <0>         0.0000
@<TRIPOS>BOND
     1    1    3 1
     2    1   12 3
     3    2   13 2
     4    2   18 1
     5    2   19 1
     6    3    6 2
     7    3   14 1
     8    4    5 2
     9    4    8 1
    10    4   18 1
    11    5    9 1
    12    5   13 1
    13    6   16 1
    14    6   17 1
    15    7   10 1
    16    7   14 2
    17    7   17 1
    18    8   11 1
    19    8   15 2
    20    9   20 1
    21    9   21 1
    22    9   22 1
    23   10   23 1
    24   10   24 1
    25   10   25 1
    26   11   26 1
    27   11   27 1
    28   11   28 1
    29   15   16 1
    30   16   29 1
