@<TRIPOS>MOLECULE
*****
   31    33     0     0     0
SMALL
NO_CHARGES

@<TRIPOS>ATOM
      1 C1         -4.7088    5.4437    4.5486 C.1       1 <0>         0.0000
      2 C2         -2.4713   -1.2080   -0.3688 C.ar      1 <0>         0.0000
      3 C3         -3.5005   -0.6705   -1.1365 C.ar      1 <0>         0.0000
      4 C4         -4.2016    0.7968    0.7043 C.ar      1 <0>         0.0000
      5 C5         -1.6478   -0.3690    3.0604 C.2       1 <0>         0.0000
      6 C6         -4.3138    5.5326    3.1880 C.2       1 <0>         0.0000
      7 C7         -3.1415    0.2875    1.4826 C.ar      1 <0>         0.0000
      8 C8         -2.6916    0.5159    2.8449 C.2       1 <0>         0.0000
      9 C9         -2.3068   -0.7260    0.9338 C.ar      1 <0>         0.0000
     10 C10        -4.3483    0.3140   -0.5890 C.ar      1 <0>         0.0000
     11 C11        -3.7879    4.5615    2.3653 C.2       1 <0>         0.0000
     12 C12        -3.9762    6.4414    1.2645 C.2       1 <0>         0.0000
     13 C13        -3.2025    1.4400    3.8609 C.2       1 <0>         0.0000
     14 C14        -3.8459    7.3015    0.0599 C.3       1 <0>         0.0000
     15 N1         -5.0432    5.4049    5.6656 N.1       1 <0>         0.0000
     16 N2         -4.4191    6.7225    2.4413 N.2       1 <0>         0.0000
     17 N3         -3.5901    2.6623    3.7171 N.2       1 <0>         0.0000
     18 N4         -1.4092   -1.1012    1.9208 N.pl3     1 <0>         0.0000
     19 N5         -3.5006    3.2295    2.4767 N.pl3     1 <0>         0.0000
     20 O1         -3.5644    5.1115    1.1408 O.3       1 <0>         0.0000
     21 Br1        -5.7659    1.0059   -1.6834 Br        1 <0>         0.0000
     22 H1         -1.8258   -1.9813   -0.7765 H         1 <0>         0.0000
     23 H2         -3.6598   -1.0144   -2.1527 H         1 <0>         0.0000
     24 H3         -4.8885    1.5344    1.1024 H         1 <0>         0.0000
     25 H4         -1.0491   -0.5135    3.9503 H         1 <0>         0.0000
     26 H5         -3.2562    1.0862    4.8887 H         1 <0>         0.0000
     27 H6         -2.8025    7.3673   -0.2656 H         1 <0>         0.0000
     28 H7         -4.4335    6.9015   -0.7728 H         1 <0>         0.0000
     29 H8         -4.2073    8.3005    0.3055 H         1 <0>         0.0000
     30 H9         -0.6895   -1.8036    1.8213 H         1 <0>         0.0000
     31 H10        -2.9162    2.8151    1.7514 H         1 <0>         0.0000
@<TRIPOS>BOND
     1    1    6 1
     2    1   15 3
     3    2    3 ar
     4    2    9 ar
     5    2   22 1
     6    3   10 ar
     7    3   23 1
     8    4    7 ar
     9    4   10 ar
    10    4   24 1
    11    5    8 2
    12    5   18 1
    13    5   25 1
    14    6   11 2
    15    6   16 1
    16    7    8 1
    17    7    9 ar
    18    8   13 1
    19    9   18 1
    20   10   21 1
    21   11   19 1
    22   11   20 1
    23   12   14 1
    24   12   16 2
    25   12   20 1
    26   13   17 2
    27   13   26 1
    28   14   27 1
    29   14   28 1
    30   14   29 1
    31   17   19 1
    32   18   30 1
    33   19   31 1
