@<TRIPOS>MOLECULE
*****
   16    16     0     0     0
SMALL
NO_CHARGES

@<TRIPOS>ATOM
      1 C1          1.4845   -0.0062    1.8487 C.ar      1 <0>         0.0000
      2 C2          1.6209   -0.6636    3.0627 C.ar      1 <0>         0.0000
      3 C3          0.3261   -0.2251    1.0987 C.ar      1 <0>         0.0000
      4 C4         -0.6545   -1.1026    1.5727 C.ar      1 <0>         0.0000
      5 C5          0.5751   -1.5112    3.4574 C.ar      1 <0>         0.0000
      6 C6         -1.8931   -1.5036    0.7962 C.2       1 <0>         0.0000
      7 N1         -0.5193   -1.7313    2.7461 N.ar      1 <0>         0.0000
      8 N2          0.1590    0.4888   -0.1727 N.pl3     1 <0>         0.0000
      9 O1         -0.9303    0.3848   -0.7432 O.3       1 <0>         0.0000
     10 O2         -1.8975   -2.4139    0.0004 O.2       1 <0>         0.0000
     11 O3          1.1150    1.1527   -0.5829 O.2       1 <0>         0.0000
     12 O4         -2.9701   -0.7943    1.1773 O.3       1 <0>         0.0000
     13 Cl1         0.6986   -2.3440    4.9850 Cl        1 <0>         0.0000
     14 H1          2.2453    0.6697    1.4749 H         1 <0>         0.0000
     15 H2          2.4961   -0.5299    3.6883 H         1 <0>         0.0000
     16 H3         -3.7287   -1.1264    0.6573 H         1 <0>         0.0000
@<TRIPOS>BOND
     1    1    2 ar
     2    1    3 ar
     3    1   14 1
     4    2    5 ar
     5    2   15 1
     6    3    4 ar
     7    3    8 1
     8    4    6 1
     9    4    7 ar
    10    5    7 ar
    11    5   13 1
    12    6   10 2
    13    6   12 1
    14    8    9 1
    15    8   11 2
    16   12   16 1
