@<TRIPOS>MOLECULE
*****
   20    21     0     0     0
SMALL
NO_CHARGES

@<TRIPOS>ATOM
      1 C1          1.9316   -1.1211   -0.0585 C.ar      1 <0>         0.0000
      2 C2          0.7609   -0.6546    0.5345 C.ar      1 <0>         0.0000
      3 C3          5.1678   -5.2120    1.5571 C.2       1 <0>         0.0000
      4 C4          6.3415   -5.2002    0.8362 C.2       1 <0>         0.0000
      5 C5          3.0184   -1.5610    0.7132 C.ar      1 <0>         0.0000
      6 C6          0.6867   -0.6039    1.9234 C.ar      1 <0>         0.0000
      7 C7          2.9207   -1.4804    2.1060 C.ar      1 <0>         0.0000
      8 C8          1.7618   -1.0036    2.7165 C.ar      1 <0>         0.0000
      9 C9          4.8752   -3.3037    0.4882 C.2       1 <0>         0.0000
     10 C10         4.2312   -2.0648   -0.0054 C.2       1 <0>         0.0000
     11 N1          4.3481   -4.1376    1.3534 N.2       1 <0>         0.0000
     12 O1          4.6445   -1.5083   -1.0180 O.2       1 <0>         0.0000
     13 F1         -0.4246   -0.1516    2.5308 F         1 <0>         0.0000
     14 F2          3.9560   -1.7911    2.9015 F         1 <0>         0.0000
     15 F3          1.6908   -0.9125    4.0533 F         1 <0>         0.0000
     16 S1          6.4294   -3.7943   -0.1536 S.3       1 <0>         0.0000
     17 H1          2.0196   -1.1613   -1.1391 H         1 <0>         0.0000
     18 H2         -0.0901   -0.3288   -0.0544 H         1 <0>         0.0000
     19 H3          4.8690   -5.9924    2.2484 H         1 <0>         0.0000
     20 H4          7.1361   -5.9355    0.8450 H         1 <0>         0.0000
@<TRIPOS>BOND
     1    1    2 ar
     2    1    5 ar
     3    1   17 1
     4    2    6 ar
     5    2   18 1
     6    3    4 2
     7    3   11 1
     8    3   19 1
     9    4   16 1
    10    4   20 1
    11    5    7 ar
    12    5   10 1
    13    6    8 ar
    14    6   13 1
    15    7    8 ar
    16    7   14 1
    17    8   15 1
    18    9   10 1
    19    9   11 2
    20    9   16 1
    21   10   12 2
