@<TRIPOS>MOLECULE
*****
   23    24     0     0     0
SMALL
NO_CHARGES

@<TRIPOS>ATOM
      1 C1         -1.5059    1.9901    0.6008 C.2       1 <0>         0.0000
      2 C2         -2.2263    0.8148    0.2393 C.2       1 <0>         0.0000
      3 C3         -0.7758    1.8329    1.7533 C.2       1 <0>         0.0000
      4 C4         -7.6104   -3.0366   -1.1471 C.2       1 <0>         0.0000
      5 C5         -2.0353   -0.2367    1.1234 C.2       1 <0>         0.0000
      6 C6         -7.7589   -1.6840   -1.2710 C.2       1 <0>         0.0000
      7 C7         -5.6977   -1.7182   -0.4660 C.2       1 <0>         0.0000
      8 C8         -2.5362   -1.6058    1.1116 C.2       1 <0>         0.0000
      9 C9         -8.9767   -0.9690   -1.7771 C.3       1 <0>         0.0000
     10 N1         -6.6557   -0.9359   -0.8795 N.2       1 <0>         0.0000
     11 N2         -3.6196   -2.0715    0.5784 N.2       1 <0>         0.0000
     12 N3         -4.4697   -1.2267   -0.0572 N.pl3     1 <0>         0.0000
     13 S1         -0.9514    0.2454    2.4124 S.3       1 <0>         0.0000
     14 S2         -6.0310   -3.4370   -0.5054 S.3       1 <0>         0.0000
     15 H1         -1.5228    2.9104    0.0265 H         1 <0>         0.0000
     16 H2         -2.8009    0.7313   -0.6765 H         1 <0>         0.0000
     17 H3         -0.1505    2.5616    2.2534 H         1 <0>         0.0000
     18 H4         -8.3231   -3.8158   -1.3831 H         1 <0>         0.0000
     19 H5         -1.9423   -2.3590    1.6253 H         1 <0>         0.0000
     20 H6         -9.3671   -0.2881   -1.0131 H         1 <0>         0.0000
     21 H7         -8.7296   -0.3655   -2.6571 H         1 <0>         0.0000
     22 H8         -9.7641   -1.6763   -2.0490 H         1 <0>         0.0000
     23 H9         -4.4556   -0.2273    0.1480 H         1 <0>         0.0000
@<TRIPOS>BOND
     1    1    2 1
     2    1    3 2
     3    1   15 1
     4    2    5 2
     5    2   16 1
     6    3   13 1
     7    3   17 1
     8    4    6 2
     9    4   14 1
    10    4   18 1
    11    5    8 1
    12    5   13 1
    13    6    9 1
    14    6   10 1
    15    7   10 2
    16    7   12 1
    17    7   14 1
    18    8   11 2
    19    8   19 1
    20    9   20 1
    21    9   21 1
    22    9   22 1
    23   11   12 1
    24   12   23 1
