@<TRIPOS>MOLECULE
*****
   15    15     0     0     0
SMALL
NO_CHARGES

@<TRIPOS>ATOM
      1 C1         -0.1064    0.9544    1.3524 C.2       1 <0>         0.0000
      2 C2         -0.6814   -0.0509    0.4839 C.2       1 <0>         0.0000
      3 C3         -0.8615    1.1314    2.5241 C.2       1 <0>         0.0000
      4 C4         -0.1408   -0.4938   -0.8443 C.3       1 <0>         0.0000
      5 N1         -1.7832   -0.6107    0.9284 N.2       1 <0>         0.0000
      6 N2         -0.6248    1.9605    3.5576 N.pl3     1 <0>         0.0000
      7 N3          1.0719    1.7024    1.0840 N.pl3     1 <0>         0.0000
      8 O1          1.4366    2.5502    1.9352 O.3       1 <0>         0.0000
      9 O2          1.6909    1.4958    0.0313 O.2       1 <0>         0.0000
     10 S1         -2.2102    0.0397    2.4451 S.3       1 <0>         0.0000
     11 H1          0.8734   -0.8873   -0.7384 H         1 <0>         0.0000
     12 H2         -0.7981   -1.2645   -1.2503 H         1 <0>         0.0000
     13 H3         -0.0811    0.3481   -1.5389 H         1 <0>         0.0000
     14 H4          0.1696    2.5892    3.4757 H         1 <0>         0.0000
     15 H5         -1.2839    2.0571    4.3169 H         1 <0>         0.0000
@<TRIPOS>BOND
     1    1    2 1
     2    1    3 2
     3    1    7 1
     4    2    4 1
     5    2    5 2
     6    3    6 1
     7    3   10 1
     8    4   11 1
     9    4   12 1
    10    4   13 1
    11    5   10 1
    12    6   14 1
    13    6   15 1
    14    7    8 1
    15    7    9 2
