@<TRIPOS>MOLECULE
*****
   29    31     0     0     0
SMALL
NO_CHARGES

@<TRIPOS>ATOM
      1 C1         -3.9513   -0.1576    3.5458 C.2       1 <0>         0.0000
      2 C2         -0.5233   -0.3197    1.0293 C.ar      1 <0>         0.0000
      3 C3          3.0062    2.9969    0.1325 C.ar      1 <0>         0.0000
      4 C4          1.6420    4.2486    1.7068 C.ar      1 <0>         0.0000
      5 C5         -1.3878   -1.3986    1.1200 C.ar      1 <0>         0.0000
      6 C6          3.8898    4.0718    0.0265 C.ar      1 <0>         0.0000
      7 C7          2.5172    5.3249    1.6073 C.ar      1 <0>         0.0000
      8 C8         -4.7596   -1.2423    3.5937 C.2       1 <0>         0.0000
      9 C9         -1.8879    0.9281    2.6059 C.ar      1 <0>         0.0000
     10 C10        -2.7750   -0.1562    2.7100 C.ar      1 <0>         0.0000
     11 C11         1.8820    3.0745    0.9678 C.ar      1 <0>         0.0000
     12 C12        -0.7691    0.8572    1.7758 C.ar      1 <0>         0.0000
     13 C13        -2.5100   -1.3170    1.9576 C.ar      1 <0>         0.0000
     14 C14         3.6350    5.2271    0.7670 C.ar      1 <0>         0.0000
     15 C15        -4.4790   -2.4435    2.8107 C.2       1 <0>         0.0000
     16 N1          1.0591    1.9232    0.9937 N.2       1 <0>         0.0000
     17 N2          0.0516    2.0092    1.7518 N.2       1 <0>         0.0000
     18 O1         -5.1439   -3.4556    2.7919 O.2       1 <0>         0.0000
     19 O2         -3.3289   -2.4054    2.0113 O.3       1 <0>         0.0000
     20 Br1         4.8356    6.7114    0.6344 Br        1 <0>         0.0000
     21 H1         -4.1777    0.7272    4.1366 H         1 <0>         0.0000
     22 H2          0.3507   -0.3594    0.3885 H         1 <0>         0.0000
     23 H3          3.1750    2.0831   -0.4300 H         1 <0>         0.0000
     24 H4          0.7705    4.3010    2.3504 H         1 <0>         0.0000
     25 H5         -1.2204   -2.3120    0.5573 H         1 <0>         0.0000
     26 H6          4.7596    4.0125   -0.6193 H         1 <0>         0.0000
     27 H7          2.3405    6.2340    2.1731 H         1 <0>         0.0000
     28 H8         -5.6519   -1.2836    4.2082 H         1 <0>         0.0000
     29 H9         -2.0633    1.8385    3.1728 H         1 <0>         0.0000
@<TRIPOS>BOND
     1    1   10 1
     2    1    8 2
     3    1   21 1
     4    2    5 ar
     5    2   12 ar
     6    2   22 1
     7    3    6 ar
     8    3   11 ar
     9    3   23 1
    10    4    7 ar
    11    4   11 ar
    12    4   24 1
    13    5   13 ar
    14    5   25 1
    15    6   14 ar
    16    6   26 1
    17    7   14 ar
    18    7   27 1
    19    8   15 1
    20    8   28 1
    21    9   10 ar
    22    9   12 ar
    23    9   29 1
    24   10   13 ar
    25   11   16 1
    26   12   17 1
    27   13   19 1
    28   14   20 1
    29   15   18 2
    30   15   19 1
    31   16   17 2
