@<TRIPOS>MOLECULE
*****
   48    51     0     0     0
SMALL
NO_CHARGES

@<TRIPOS>ATOM
      1 C1         -1.7533    0.3464   10.7788 C.2       1 <0>         0.0000
      2 C2         -2.2282    1.5756   10.4111 C.2       1 <0>         0.0000
      3 C3         -1.5479    0.1073    8.5880 C.2       1 <0>         0.0000
      4 C4          0.7901   -0.0591    3.1183 C.2       1 <0>         0.0000
      5 C5          1.5241   -2.7546    3.8708 C.3       1 <0>         0.0000
      6 C6          0.2382   -2.1732    4.4455 C.3       1 <0>         0.0000
      7 C7          1.2716   -0.1025    5.5717 C.3       1 <0>         0.0000
      8 C8          0.7211    0.1812    0.0475 C.3       1 <0>         0.0000
      9 C9          2.9779    0.7177    1.0217 C.3       1 <0>         0.0000
     10 C10         1.6764   -2.3105    2.4228 C.3       1 <0>         0.0000
     11 C11         0.4296    0.9428    6.3351 C.3       1 <0>         0.0000
     12 C12        -1.0653    0.0008    4.8562 C.3       1 <0>         0.0000
     13 C13         1.2792    0.6471   -1.3009 C.3       1 <0>         0.0000
     14 C14         3.3960    1.1560   -0.3852 C.3       1 <0>         0.0000
     15 C15         1.8723   -0.3426    0.9183 C.3       1 <0>         0.0000
     16 C16         0.3094   -0.6402    4.4590 C.3       1 <0>         0.0000
     17 C17        -1.2883   -0.5330    7.2523 C.3       1 <0>         0.0000
     18 N1         -1.3662   -0.4777    9.7405 N.2       1 <0>         0.0000
     19 N2          1.4415   -0.8727    2.2299 N.am      1 <0>         0.0000
     20 N3         -0.9638    0.4755    6.2433 N.3       1 <0>         0.0000
     21 O1          0.6237    1.1452    2.8881 O.2       1 <0>         0.0000
     22 O2          2.2922    1.6387   -1.1477 O.3       1 <0>         0.0000
     23 S1         -2.1971    1.7343    8.6830 S.3       1 <0>         0.0000
     24 H1         -1.6556   -0.0058   11.8003 H         1 <0>         0.0000
     25 H2         -2.5677    2.3821   11.0481 H         1 <0>         0.0000
     26 H3          2.3847   -2.4150    4.4583 H         1 <0>         0.0000
     27 H4          1.5204   -3.8493    3.9039 H         1 <0>         0.0000
     28 H5         -0.6111   -2.4992    3.8301 H         1 <0>         0.0000
     29 H6          0.0539   -2.5457    5.4586 H         1 <0>         0.0000
     30 H7          2.1871    0.3339    5.1656 H         1 <0>         0.0000
     31 H8          1.5656   -0.9235    6.2344 H         1 <0>         0.0000
     32 H9          0.2305    1.0153    0.5515 H         1 <0>         0.0000
     33 H10        -0.0216   -0.6099   -0.1149 H         1 <0>         0.0000
     34 H11         3.8462    0.3083    1.5531 H         1 <0>         0.0000
     35 H12         2.6048    1.5762    1.5828 H         1 <0>         0.0000
     36 H13         2.6882   -2.5374    2.0685 H         1 <0>         0.0000
     37 H14         0.9802   -2.8770    1.7862 H         1 <0>         0.0000
     38 H15         0.7329    1.0694    7.3774 H         1 <0>         0.0000
     39 H16         0.5000    1.9132    5.8355 H         1 <0>         0.0000
     40 H17        -1.2480    0.8636    4.2132 H         1 <0>         0.0000
     41 H18        -1.8960   -0.7016    4.7483 H         1 <0>         0.0000
     42 H19         1.6871   -0.2118   -1.8623 H         1 <0>         0.0000
     43 H20         0.4959    1.1064   -1.9093 H         1 <0>         0.0000
     44 H21         4.1152    1.9779   -0.3405 H         1 <0>         0.0000
     45 H22         3.8722    0.3153   -0.9195 H         1 <0>         0.0000
     46 H23         2.2995   -1.2067    0.3946 H         1 <0>         0.0000
     47 H24        -0.5178   -1.3051    7.4062 H         1 <0>         0.0000
     48 H25        -2.1994   -1.0519    6.9335 H         1 <0>         0.0000
@<TRIPOS>BOND
     1    1    2 2
     2    1   18 1
     3    1   24 1
     4    2   23 1
     5    2   25 1
     6    3   17 1
     7    3   18 2
     8    3   23 1
     9    4   16 1
    10    4   19 am
    11    4   21 2
    12    5    6 1
    13    5   10 1
    14    5   26 1
    15    5   27 1
    16    6   16 1
    17    6   28 1
    18    6   29 1
    19    7   11 1
    20    7   16 1
    21    7   30 1
    22    7   31 1
    23    8   13 1
    24    8   15 1
    25    8   32 1
    26    8   33 1
    27    9   14 1
    28    9   15 1
    29    9   34 1
    30    9   35 1
    31   10   19 1
    32   10   36 1
    33   10   37 1
    34   11   20 1
    35   11   38 1
    36   11   39 1
    37   12   16 1
    38   12   20 1
    39   12   40 1
    40   12   41 1
    41   13   22 1
    42   13   42 1
    43   13   43 1
    44   14   22 1
    45   14   44 1
    46   14   45 1
    47   15   19 1
    48   15   46 1
    49   17   20 1
    50   17   47 1
    51   17   48 1
