@<TRIPOS>MOLECULE
*****
   44    46     0     0     0
SMALL
NO_CHARGES

@<TRIPOS>ATOM
      1 C1         -1.6387    4.5512   -2.1846 C.2       1 <0>         0.0000
      2 C2         -1.9887    3.3134   -0.1187 C.2       1 <0>         0.0000
      3 C3         -1.9308    3.3318   -1.4993 C.2       1 <0>         0.0000
      4 C4         -1.4481    5.7135   -1.4853 C.2       1 <0>         0.0000
      5 C5         -1.7966    4.5294    0.6548 C.2       1 <0>         0.0000
      6 C6          1.6813   -2.0833    0.8640 C.2       1 <0>         0.0000
      7 C7         -2.4036    2.0637    0.6112 C.2       1 <0>         0.0000
      8 C8          0.7190    0.9779    2.3007 C.3       1 <0>         0.0000
      9 C9         -1.0406   -0.7931    2.0479 C.3       1 <0>         0.0000
     10 C10        -0.2271    2.1138    1.8594 C.3       1 <0>         0.0000
     11 C11        -1.9513    0.4133    2.3596 C.3       1 <0>         0.0000
     12 C12         0.4907   -0.2523    0.0608 C.3       1 <0>         0.0000
     13 C13         0.3586   -0.3273    1.5991 C.3       1 <0>         0.0000
     14 C14        -2.1909    2.1000   -2.3315 C.3       1 <0>         0.0000
     15 C15        -1.1560    7.0479   -2.1091 C.3       1 <0>         0.0000
     16 C16         1.4390   -1.9334   -1.5851 C.3       1 <0>         0.0000
     17 N1         -1.5290    5.6708   -0.1216 N.am      1 <0>         0.0000
     18 N2          1.0526   -1.5532   -0.2412 N.am      1 <0>         0.0000
     19 N3         -1.5592    1.5767    1.5657 N.am      1 <0>         0.0000
     20 O1         -1.8509    4.6397    1.8853 O.2       1 <0>         0.0000
     21 O2          2.4207   -3.0442    0.9105 O.2       1 <0>         0.0000
     22 O3         -3.4675    1.5043    0.3168 O.2       1 <0>         0.0000
     23 O4          1.3323   -1.3440    1.9660 O.3       1 <0>         0.0000
     24 H1         -1.5756    4.5656   -3.2670 H         1 <0>         0.0000
     25 H2          1.7549    1.2506    2.0793 H         1 <0>         0.0000
     26 H3          0.6551    0.8171    3.3813 H         1 <0>         0.0000
     27 H4         -0.9207   -1.4063    2.9457 H         1 <0>         0.0000
     28 H5         -1.4830   -1.4282    1.2747 H         1 <0>         0.0000
     29 H6         -0.2911    2.8870    2.6310 H         1 <0>         0.0000
     30 H7          0.1580    2.5893    0.9547 H         1 <0>         0.0000
     31 H8         -2.9948    0.1937    2.1424 H         1 <0>         0.0000
     32 H9         -1.8745    0.6853    3.4191 H         1 <0>         0.0000
     33 H10        -0.4776   -0.1052   -0.4241 H         1 <0>         0.0000
     34 H11         1.1651    0.5586   -0.2572 H         1 <0>         0.0000
     35 H12        -1.6805    2.1686   -3.2964 H         1 <0>         0.0000
     36 H13        -3.2658    2.0016   -2.5142 H         1 <0>         0.0000
     37 H14        -1.8787    1.1849   -1.8263 H         1 <0>         0.0000
     38 H15        -1.9394    7.7737   -1.8627 H         1 <0>         0.0000
     39 H16        -1.1011    6.9601   -3.1952 H         1 <0>         0.0000
     40 H17        -0.2026    7.4503   -1.7479 H         1 <0>         0.0000
     41 H18         0.5573   -1.9793   -2.2324 H         1 <0>         0.0000
     42 H19         1.9048   -2.9187   -1.5420 H         1 <0>         0.0000
     43 H20         2.1565   -1.2198   -2.0149 H         1 <0>         0.0000
     44 H21        -1.4043    6.5184    0.4248 H         1 <0>         0.0000
@<TRIPOS>BOND
     1    1    3 1
     2    1    4 2
     3    1   24 1
     4    2    3 2
     5    2    5 1
     6    2    7 1
     7    3   14 1
     8    4   15 1
     9    4   17 1
    10    5   17 am
    11    5   20 2
    12    6   18 am
    13    6   21 2
    14    6   23 1
    15    7   19 am
    16    7   22 2
    17    8   10 1
    18    8   13 1
    19    8   25 1
    20    8   26 1
    21    9   11 1
    22    9   13 1
    23    9   27 1
    24    9   28 1
    25   10   19 1
    26   10   29 1
    27   10   30 1
    28   11   19 1
    29   11   31 1
    30   11   32 1
    31   12   13 1
    32   12   18 1
    33   12   33 1
    34   12   34 1
    35   13   23 1
    36   14   35 1
    37   14   36 1
    38   14   37 1
    39   15   38 1
    40   15   39 1
    41   15   40 1
    42   16   18 1
    43   16   41 1
    44   16   42 1
    45   16   43 1
    46   17   44 1
