@<TRIPOS>MOLECULE
*****
   20    21     0     0     0
SMALL
NO_CHARGES

@<TRIPOS>ATOM
      1 C1          1.7515   -0.9357   -0.1823 C.ar      1 <0>         0.0000
      2 C2          0.6999   -0.3189    0.4917 C.ar      1 <0>         0.0000
      3 C3          4.7903   -0.5139   -3.2152 C.2       1 <0>         0.0000
      4 C4          5.6375   -1.5487   -3.5410 C.2       1 <0>         0.0000
      5 C5          2.7735   -1.6094    0.5091 C.ar      1 <0>         0.0000
      6 C6          0.6770   -0.3522    1.8819 C.ar      1 <0>         0.0000
      7 C7          2.7168   -1.6301    1.9125 C.ar      1 <0>         0.0000
      8 C8          1.6827   -0.9977    2.6004 C.ar      1 <0>         0.0000
      9 C9          4.3815   -1.8274   -1.4850 C.2       1 <0>         0.0000
     10 C10         3.8552   -2.3594   -0.1978 C.2       1 <0>         0.0000
     11 N1          4.0871   -0.6809   -2.0534 N.2       1 <0>         0.0000
     12 O1          4.3245   -3.4006    0.2496 O.2       1 <0>         0.0000
     13 F1         -0.3169    0.2440    2.5628 F         1 <0>         0.0000
     14 F2          3.6692   -2.2180    2.6457 F         1 <0>         0.0000
     15 F3          1.6582   -1.0097    3.9415 F         1 <0>         0.0000
     16 S1          5.5644   -2.7900   -2.3509 S.3       1 <0>         0.0000
     17 H1          1.7827   -0.9004   -1.2631 H         1 <0>         0.0000
     18 H2         -0.0971    0.1907   -0.0395 H         1 <0>         0.0000
     19 H3          4.6554    0.3903   -3.7987 H         1 <0>         0.0000
     20 H4          6.2862   -1.6299   -4.4040 H         1 <0>         0.0000
@<TRIPOS>BOND
     1    1    2 ar
     2    1    5 ar
     3    1   17 1
     4    2    6 ar
     5    2   18 1
     6    3    4 2
     7    3   11 1
     8    3   19 1
     9    4   16 1
    10    4   20 1
    11    5    7 ar
    12    5   10 1
    13    6    8 ar
    14    6   13 1
    15    7    8 ar
    16    7   14 1
    17    8   15 1
    18    9   10 1
    19    9   11 2
    20    9   16 1
    21   10   12 2
