@<TRIPOS>MOLECULE
*****
   20    21     0     0     0
SMALL
NO_CHARGES

@<TRIPOS>ATOM
      1 C1          1.9252   -1.2700   -0.0468 C.ar      1 <0>         0.0000
      2 C2          0.6816   -0.9953    0.5163 C.ar      1 <0>         0.0000
      3 C3          7.1714   -3.7487    1.0573 C.2       1 <0>         0.0000
      4 C4          6.3162   -4.5285    1.8026 C.2       1 <0>         0.0000
      5 C5          3.0875   -1.3301    0.7385 C.ar      1 <0>         0.0000
      6 C6          0.6013   -0.7495    1.8846 C.ar      1 <0>         0.0000
      7 C7          2.9748   -1.0622    2.1060 C.ar      1 <0>         0.0000
      8 C8          1.7412   -0.7713    2.6873 C.ar      1 <0>         0.0000
      9 C9          5.3143   -2.6182    0.6724 C.2       1 <0>         0.0000
     10 C10         4.3975   -1.6155    0.0572 C.2       1 <0>         0.0000
     11 N1          6.5974   -2.6860    0.4184 N.2       1 <0>         0.0000
     12 O1          4.6653   -1.0885   -1.0109 O.2       1 <0>         0.0000
     13 F1         -0.5818   -0.4727    2.4590 F         1 <0>         0.0000
     14 F2          4.0610   -1.0320    2.8999 F         1 <0>         0.0000
     15 F3          1.6575   -0.5010    3.9978 F         1 <0>         0.0000
     16 S1          4.7177   -3.8980    1.7222 S.3       1 <0>         0.0000
     17 H1          2.0170   -1.4473   -1.1133 H         1 <0>         0.0000
     18 H2         -0.2237   -0.9632   -0.0811 H         1 <0>         0.0000
     19 H3          8.2364   -3.9256    0.9512 H         1 <0>         0.0000
     20 H4          6.5441   -5.4204    2.3722 H         1 <0>         0.0000
@<TRIPOS>BOND
     1    1    2 ar
     2    1    5 ar
     3    1   17 1
     4    2    6 ar
     5    2   18 1
     6    3    4 2
     7    3   11 1
     8    3   19 1
     9    4   16 1
    10    4   20 1
    11    5    7 ar
    12    5   10 1
    13    6    8 ar
    14    6   13 1
    15    7    8 ar
    16    7   14 1
    17    8   15 1
    18    9   10 1
    19    9   11 2
    20    9   16 1
    21   10   12 2
