@<TRIPOS>MOLECULE
*****
   20    20     0     0     0
SMALL
NO_CHARGES

@<TRIPOS>ATOM
      1 C1         -0.3790   -0.2948    1.7037 C.ar      1 <0>         0.0000
      2 C2          0.4283    0.4490    2.5602 C.ar      1 <0>         0.0000
      3 C3          0.0469    0.4961    3.9077 C.ar      1 <0>         0.0000
      4 C4         -1.7403   -0.8269    3.4456 C.ar      1 <0>         0.0000
      5 C5          0.8712    1.2210    4.9486 C.2       1 <0>         0.0000
      6 C6         -3.6207   -2.2144    3.0300 C.3       1 <0>         0.0000
      7 C7          1.1235    3.2349    6.1449 C.3       1 <0>         0.0000
      8 N1         -1.4666   -0.9401    2.1401 N.ar      1 <0>         0.0000
      9 N2         -1.0368   -0.1337    4.3543 N.ar      1 <0>         0.0000
     10 O1          1.8202    0.7183    5.5102 O.2       1 <0>         0.0000
     11 O2         -2.8175   -1.4480    3.9459 O.3       1 <0>         0.0000
     12 O3          0.4054    2.4614    5.1539 O.3       1 <0>         0.0000
     13 Br1         1.9673    1.3663    1.9108 Br        1 <0>         0.0000
     14 H1         -0.1484   -0.3741    0.6433 H         1 <0>         0.0000
     15 H2         -4.4248   -2.6268    3.6393 H         1 <0>         0.0000
     16 H3         -3.0324   -3.0159    2.5765 H         1 <0>         0.0000
     17 H4         -4.0251   -1.5751    2.2413 H         1 <0>         0.0000
     18 H5          0.6184    4.1992    6.1773 H         1 <0>         0.0000
     19 H6          2.1670    3.3510    5.8446 H         1 <0>         0.0000
     20 H7          1.0750    2.7370    7.1154 H         1 <0>         0.0000
@<TRIPOS>BOND
     1    1    2 ar
     2    1    8 ar
     3    1   14 1
     4    2    3 ar
     5    2   13 1
     6    3    5 1
     7    3    9 ar
     8    4    8 ar
     9    4    9 ar
    10    4   11 1
    11    5   10 2
    12    5   12 1
    13    6   11 1
    14    6   15 1
    15    6   16 1
    16    6   17 1
    17    7   12 1
    18    7   18 1
    19    7   19 1
    20    7   20 1
