@<TRIPOS>MOLECULE
*****
   25    26     0     0     0
SMALL
NO_CHARGES

@<TRIPOS>ATOM
      1 C1          1.6574   -2.1719    0.4102 C.ar      1 <0>         0.0000
      2 C2          0.5633   -1.6211    1.0688 C.ar      1 <0>         0.0000
      3 C3          2.9453   -1.6483    0.5884 C.ar      1 <0>         0.0000
      4 C4          2.0415    0.0081    2.1101 C.ar      1 <0>         0.0000
      5 C5          0.7556   -0.5202    1.9276 C.ar      1 <0>         0.0000
      6 C6          3.1335   -0.5555    1.4414 C.ar      1 <0>         0.0000
      7 C7         -6.0083   -0.0488    3.6124 C.2       1 <0>         0.0000
      8 C8         -3.8260   -0.0914    3.1578 C.2       1 <0>         0.0000
      9 C9         -0.3590    0.0994    2.6461 C.2       1 <0>         0.0000
     10 C10        -5.9718   -1.2457    2.6313 C.3       1 <0>         0.0000
     11 N1         -4.7558    0.5198    3.8340 N.2       1 <0>         0.0000
     12 N2         -1.5649   -0.3326    2.5265 N.2       1 <0>         0.0000
     13 N3         -2.5330    0.3087    3.2346 N.pl3     1 <0>         0.0000
     14 O1         -7.0515    0.3240    4.1165 O.2       1 <0>         0.0000
     15 O2          4.3636    0.0109    1.6656 O.3       1 <0>         0.0000
     16 S1         -4.2345   -1.4695    2.1150 S.3       1 <0>         0.0000
     17 H1          1.5179   -3.0208   -0.2537 H         1 <0>         0.0000
     18 H2         -0.4343   -2.0242    0.9328 H         1 <0>         0.0000
     19 H3          3.7930   -2.0892    0.0666 H         1 <0>         0.0000
     20 H4          2.2136    0.8565    2.7673 H         1 <0>         0.0000
     21 H5         -0.1220    0.9529    3.2950 H         1 <0>         0.0000
     22 H6         -6.3438   -2.1408    3.1329 H         1 <0>         0.0000
     23 H7         -6.6059   -1.0310    1.7693 H         1 <0>         0.0000
     24 H8         -2.3276    1.1034    3.8418 H         1 <0>         0.0000
     25 H9          5.0336   -0.4649    1.1496 H         1 <0>         0.0000
@<TRIPOS>BOND
     1    1    2 ar
     2    1    3 ar
     3    1   17 1
     4    2    5 ar
     5    2   18 1
     6    3    6 ar
     7    3   19 1
     8    4    5 ar
     9    4    6 ar
    10    4   20 1
    11    5    9 1
    12    6   15 1
    13    7   10 1
    14    7   11 1
    15    7   14 2
    16    8   11 2
    17    8   13 1
    18    8   16 1
    19    9   12 2
    20    9   21 1
    21   10   16 1
    22   10   22 1
    23   10   23 1
    24   12   13 1
    25   13   24 1
    26   15   25 1
