@<TRIPOS>MOLECULE
*****
   50    52     0     0     0
SMALL
NO_CHARGES

@<TRIPOS>ATOM
      1 C1          1.7055    0.8648   -4.0725 C.2       1 <0>         0.0000
      2 C2         -2.2100    1.0284   -5.8040 C.2       1 <0>         0.0000
      3 C3          2.1657   -2.1384   -0.9088 C.3       1 <0>         0.0000
      4 C4          1.5146   -0.8099   -0.5009 C.3       1 <0>         0.0000
      5 C5          3.3462   -1.9112   -1.8626 C.3       1 <0>         0.0000
      6 C6          1.0664   -0.0061   -1.7321 C.3       1 <0>         0.0000
      7 C7          2.9219   -1.1116   -3.1038 C.3       1 <0>         0.0000
      8 C8         -1.9610   -2.0048   -6.1677 C.3       1 <0>         0.0000
      9 C9         -2.2823   -1.9820   -7.6711 C.3       1 <0>         0.0000
     10 C10        -0.2149   -0.8383   -4.5274 C.3       1 <0>         0.0000
     11 C11         0.2823    1.0364   -6.0213 C.3       1 <0>         0.0000
     12 C12        -1.2447    0.2018   -7.9841 C.3       1 <0>         0.0000
     13 C13        -0.7691   -1.0884   -5.9281 C.3       1 <0>         0.0000
     14 C14         2.2087    0.2267   -2.7550 C.3       1 <0>         0.0000
     15 C15        -1.0079    0.3304   -6.4748 C.3       1 <0>         0.0000
     16 C16         3.2351    1.2068   -2.1514 C.3       1 <0>         0.0000
     17 C17        -2.8421   -0.6289   -9.5957 C.3       1 <0>         0.0000
     18 N1          0.6151    0.3684   -4.7448 N.am      1 <0>         0.0000
     19 N2         -2.4386   -0.6161   -8.1945 N.3       1 <0>         0.0000
     20 O1          2.2999    1.8323   -4.5643 O.2       1 <0>         0.0000
     21 O2         -2.8289    0.6089   -4.8532 O.2       1 <0>         0.0000
     22 O3         -2.5316    2.2529   -6.3113 O.3       1 <0>         0.0000
     23 H1          1.4155   -2.7700   -1.4061 H         1 <0>         0.0000
     24 H2          2.4973   -2.6880   -0.0201 H         1 <0>         0.0000
     25 H3          0.6439   -0.9973    0.1383 H         1 <0>         0.0000
     26 H4          2.2192   -0.2272    0.1034 H         1 <0>         0.0000
     27 H5          4.1488   -1.3856   -1.3322 H         1 <0>         0.0000
     28 H6          3.7667   -2.8724   -2.1814 H         1 <0>         0.0000
     29 H7          0.2395   -0.5487   -2.1908 H         1 <0>         0.0000
     30 H8          0.6620    0.9653   -1.4247 H         1 <0>         0.0000
     31 H9          3.7931   -0.8905   -3.7309 H         1 <0>         0.0000
     32 H10         2.2641   -1.7461   -3.7070 H         1 <0>         0.0000
     33 H11        -2.8246   -1.6728   -5.5897 H         1 <0>         0.0000
     34 H12        -1.7273   -3.0340   -5.8717 H         1 <0>         0.0000
     35 H13        -1.4831   -2.5180   -8.2222 H         1 <0>         0.0000
     36 H14        -3.2169   -2.5194   -7.8588 H         1 <0>         0.0000
     37 H15        -1.0232   -0.6453   -3.8193 H         1 <0>         0.0000
     38 H16         0.3803   -1.6791   -4.1720 H         1 <0>         0.0000
     39 H17         1.0895    0.8920   -6.7502 H         1 <0>         0.0000
     40 H18         0.1791    2.1126   -5.8651 H         1 <0>         0.0000
     41 H19        -1.3996    1.1685   -8.4799 H         1 <0>         0.0000
     42 H20        -0.3402   -0.2381   -8.4480 H         1 <0>         0.0000
     43 H21         0.0693   -1.4807   -6.5229 H         1 <0>         0.0000
     44 H22         3.6476    0.8159   -1.2191 H         1 <0>         0.0000
     45 H23         2.7678    2.1720   -1.9388 H         1 <0>         0.0000
     46 H24         4.0571    1.3881   -2.8459 H         1 <0>         0.0000
     47 H25        -3.0190    0.3951   -9.9398 H         1 <0>         0.0000
     48 H26        -3.7774   -1.1859   -9.7035 H         1 <0>         0.0000
     49 H27        -2.0873   -1.0920  -10.2588 H         1 <0>         0.0000
     50 H28        -1.9568    2.4674   -7.0645 H         1 <0>         0.0000
@<TRIPOS>BOND
     1    1   14 1
     2    1   18 am
     3    1   20 2
     4    2   15 1
     5    2   21 2
     6    2   22 1
     7    3    5 1
     8    3    4 1
     9    3   23 1
    10    3   24 1
    11    4    6 1
    12    4   25 1
    13    4   26 1
    14    5    7 1
    15    5   27 1
    16    5   28 1
    17    6   14 1
    18    6   29 1
    19    6   30 1
    20    7   14 1
    21    7   31 1
    22    7   32 1
    23    8    9 1
    24    8   13 1
    25    8   33 1
    26    8   34 1
    27    9   19 1
    28    9   35 1
    29    9   36 1
    30   10   13 1
    31   10   18 1
    32   10   37 1
    33   10   38 1
    34   11   15 1
    35   11   18 1
    36   11   39 1
    37   11   40 1
    38   12   15 1
    39   12   19 1
    40   12   41 1
    41   12   42 1
    42   13   15 1
    43   13   43 1
    44   14   16 1
    45   16   44 1
    46   16   45 1
    47   16   46 1
    48   17   19 1
    49   17   47 1
    50   17   48 1
    51   17   49 1
    52   22   50 1
