@<TRIPOS>MOLECULE
*****
   25    26     0     0     0
SMALL
NO_CHARGES

@<TRIPOS>ATOM
      1 C1          3.1450   -0.5322    1.4570 C.ar      1 <0>         0.0000
      2 C2          2.0603    0.0349    2.1274 C.ar      1 <0>         0.0000
      3 C3          2.9592   -1.6228    0.6052 C.ar      1 <0>         0.0000
      4 C4          0.5782   -1.5926    1.0881 C.ar      1 <0>         0.0000
      5 C5          0.7706   -0.4959    1.9436 C.ar      1 <0>         0.0000
      6 C6          1.6698   -2.1504    0.4240 C.ar      1 <0>         0.0000
      7 C7         -6.0009   -0.0460    3.6132 C.2       1 <0>         0.0000
      8 C8         -3.8180   -0.0845    3.1617 C.2       1 <0>         0.0000
      9 C9         -0.3499    0.1173    2.6583 C.2       1 <0>         0.0000
     10 C10        -5.9603   -1.2423    2.6317 C.3       1 <0>         0.0000
     11 N1         -4.7499    0.5249    3.8371 N.2       1 <0>         0.0000
     12 N2         -1.5542   -0.3183    2.5357 N.2       1 <0>         0.0000
     13 N3         -2.5262    0.3192    3.2415 N.pl3     1 <0>         0.0000
     14 O1         -7.0455    0.3248    4.1162 O.2       1 <0>         0.0000
     15 O2          1.4251   -3.2200   -0.3994 O.3       1 <0>         0.0000
     16 S1         -4.2217   -1.4625    2.1179 S.3       1 <0>         0.0000
     17 H1          4.1429   -0.1257    1.5958 H         1 <0>         0.0000
     18 H2          2.2110    0.8839    2.7893 H         1 <0>         0.0000
     19 H3          3.8085   -2.0619    0.0844 H         1 <0>         0.0000
     20 H4         -0.4127   -2.0087    0.9401 H         1 <0>         0.0000
     21 H5         -0.1167    0.9710    3.3082 H         1 <0>         0.0000
     22 H6         -6.3312   -2.1386    3.1321 H         1 <0>         0.0000
     23 H7         -6.5935   -1.0287    1.7687 H         1 <0>         0.0000
     24 H8         -2.3249    1.1142    3.8498 H         1 <0>         0.0000
     25 H9          2.2584   -3.5147   -0.7997 H         1 <0>         0.0000
@<TRIPOS>BOND
     1    1    2 ar
     2    1    3 ar
     3    1   17 1
     4    2    5 ar
     5    2   18 1
     6    3    6 ar
     7    3   19 1
     8    4    5 ar
     9    4    6 ar
    10    4   20 1
    11    5    9 1
    12    6   15 1
    13    7   10 1
    14    7   11 1
    15    7   14 2
    16    8   11 2
    17    8   13 1
    18    8   16 1
    19    9   12 2
    20    9   21 1
    21   10   16 1
    22   10   22 1
    23   10   23 1
    24   12   13 1
    25   13   24 1
    26   15   25 1
