@<TRIPOS>MOLECULE
*****
   30    31     0     0     0
SMALL
NO_CHARGES

@<TRIPOS>ATOM
      1 C1         -3.5115   -1.6362   -3.0410 C.ar      1 <0>         0.0000
      2 C2         -2.5156   -0.7761   -2.5782 C.ar      1 <0>         0.0000
      3 C3         -4.8195   -1.5773   -2.5509 C.ar      1 <0>         0.0000
      4 C4         -4.1401    0.2518   -1.0888 C.ar      1 <0>         0.0000
      5 C5          3.5778    1.0238   -2.5465 C.2       1 <0>         0.0000
      6 C6          1.6660    1.7951   -1.2269 C.2       1 <0>         0.0000
      7 C7         -2.8285    0.1780   -1.5941 C.ar      1 <0>         0.0000
      8 C8          2.1855    0.9806   -2.2311 C.2       1 <0>         0.0000
      9 C9         -5.1080   -0.6227   -1.5732 C.ar      1 <0>         0.0000
     10 C10         4.3838    1.8685   -1.8531 C.2       1 <0>         0.0000
     11 C11         2.5425    2.6891   -0.4989 C.2       1 <0>         0.0000
     12 C12         0.2652    1.8002   -0.8624 C.2       1 <0>         0.0000
     13 C13         5.8547    2.0384   -2.0537 C.3       1 <0>         0.0000
     14 N1         -0.5825    1.0203   -1.4611 N.2       1 <0>         0.0000
     15 N2         -1.8875    1.0788   -1.1026 N.pl3     1 <0>         0.0000
     16 O1          2.2285    3.4502    0.3957 O.2       1 <0>         0.0000
     17 O2          3.9024    2.6697   -0.8720 O.3       1 <0>         0.0000
     18 O3          1.4252    0.1367   -2.9361 O.3       1 <0>         0.0000
     19 Cl1        -6.7393   -0.5151   -0.9285 Cl        1 <0>         0.0000
     20 H1         -3.2629   -2.3718   -3.8012 H         1 <0>         0.0000
     21 H2         -1.5101   -0.8447   -2.9739 H         1 <0>         0.0000
     22 H3         -5.5907   -2.2483   -2.9128 H         1 <0>         0.0000
     23 H4         -4.4007    0.9840   -0.3295 H         1 <0>         0.0000
     24 H5          3.9734    0.3878   -3.3289 H         1 <0>         0.0000
     25 H6         -0.0379    2.4887   -0.0684 H         1 <0>         0.0000
     26 H7          6.0819    3.0773   -2.3149 H         1 <0>         0.0000
     27 H8          6.2161    1.3824   -2.8473 H         1 <0>         0.0000
     28 H9          6.3905    1.8097   -1.1264 H         1 <0>         0.0000
     29 H10        -2.1433    1.6627   -0.3096 H         1 <0>         0.0000
     30 H11         0.4904    0.2257   -2.6003 H         1 <0>         0.0000
@<TRIPOS>BOND
     1    1    2 ar
     2    1    3 ar
     3    1   20 1
     4    2    7 ar
     5    2   21 1
     6    3    9 ar
     7    3   22 1
     8    4    7 ar
     9    4    9 ar
    10    4   23 1
    11    5    8 1
    12    5   10 2
    13    5   24 1
    14    6    8 2
    15    6   11 1
    16    6   12 1
    17    7   15 1
    18    8   18 1
    19    9   19 1
    20   10   13 1
    21   10   17 1
    22   11   16 2
    23   11   17 1
    24   12   14 2
    25   12   25 1
    26   13   26 1
    27   13   27 1
    28   13   28 1
    29   14   15 1
    30   15   29 1
    31   18   30 1
