@<TRIPOS>MOLECULE
*****
   40    42     0     0     0
SMALL
NO_CHARGES

@<TRIPOS>ATOM
      1 C1         -1.4899    4.2789    2.6471 C.1       1 <0>         0.0000
      2 C2         -8.1840    2.4642    4.0807 C.ar      1 <0>         0.0000
      3 C3         -7.2439    4.4278    5.0987 C.ar      1 <0>         0.0000
      4 C4         -6.9734    2.2141    3.4338 C.ar      1 <0>         0.0000
      5 C5         -6.0255    4.1967    4.4627 C.ar      1 <0>         0.0000
      6 C6         -8.3441    3.5716    4.9259 C.ar      1 <0>         0.0000
      7 C7         -5.8891    3.0816    3.6241 C.ar      1 <0>         0.0000
      8 C8         -2.2974    2.1355    1.5875 C.2       1 <0>         0.0000
      9 C9         -1.5066    0.5886    0.2580 C.2       1 <0>         0.0000
     10 C10        -2.5158    3.2981    2.4466 C.2       1 <0>         0.0000
     11 C11        -0.5866   -0.1790   -0.6320 C.3       1 <0>         0.0000
     12 C12        -0.0082    0.6583   -1.7915 C.3       1 <0>         0.0000
     13 C13         1.0945    1.6462   -1.3832 C.3       1 <0>         0.0000
     14 C14         0.6813    2.7559   -0.4048 C.3       1 <0>         0.0000
     15 C15         0.2247    2.2621    0.9724 C.3       1 <0>         0.0000
     16 C16        -9.6458    3.8210    5.6514 C.3       1 <0>         0.0000
     17 N1         -0.6439    5.0708    2.7885 N.1       1 <0>         0.0000
     18 N2         -3.2795    1.2846    1.2876 N.2       1 <0>         0.0000
     19 N3         -2.7827    0.3188    0.4502 N.2       1 <0>         0.0000
     20 N4         -3.6457    3.5778    3.0723 N.2       1 <0>         0.0000
     21 N5         -1.1404    1.7175    0.9551 N.pl3     1 <0>         0.0000
     22 N6         -4.6892    2.7938    2.9504 N.pl3     1 <0>         0.0000
     23 H1         -9.0179    1.7844    3.9211 H         1 <0>         0.0000
     24 H2         -7.3420    5.2974    5.7450 H         1 <0>         0.0000
     25 H3         -6.8692    1.3516    2.7795 H         1 <0>         0.0000
     26 H4         -5.1845    4.8666    4.6026 H         1 <0>         0.0000
     27 H5          0.2349   -0.6115   -0.0448 H         1 <0>         0.0000
     28 H6         -1.1723   -1.0137   -1.0243 H         1 <0>         0.0000
     29 H7          0.4083   -0.0339   -2.5317 H         1 <0>         0.0000
     30 H8         -0.8274    1.1915   -2.2889 H         1 <0>         0.0000
     31 H9          1.9285    1.0828   -0.9419 H         1 <0>         0.0000
     32 H10         1.4924    2.1168   -2.2897 H         1 <0>         0.0000
     33 H11         1.5414    3.4151   -0.2425 H         1 <0>         0.0000
     34 H12        -0.1113    3.3788   -0.8360 H         1 <0>         0.0000
     35 H13         0.8931    1.4758    1.3409 H         1 <0>         0.0000
     36 H14         0.2577    3.0740    1.6918 H         1 <0>         0.0000
     37 H15        -9.6260    3.3847    6.6577 H         1 <0>         0.0000
     38 H16        -9.8415    4.8918    5.7641 H         1 <0>         0.0000
     39 H17       -10.4919    3.3773    5.1184 H         1 <0>         0.0000
     40 H18        -4.6182    1.9689    2.3310 H         1 <0>         0.0000
@<TRIPOS>BOND
     1    1   10 1
     2    1   17 3
     3    2    4 ar
     4    2    6 ar
     5    2   23 1
     6    3    5 ar
     7    3    6 ar
     8    3   24 1
     9    4    7 ar
    10    4   25 1
    11    5    7 ar
    12    5   26 1
    13    6   16 1
    14    7   22 1
    15    8   10 1
    16    8   18 2
    17    8   21 1
    18    9   11 1
    19    9   19 2
    20    9   21 1
    21   10   20 2
    22   11   12 1
    23   11   27 1
    24   11   28 1
    25   12   13 1
    26   12   29 1
    27   12   30 1
    28   13   14 1
    29   13   31 1
    30   13   32 1
    31   14   15 1
    32   14   33 1
    33   14   34 1
    34   15   21 1
    35   15   35 1
    36   15   36 1
    37   16   37 1
    38   16   38 1
    39   16   39 1
    40   18   19 1
    41   20   22 1
    42   22   40 1
