@<TRIPOS>MOLECULE
*****
   28    29     0     0     0
SMALL
NO_CHARGES

@<TRIPOS>ATOM
      1 C1          2.8693   -2.6088   -4.9580 C.1       1 <0>         0.0000
      2 C2          3.5623   -0.4052    1.2034 C.ar      1 <0>         0.0000
      3 C3          2.6696    0.4983    1.7859 C.ar      1 <0>         0.0000
      4 C4          1.7108   -1.6574    0.2788 C.ar      1 <0>         0.0000
      5 C5          3.1118   -2.9912   -3.6173 C.2       1 <0>         0.0000
      6 C6          3.0910   -1.4890    0.4538 C.ar      1 <0>         0.0000
      7 C7          1.3031    0.3164    1.6037 C.ar      1 <0>         0.0000
      8 C8          0.8145   -0.7543    0.8495 C.ar      1 <0>         0.0000
      9 C9          2.9083   -4.2627   -2.9889 C.2       1 <0>         0.0000
     10 C10         3.5860   -2.1522   -2.6001 C.2       1 <0>         0.0000
     11 C11         2.4079   -5.5194   -3.6264 C.3       1 <0>         0.0000
     12 C12         4.0593   -2.4864   -0.1587 C.3       1 <0>         0.0000
     13 N1          2.6726   -2.2671   -6.0582 N.1       1 <0>         0.0000
     14 N2          3.2238   -4.2083   -1.7021 N.2       1 <0>         0.0000
     15 N3          3.6581   -2.9161   -1.4846 N.pl3     1 <0>         0.0000
     16 N4          4.0030   -0.8317   -2.6323 N.pl3     1 <0>         0.0000
     17 F1          0.4470    1.1959    2.1593 F         1 <0>         0.0000
     18 Br1        -1.0618   -0.9647    0.6034 Br        1 <0>         0.0000
     19 H1          4.6314   -0.2595    1.3362 H         1 <0>         0.0000
     20 H2          3.0141    1.3454    2.3712 H         1 <0>         0.0000
     21 H3          1.3353   -2.4908   -0.3071 H         1 <0>         0.0000
     22 H4          3.1016   -5.8666   -4.3994 H         1 <0>         0.0000
     23 H5          2.3018   -6.3016   -2.8720 H         1 <0>         0.0000
     24 H6          1.4386   -5.3553   -4.1079 H         1 <0>         0.0000
     25 H7          5.0634   -2.0521   -0.2094 H         1 <0>         0.0000
     26 H8          4.1149   -3.3967    0.4422 H         1 <0>         0.0000
     27 H9          3.6747   -0.2712   -1.8502 H         1 <0>         0.0000
     28 H10         3.7941   -0.3808   -3.5180 H         1 <0>         0.0000
@<TRIPOS>BOND
     1    1    5 1
     2    1   13 3
     3    2    3 ar
     4    2    6 ar
     5    2   19 1
     6    3    7 ar
     7    3   20 1
     8    4    6 ar
     9    4    8 ar
    10    4   21 1
    11    5    9 1
    12    5   10 2
    13    6   12 1
    14    7    8 ar
    15    7   17 1
    16    8   18 1
    17    9   11 1
    18    9   14 2
    19   10   15 1
    20   10   16 1
    21   11   22 1
    22   11   23 1
    23   11   24 1
    24   12   15 1
    25   12   25 1
    26   12   26 1
    27   14   15 1
    28   16   27 1
    29   16   28 1
