@<TRIPOS>MOLECULE
*****
   34    36     0     0     0
SMALL
NO_CHARGES

@<TRIPOS>ATOM
      1 C1         -1.8582   -0.8486   -0.8239 C.ar      1 <0>         0.0000
      2 C2         -0.6716   -0.9622   -0.0878 C.ar      1 <0>         0.0000
      3 C3         -5.3459   -2.4391    1.7972 C.ar      1 <0>         0.0000
      4 C4         -4.5164   -3.2510    1.0230 C.ar      1 <0>         0.0000
      5 C5         -6.6062   -2.0615    1.3238 C.ar      1 <0>         0.0000
      6 C6         -2.5534   -1.9978   -1.1918 C.ar      1 <0>         0.0000
      7 C7         -0.1895   -2.2203    0.2687 C.ar      1 <0>         0.0000
      8 C8         -6.2414   -3.3452   -0.6782 C.ar      1 <0>         0.0000
      9 C9         -4.9645   -3.7009   -0.2266 C.ar      1 <0>         0.0000
     10 C10        -7.0712   -2.5084    0.0775 C.ar      1 <0>         0.0000
     11 C11        -2.1030   -3.2643   -0.7942 C.ar      1 <0>         0.0000
     12 C12        -0.9008   -3.3831   -0.0713 C.ar      1 <0>         0.0000
     13 C13        -4.1643   -4.6533   -1.0641 C.2       1 <0>         0.0000
     14 C14        -1.9517   -5.5457   -1.6342 C.3       1 <0>         0.0000
     15 C15        -1.2284   -6.1714   -0.4476 C.3       1 <0>         0.0000
     16 C16        -8.4269   -2.0882   -0.4428 C.3       1 <0>         0.0000
     17 N1         -2.7974   -4.4432   -1.1724 N.am      1 <0>         0.0000
     18 O1         -4.7045   -5.6169   -1.6097 O.2       1 <0>         0.0000
     19 S1         -0.2299   -4.9334    0.4855 S.3       1 <0>         0.0000
     20 H1         -2.2298    0.1272   -1.1230 H         1 <0>         0.0000
     21 H2         -0.1130   -0.0738    0.1939 H         1 <0>         0.0000
     22 H3         -5.0093   -2.0987    2.7729 H         1 <0>         0.0000
     23 H4         -3.5376   -3.5379    1.3939 H         1 <0>         0.0000
     24 H5         -7.2402   -1.4212    1.9338 H         1 <0>         0.0000
     25 H6         -3.4645   -1.9265   -1.7774 H         1 <0>         0.0000
     26 H7          0.7424   -2.3089    0.8216 H         1 <0>         0.0000
     27 H8         -6.5837   -3.7406   -1.6311 H         1 <0>         0.0000
     28 H9         -1.2386   -5.1628   -2.3701 H         1 <0>         0.0000
     29 H10        -2.5962   -6.2837   -2.1126 H         1 <0>         0.0000
     30 H11        -1.9544   -6.6217    0.2330 H         1 <0>         0.0000
     31 H12        -0.5311   -6.9443   -0.7824 H         1 <0>         0.0000
     32 H13        -8.3540   -1.1580   -1.0193 H         1 <0>         0.0000
     33 H14        -8.8541   -2.8498   -1.1015 H         1 <0>         0.0000
     34 H15        -9.1315   -1.9122    0.3754 H         1 <0>         0.0000
@<TRIPOS>BOND
     1    1    2 ar
     2    1    6 ar
     3    1   20 1
     4    2    7 ar
     5    2   21 1
     6    3    4 ar
     7    3    5 ar
     8    3   22 1
     9    4    9 ar
    10    4   23 1
    11    5   10 ar
    12    5   24 1
    13    6   11 ar
    14    6   25 1
    15    7   12 ar
    16    7   26 1
    17    8    9 ar
    18    8   10 ar
    19    8   27 1
    20    9   13 1
    21   10   16 1
    22   11   12 ar
    23   11   17 1
    24   12   19 1
    25   13   17 am
    26   13   18 2
    27   14   15 1
    28   14   17 1
    29   14   28 1
    30   14   29 1
    31   15   19 1
    32   15   30 1
    33   15   31 1
    34   16   32 1
    35   16   33 1
    36   16   34 1
