@<TRIPOS>MOLECULE
*****
   36    39     0     0     0
SMALL
NO_CHARGES

@<TRIPOS>ATOM
      1 C1          2.0352   -7.8582    3.7270 C.2       1 <0>         0.0000
      2 C2          2.5887   -5.8814    3.3081 C.2       1 <0>         0.0000
      3 C3          2.3385   -3.3070    1.3751 C.2       1 <0>         0.0000
      4 C4          2.0331   -2.6313    3.5691 C.2       1 <0>         0.0000
      5 C5         -0.1717   -2.3802   -0.5629 C.3       1 <0>         0.0000
      6 C6          0.4489   -0.9745   -0.6219 C.3       1 <0>         0.0000
      7 C7          3.1138  -10.1875    3.7940 C.3       1 <0>         0.0000
      8 C8          2.8165   -9.8019    5.2113 C.3       1 <0>         0.0000
      9 C9         -0.0741   -2.7337    0.9253 C.3       1 <0>         0.0000
     10 C10         1.6624   -1.0679    0.3259 C.3       1 <0>         0.0000
     11 C11         1.9284   -9.2726    4.0886 C.3       1 <0>         0.0000
     12 C12         1.3106   -2.1714    1.3681 C.3       1 <0>         0.0000
     13 C13         3.4518   -4.6607    3.1557 C.3       1 <0>         0.0000
     14 N1          3.0945   -7.0880    3.7373 N.2       1 <0>         0.0000
     15 N2          1.3053   -5.8809    3.0426 N.2       1 <0>         0.0000
     16 N3          1.3507   -1.7468    2.7686 N.am      1 <0>         0.0000
     17 N4          2.6979   -3.5183    2.6917 N.am      1 <0>         0.0000
     18 O1          2.7526   -3.9254    0.4097 O.2       1 <0>         0.0000
     19 O2          2.1040   -2.6628    4.7853 O.2       1 <0>         0.0000
     20 O3          0.9219   -7.2144    3.3233 O.3       1 <0>         0.0000
     21 H1         -1.1998   -2.4159   -0.9358 H         1 <0>         0.0000
     22 H2          0.4282   -3.0827   -1.1505 H         1 <0>         0.0000
     23 H3          0.7331   -0.6708   -1.6334 H         1 <0>         0.0000
     24 H4         -0.2717   -0.2366   -0.2481 H         1 <0>         0.0000
     25 H5          3.9681   -9.7239    3.3123 H         1 <0>         0.0000
     26 H6          2.8772  -11.1942    3.4640 H         1 <0>         0.0000
     27 H7          2.3720  -10.5388    5.8729 H         1 <0>         0.0000
     28 H8          3.4701   -9.0779    5.6861 H         1 <0>         0.0000
     29 H9         -0.8504   -2.2003    1.4882 H         1 <0>         0.0000
     30 H10        -0.1766   -3.7985    1.1484 H         1 <0>         0.0000
     31 H11         2.5495   -1.3781   -0.2327 H         1 <0>         0.0000
     32 H12         1.8966   -0.1277    0.8306 H         1 <0>         0.0000
     33 H13         0.9306   -9.6858    3.9920 H         1 <0>         0.0000
     34 H14         3.9006   -4.4147    4.1208 H         1 <0>         0.0000
     35 H15         4.2505   -4.8744    2.4407 H         1 <0>         0.0000
     36 H16         0.5917   -1.2271    3.1909 H         1 <0>         0.0000
@<TRIPOS>BOND
     1    1   11 1
     2    1   14 2
     3    1   20 1
     4    2   13 1
     5    2   14 1
     6    2   15 2
     7    3   12 1
     8    3   17 am
     9    3   18 2
    10    4   16 am
    11    4   17 am
    12    4   19 2
    13    5    6 1
    14    5    9 1
    15    5   21 1
    16    5   22 1
    17    6   10 1
    18    6   23 1
    19    6   24 1
    20    7    8 1
    21    7   11 1
    22    7   25 1
    23    7   26 1
    24    8   11 1
    25    8   27 1
    26    8   28 1
    27    9   12 1
    28    9   29 1
    29    9   30 1
    30   10   12 1
    31   10   31 1
    32   10   32 1
    33   11   33 1
    34   12   16 1
    35   13   17 1
    36   13   34 1
    37   13   35 1
    38   15   20 1
    39   16   36 1
