@<TRIPOS>MOLECULE
*****
   48    51     0     0     0
SMALL
NO_CHARGES

@<TRIPOS>ATOM
      1 C1          2.6672   -8.9309    3.1248 C.2       1 <0>         0.0000
      2 C2          1.7704   -9.3505    4.0715 C.2       1 <0>         0.0000
      3 C3          2.7198   -7.1140    4.3916 C.2       1 <0>         0.0000
      4 C4          2.3451   -1.6561    2.6888 C.2       1 <0>         0.0000
      5 C5          0.3699   -0.2472    4.3231 C.3       1 <0>         0.0000
      6 C6          1.2657   -1.3523    4.9343 C.3       1 <0>         0.0000
      7 C7          0.6055   -3.3662    3.4595 C.3       1 <0>         0.0000
      8 C8          1.0225   -0.0955   -0.1828 C.3       1 <0>         0.0000
      9 C9          2.2317    1.5743    1.2650 C.3       1 <0>         0.0000
     10 C10         0.2590   -0.3595    2.7966 C.3       1 <0>         0.0000
     11 C11         0.9595   -4.6965    4.1299 C.3       1 <0>         0.0000
     12 C12         2.7997   -3.3426    4.5282 C.3       1 <0>         0.0000
     13 C13         1.5128    0.7140   -1.3869 C.3       1 <0>         0.0000
     14 C14         2.6440    2.2789   -0.0309 C.3       1 <0>         0.0000
     15 C15         1.9925    0.0819    0.9942 C.3       1 <0>         0.0000
     16 C16         1.7524   -2.3928    3.9023 C.3       1 <0>         0.0000
     17 C17         3.0705   -5.7310    4.8714 C.3       1 <0>         0.0000
     18 N1          3.1963   -7.6739    3.3142 N.2       1 <0>         0.0000
     19 N2          1.5611   -0.6439    2.1936 N.am      1 <0>         0.0000
     20 N3          2.4177   -4.6879    4.0939 N.3       1 <0>         0.0000
     21 O1          3.4420   -1.9435    2.2056 O.2       1 <0>         0.0000
     22 O2          1.6787    2.0942   -1.0652 O.3       1 <0>         0.0000
     23 S1          1.5710   -8.1163    5.2691 S.3       1 <0>         0.0000
     24 H1          2.9797   -9.5150    2.2657 H         1 <0>         0.0000
     25 H2          1.2428  -10.2934    4.1313 H         1 <0>         0.0000
     26 H3         -0.6387   -0.2779    4.7482 H         1 <0>         0.0000
     27 H4          0.7850    0.7355    4.5670 H         1 <0>         0.0000
     28 H5          2.1473   -0.8960    5.3971 H         1 <0>         0.0000
     29 H6          0.7384   -1.8803    5.7361 H         1 <0>         0.0000
     30 H7          0.6058   -3.4925    2.3733 H         1 <0>         0.0000
     31 H8         -0.3832   -3.0115    3.7608 H         1 <0>         0.0000
     32 H9          0.0186    0.2519    0.0881 H         1 <0>         0.0000
     33 H10         0.9498   -1.1560   -0.4505 H         1 <0>         0.0000
     34 H11         3.0157    1.6933    2.0214 H         1 <0>         0.0000
     35 H12         1.3211    2.0505    1.6476 H         1 <0>         0.0000
     36 H13        -0.4694   -1.1281    2.5140 H         1 <0>         0.0000
     37 H14        -0.1128    0.5812    2.3869 H         1 <0>         0.0000
     38 H15         0.5690   -4.7260    5.1682 H         1 <0>         0.0000
     39 H16         0.5548   -5.5611    3.5970 H         1 <0>         0.0000
     40 H17         3.8129   -3.1060    4.1991 H         1 <0>         0.0000
     41 H18         2.7517   -3.2539    5.6313 H         1 <0>         0.0000
     42 H19         2.4671    0.3015   -1.7531 H         1 <0>         0.0000
     43 H20         0.7905    0.6783   -2.2065 H         1 <0>         0.0000
     44 H21         2.7281    3.3587    0.1165 H         1 <0>         0.0000
     45 H22         3.6238    1.9020   -0.3671 H         1 <0>         0.0000
     46 H23         2.9483   -0.3719    0.7226 H         1 <0>         0.0000
     47 H24         2.8264   -5.6507    5.9495 H         1 <0>         0.0000
     48 H25         4.1530   -5.6050    4.7694 H         1 <0>         0.0000
@<TRIPOS>BOND
     1    1    2 2
     2    1   18 1
     3    1   24 1
     4    2   23 1
     5    2   25 1
     6    3   17 1
     7    3   18 2
     8    3   23 1
     9    4   16 1
    10    4   19 am
    11    4   21 2
    12    5    6 1
    13    5   10 1
    14    5   26 1
    15    5   27 1
    16    6   16 1
    17    6   28 1
    18    6   29 1
    19    7   11 1
    20    7   16 1
    21    7   30 1
    22    7   31 1
    23    8   13 1
    24    8   15 1
    25    8   32 1
    26    8   33 1
    27    9   14 1
    28    9   15 1
    29    9   34 1
    30    9   35 1
    31   10   19 1
    32   10   36 1
    33   10   37 1
    34   11   20 1
    35   11   38 1
    36   11   39 1
    37   12   16 1
    38   12   20 1
    39   12   40 1
    40   12   41 1
    41   13   22 1
    42   13   42 1
    43   13   43 1
    44   14   22 1
    45   14   44 1
    46   14   45 1
    47   15   19 1
    48   15   46 1
    49   17   20 1
    50   17   47 1
    51   17   48 1
