@<TRIPOS>MOLECULE
*****
   24    24     0     0     0
SMALL
NO_CHARGES

@<TRIPOS>ATOM
      1 C1          1.2440   -3.2980   -3.2220 C.3       1 <0>         0.0000
      2 C2          1.7000   -1.9990   -3.9060 C.3       1 <0>         0.0000
      3 C3          1.2870   -2.9780   -1.7280 C.3       1 <0>         0.0000
      4 C4          2.0160   -1.0440   -2.7540 C.3       1 <0>         0.0000
      5 C5          3.7170    0.0470    1.1360 C.3       1 <0>         0.0000
      6 C6          3.7030   -0.6350   -0.2400 C.3       1 <0>         0.0000
      7 C7          2.3270   -1.3040   -0.3830 C.3       1 <0>         0.0000
      8 N1          2.3560   -1.9860   -1.6870 N.4       1 <0>         0.0000
      9 H1          0.2360   -3.5820   -3.5280 H         1 <0>         0.0000
     10 H2          1.9420   -4.1060   -3.4500 H         1 <0>         0.0000
     11 H3          2.5990   -2.1820   -4.4980 H         1 <0>         0.0000
     12 H4          0.9160   -1.5840   -4.5430 H         1 <0>         0.0000
     13 H5          1.5340   -3.8680   -1.1580 H         1 <0>         0.0000
     14 H6          0.3430   -2.5280   -1.4390 H         1 <0>         0.0000
     15 H7          2.8510   -0.4030   -3.0140 H         1 <0>         0.0000
     16 H8          1.1150   -0.4960   -2.4980 H         1 <0>         0.0000
     17 H9          4.6820    0.5350    1.2890 H         1 <0>         0.0000
     18 H10         3.5730   -0.6870    1.9310 H         1 <0>         0.0000
     19 H11         2.9340    0.8060    1.1960 H         1 <0>         0.0000
     20 H12         3.8610    0.1170   -1.0140 H         1 <0>         0.0000
     21 H13         4.4990   -1.3820   -0.2800 H         1 <0>         0.0000
     22 H14         2.2250   -2.0300    0.4160 H         1 <0>         0.0000
     23 H15         1.5510   -0.5480   -0.3540 H         1 <0>         0.0000
     24 H16         3.2540   -2.4210   -1.8630 H         1 <0>         0.0000
@<TRIPOS>BOND
     1    1    2 1
     2    1    3 1
     3    1    9 1
     4    1   10 1
     5    2    4 1
     6    2   11 1
     7    2   12 1
     8    3    8 1
     9    3   13 1
    10    3   14 1
    11    4    8 1
    12    4   15 1
    13    4   16 1
    14    5    6 1
    15    5   17 1
    16    5   18 1
    17    5   19 1
    18    6    7 1
    19    6   20 1
    20    6   21 1
    21    7    8 1
    22    7   22 1
    23    7   23 1
    24    8   24 1
