@<TRIPOS>MOLECULE
*****
   15    15     0     0     0
SMALL
NO_CHARGES

@<TRIPOS>ATOM
      1 C1         -1.6376   -0.5840   -1.2367 C.2       1 <0>         0.0000
      2 C2         -1.5414   -1.3093    1.2215 C.3       1 <0>         0.0000
      3 C3         -1.5755    0.1894    1.2090 C.3       1 <0>         0.0000
      4 C4         -0.9373   -0.5552    0.0879 C.3       1 <0>         0.0000
      5 C5         -1.8563   -1.8503   -3.2198 C.3       1 <0>         0.0000
      6 O1         -2.4251    0.2730   -1.6142 O.2       1 <0>         0.0000
      7 O2         -1.2586   -1.6961   -1.9286 O.3       1 <0>         0.0000
      8 H1         -0.8570   -1.7926    1.9080 H         1 <0>         0.0000
      9 H2         -2.4782   -1.8345    1.0797 H         1 <0>         0.0000
     10 H3         -2.5342    0.6701    1.0567 H         1 <0>         0.0000
     11 H4         -0.9138    0.7150    1.8866 H         1 <0>         0.0000
     12 H5          0.1307   -0.5326   -0.0031 H         1 <0>         0.0000
     13 H6         -1.4871   -2.7671   -3.6859 H         1 <0>         0.0000
     14 H7         -1.6085   -0.9870   -3.8425 H         1 <0>         0.0000
     15 H8         -2.9409   -1.9143   -3.1041 H         1 <0>         0.0000
@<TRIPOS>BOND
     1    1    4 1
     2    1    6 2
     3    1    7 1
     4    2    3 1
     5    2    4 1
     6    2    8 1
     7    2    9 1
     8    3    4 1
     9    3   10 1
    10    3   11 1
    11    4   12 1
    12    5    7 1
    13    5   13 1
    14    5   14 1
    15    5   15 1
