@<TRIPOS>MOLECULE
*****
   51    53     0     0     0
SMALL
NO_CHARGES

@<TRIPOS>ATOM
      1 C1         -0.0120    2.0697   -4.5326 C.2       1 <0>         0.0000
      2 C2         -0.5547    1.6126   -3.2945 C.2       1 <0>         0.0000
      3 C3         -0.3011    0.2744   -3.0829 C.2       1 <0>         0.0000
      4 C4         -0.0722    3.3964   -5.0964 C.2       1 <0>         0.0000
      5 C5          0.6278    1.0626   -5.2063 C.2       1 <0>         0.0000
      6 C6          1.2447    2.4583   -7.0632 C.2       1 <0>         0.0000
      7 C7          1.0664   -2.3483   -1.6165 C.2       1 <0>         0.0000
      8 C8          2.0904   -1.6146    0.2883 C.3       1 <0>         0.0000
      9 C9          1.2184   -0.4734   -0.2325 C.3       1 <0>         0.0000
     10 C10        -1.3060    2.4603   -2.3346 C.3       1 <0>         0.0000
     11 C11         2.0969    0.6235   -0.8531 C.3       1 <0>         0.0000
     12 C12         0.3536    0.1127    0.8839 C.3       1 <0>         0.0000
     13 C13         1.5040    5.7562   -6.2778 C.3       1 <0>         0.0000
     14 C14        -0.6858   -0.5769   -1.9348 C.3       1 <0>         0.0000
     15 C15         3.2690   -0.2348   -6.4325 C.3       1 <0>         0.0000
     16 C16         0.5517    4.8314   -6.9563 C.3       1 <0>         0.0000
     17 C17         1.9119    0.0393   -7.0730 C.3       1 <0>         0.0000
     18 C18         4.0189   -1.3823   -7.0795 C.3       1 <0>         0.0000
     19 N1          0.5813    3.5047   -6.3471 N.am      1 <0>         0.0000
     20 N2          1.2582    1.1846   -6.4403 N.am      1 <0>         0.0000
     21 N3          0.4593   -1.1602   -1.2597 N.am      1 <0>         0.0000
     22 O1         -0.6430    4.3234   -4.5270 O.2       1 <0>         0.0000
     23 O2          1.7751    2.6538   -8.1631 O.2       1 <0>         0.0000
     24 O3          0.7522   -3.1067   -2.5236 O.2       1 <0>         0.0000
     25 O4          2.1326   -2.5755   -0.7830 O.3       1 <0>         0.0000
     26 F1          5.2055   -1.5977   -6.4727 F         1 <0>         0.0000
     27 F2          3.3004   -2.5240   -6.9881 F         1 <0>         0.0000
     28 F3          4.2539   -1.1545   -8.3883 F         1 <0>         0.0000
     29 S1          0.5850   -0.4172   -4.3740 S.3       1 <0>         0.0000
     30 H1          3.1141   -1.3050    0.5210 H         1 <0>         0.0000
     31 H2          1.6659   -2.1178    1.1642 H         1 <0>         0.0000
     32 H3         -2.3820    2.4403   -2.5582 H         1 <0>         0.0000
     33 H4         -1.1653    2.1205   -1.2978 H         1 <0>         0.0000
     34 H5         -0.9685    3.5070   -2.3684 H         1 <0>         0.0000
     35 H6          1.4650    1.4272   -1.2186 H         1 <0>         0.0000
     36 H7          2.6665    0.2052   -1.6774 H         1 <0>         0.0000
     37 H8          2.7770    1.0094   -0.0998 H         1 <0>         0.0000
     38 H9         -0.2571    0.9221    0.4891 H         1 <0>         0.0000
     39 H10         0.9903    0.4989    1.6774 H         1 <0>         0.0000
     40 H11        -0.2956   -0.6605    1.2900 H         1 <0>         0.0000
     41 H12         2.5247    5.3534   -6.3545 H         1 <0>         0.0000
     42 H13         1.4626    6.7439   -6.7604 H         1 <0>         0.0000
     43 H14         1.2274    5.8542   -5.2177 H         1 <0>         0.0000
     44 H15        -1.2504   -0.0079   -1.1769 H         1 <0>         0.0000
     45 H16        -1.3367   -1.4135   -2.2393 H         1 <0>         0.0000
     46 H17         3.8836    0.6692   -6.5148 H         1 <0>         0.0000
     47 H18         3.1455   -0.4426   -5.3631 H         1 <0>         0.0000
     48 H19        -0.4659    5.2411   -6.8752 H         1 <0>         0.0000
     49 H20         0.8290    4.7456   -8.0173 H         1 <0>         0.0000
     50 H21         1.2633   -0.8401   -7.0030 H         1 <0>         0.0000
     51 H22         2.0502    0.2604   -8.1365 H         1 <0>         0.0000
@<TRIPOS>BOND
     1    1    2 1
     2    1    5 2
     3    1    4 1
     4    2    3 2
     5    2   10 1
     6    3   14 1
     7    3   29 1
     8    4   19 am
     9    4   22 2
    10    5   20 1
    11    5   29 1
    12    6   20 am
    13    6   19 am
    14    6   23 2
    15    7   21 am
    16    7   24 2
    17    7   25 1
    18    8    9 1
    19    8   25 1
    20    8   30 1
    21    8   31 1
    22    9   11 1
    23    9   12 1
    24    9   21 1
    25   10   32 1
    26   10   33 1
    27   10   34 1
    28   11   35 1
    29   11   36 1
    30   11   37 1
    31   12   38 1
    32   12   39 1
    33   12   40 1
    34   13   16 1
    35   13   41 1
    36   13   42 1
    37   13   43 1
    38   14   21 1
    39   14   44 1
    40   14   45 1
    41   15   17 1
    42   15   18 1
    43   15   46 1
    44   15   47 1
    45   16   19 1
    46   16   48 1
    47   16   49 1
    48   17   20 1
    49   17   50 1
    50   17   51 1
    51   18   26 1
    52   18   27 1
    53   18   28 1
