@<TRIPOS>MOLECULE
*****
   25    26     0     0     0
SMALL
NO_CHARGES

@<TRIPOS>ATOM
      1 C1          1.8611   -0.9874    0.0193 C.ar      1 <0>         0.0000
      2 C2          0.3997    2.8914    5.7807 C.ar      1 <0>         0.0000
      3 C3          0.7026   -1.4220    0.6735 C.ar      1 <0>         0.0000
      4 C4          3.0083   -0.6639    0.7529 C.ar      1 <0>         0.0000
      5 C5          1.7679    2.6270    5.6502 C.ar      1 <0>         0.0000
      6 C6         -0.5399    1.8769    5.5647 C.ar      1 <0>         0.0000
      7 C7          0.6822   -1.5262    2.0666 C.ar      1 <0>         0.0000
      8 C8          2.9998   -0.7642    2.1465 C.ar      1 <0>         0.0000
      9 C9          2.2035    1.3483    5.2933 C.ar      1 <0>         0.0000
     10 C10        -0.1164    0.5943    5.2074 C.ar      1 <0>         0.0000
     11 C11         1.8317   -1.1878    2.7837 C.ar      1 <0>         0.0000
     12 C12         1.2518    0.3513    5.0697 C.ar      1 <0>         0.0000
     13 O1          0.7477   -2.2451    4.9549 O.2       1 <0>         0.0000
     14 O2          3.1932   -1.4480    5.0389 O.2       1 <0>         0.0000
     15 S1          1.8038   -1.2914    4.5810 S.o2      1 <0>         0.0000
     16 H1          1.8726   -0.9090   -1.0646 H         1 <0>         0.0000
     17 H2          0.0657    3.8873    6.0596 H         1 <0>         0.0000
     18 H3         -0.1814   -1.6864    0.0997 H         1 <0>         0.0000
     19 H4          3.9105   -0.3410    0.2407 H         1 <0>         0.0000
     20 H5          2.4953    3.4132    5.8331 H         1 <0>         0.0000
     21 H6         -1.6006    2.0818    5.6814 H         1 <0>         0.0000
     22 H7         -0.1981   -1.8820    2.5929 H         1 <0>         0.0000
     23 H8          3.8849   -0.5396    2.7334 H         1 <0>         0.0000
     24 H9          3.2605    1.1158    5.2080 H         1 <0>         0.0000
     25 H10        -0.8268   -0.2127    5.0568 H         1 <0>         0.0000
@<TRIPOS>BOND
     1    1    4 ar
     2    1    3 ar
     3    1   16 1
     4    2    6 ar
     5    2    5 ar
     6    2   17 1
     7    3    7 ar
     8    3   18 1
     9    4    8 ar
    10    4   19 1
    11    5    9 ar
    12    5   20 1
    13    6   10 ar
    14    6   21 1
    15    7   11 ar
    16    7   22 1
    17    8   11 ar
    18    8   23 1
    19    9   12 ar
    20    9   24 1
    21   10   12 ar
    22   10   25 1
    23   11   15 1
    24   12   15 1
    25   13   15 2
    26   14   15 2
