@<TRIPOS>MOLECULE
*****
   39    42     0     0     0
SMALL
NO_CHARGES

@<TRIPOS>ATOM
      1 C1         -4.7245   -4.3519    5.0746 C.ar      1 <0>         0.0000
      2 C2          3.8044   -1.4184   -0.3845 C.ar      1 <0>         0.0000
      3 C3         -3.5925   -4.5735    4.3167 C.ar      1 <0>         0.0000
      4 C4          2.5413   -0.9109   -0.0858 C.ar      1 <0>         0.0000
      5 C5         -5.4410   -3.1356    4.9621 C.ar      1 <0>         0.0000
      6 C6         -1.6059   -2.7153    1.7473 C.ar      1 <0>         0.0000
      7 C7          4.9172   -0.5816   -0.2403 C.ar      1 <0>         0.0000
      8 C8          3.6070    1.1613    0.4533 C.ar      1 <0>         0.0000
      9 C9         -3.1420   -3.5761    3.4152 C.ar      1 <0>         0.0000
     10 C10         2.4226    0.4184    0.3482 C.ar      1 <0>         0.0000
     11 C11        -3.8442   -2.3381    3.2790 C.ar      1 <0>         0.0000
     12 C12        -1.9810   -3.7309    2.6008 C.ar      1 <0>         0.0000
     13 C13        -5.0017   -2.1690    4.0886 C.ar      1 <0>         0.0000
     14 C14        -2.3872   -1.5308    1.7003 C.ar      1 <0>         0.0000
     15 C15         0.2261    0.2256    1.7060 C.3       1 <0>         0.0000
     16 C16        -0.0597    0.7612   -0.3153 C.3       1 <0>         0.0000
     17 C17         1.0947    1.0328    0.6947 C.3       1 <0>         0.0000
     18 C18        -2.0040   -0.4178    0.7452 C.3       1 <0>         0.0000
     19 N1          4.8301    0.6896    0.1712 N.ar      1 <0>         0.0000
     20 N2         -3.4645   -1.3346    2.4389 N.ar      1 <0>         0.0000
     21 N3         -0.5655   -0.3114    0.5720 N.3       1 <0>         0.0000
     22 O1         -1.2962   -4.9047    2.7207 O.3       1 <0>         0.0000
     23 F1         -5.6887   -1.0121    3.9879 F         1 <0>         0.0000
     24 H1         -5.0768   -5.1113    5.7668 H         1 <0>         0.0000
     25 H2          3.9333   -2.4422   -0.7256 H         1 <0>         0.0000
     26 H3         -3.0383   -5.5022    4.3979 H         1 <0>         0.0000
     27 H4          1.6495   -1.5259   -0.1846 H         1 <0>         0.0000
     28 H5         -6.3326   -2.9494    5.5533 H         1 <0>         0.0000
     29 H6         -0.7249   -2.7882    1.1146 H         1 <0>         0.0000
     30 H7          5.9178   -0.9480   -0.4655 H         1 <0>         0.0000
     31 H8          3.5641    2.1993    0.7846 H         1 <0>         0.0000
     32 H9          0.7352   -0.5331    2.3092 H         1 <0>         0.0000
     33 H10        -0.3603    0.8818    2.3673 H         1 <0>         0.0000
     34 H11        -0.7454    1.6193   -0.3915 H         1 <0>         0.0000
     35 H12         0.2201    0.4294   -1.3210 H         1 <0>         0.0000
     36 H13         1.2288    2.0843    0.9556 H         1 <0>         0.0000
     37 H14        -2.4488   -0.6277   -0.2370 H         1 <0>         0.0000
     38 H15        -2.4604    0.5149    1.1157 H         1 <0>         0.0000
     39 H16        -0.5315   -4.8877    2.1221 H         1 <0>         0.0000
@<TRIPOS>BOND
     1    1    3 ar
     2    1    5 ar
     3    1   24 1
     4    2    4 ar
     5    2    7 ar
     6    2   25 1
     7    3    9 ar
     8    3   26 1
     9    4   10 ar
    10    4   27 1
    11    5   13 ar
    12    5   28 1
    13    6   12 ar
    14    6   14 ar
    15    6   29 1
    16    7   19 ar
    17    7   30 1
    18    8   10 ar
    19    8   19 ar
    20    8   31 1
    21    9   11 ar
    22    9   12 ar
    23   10   17 1
    24   11   13 ar
    25   11   20 ar
    26   12   22 1
    27   13   23 1
    28   14   18 1
    29   14   20 ar
    30   15   17 1
    31   15   21 1
    32   15   32 1
    33   15   33 1
    34   16   17 1
    35   16   21 1
    36   16   34 1
    37   16   35 1
    38   17   36 1
    39   18   21 1
    40   18   37 1
    41   18   38 1
    42   22   39 1
