@<TRIPOS>MOLECULE
*****
   26    26     0     0     0
SMALL
NO_CHARGES

@<TRIPOS>ATOM
      1 C1          1.7583   -1.1082   -0.1521 C.ar      1 <0>         0.0000
      2 C2          2.2947   -0.0303    0.5613 C.ar      1 <0>         0.0000
      3 C3          1.2516   -2.2118    0.5416 C.ar      1 <0>         0.0000
      4 C4          2.3200   -0.0589    1.9580 C.ar      1 <0>         0.0000
      5 C5          1.2729   -2.2382    1.9401 C.ar      1 <0>         0.0000
      6 C6          1.8075   -1.1609    2.6575 C.ar      1 <0>         0.0000
      7 C7          1.2910    0.6100    6.8673 C.2       1 <0>         0.0000
      8 C8          0.9950    0.6489    8.3571 C.3       1 <0>         0.0000
      9 C9          0.6074   -0.2712    4.6613 C.3       1 <0>         0.0000
     10 C10         1.7862   -1.1340    4.1685 C.3       1 <0>         0.0000
     11 N1          0.5204   -0.2496    6.1218 N.am      1 <0>         0.0000
     12 O1          2.1727    1.2983    6.3572 O.2       1 <0>         0.0000
     13 O2          1.6617   -2.4677    4.6694 O.3       1 <0>         0.0000
     14 H1          1.7425   -1.0904   -1.2389 H         1 <0>         0.0000
     15 H2          2.6990    0.8280    0.0306 H         1 <0>         0.0000
     16 H3          0.8420   -3.0563   -0.0073 H         1 <0>         0.0000
     17 H4          2.7484    0.7764    2.5087 H         1 <0>         0.0000
     18 H5          0.8929   -3.0980    2.4820 H         1 <0>         0.0000
     19 H6          1.9254    0.4814    8.9051 H         1 <0>         0.0000
     20 H7          0.6380    1.6497    8.6162 H         1 <0>         0.0000
     21 H8          0.2520   -0.0871    8.6779 H         1 <0>         0.0000
     22 H9         -0.3239   -0.6878    4.2684 H         1 <0>         0.0000
     23 H10         0.7223    0.7512    4.2923 H         1 <0>         0.0000
     24 H11         2.7144   -0.6802    4.5375 H         1 <0>         0.0000
     25 H12        -0.2745   -0.6904    6.5635 H         1 <0>         0.0000
     26 H13         1.6582   -2.3983    5.6379 H         1 <0>         0.0000
@<TRIPOS>BOND
     1    1    3 ar
     2    1    2 ar
     3    1   14 1
     4    2    4 ar
     5    2   15 1
     6    3    5 ar
     7    3   16 1
     8    4    6 ar
     9    4   17 1
    10    5    6 ar
    11    5   18 1
    12    6   10 1
    13    7    8 1
    14    7   11 am
    15    7   12 2
    16    8   19 1
    17    8   20 1
    18    8   21 1
    19    9   10 1
    20    9   11 1
    21    9   22 1
    22    9   23 1
    23   10   13 1
    24   10   24 1
    25   11   25 1
    26   13   26 1
