@<TRIPOS>MOLECULE
*****
   30    32     0     0     0
SMALL
NO_CHARGES

@<TRIPOS>ATOM
      1 C1          1.9686    6.1175    2.0837 C.ar      1 <0>         0.0000
      2 C2          2.8300    6.3328    3.1648 C.ar      1 <0>         0.0000
      3 C3          1.5288    4.8262    1.7868 C.ar      1 <0>         0.0000
      4 C4          3.2688    5.2567    3.9417 C.ar      1 <0>         0.0000
      5 C5          1.9562    3.7401    2.5569 C.ar      1 <0>         0.0000
      6 C6          2.8356    3.9767    3.6178 C.ar      1 <0>         0.0000
      7 C7          1.1760    0.3681    1.2407 C.2       1 <0>         0.0000
      8 C8          0.6269    0.2861    2.4650 C.2       1 <0>         0.0000
      9 C9          1.7688    1.7308    1.0639 C.2       1 <0>         0.0000
     10 C10         0.8175    1.5913    3.1722 C.2       1 <0>         0.0000
     11 C11         1.1918   -0.7354    0.2323 C.3       1 <0>         0.0000
     12 C12        -0.0770   -0.9138    3.0110 C.3       1 <0>         0.0000
     13 C13         0.8140   -2.0650    0.9137 C.3       1 <0>         0.0000
     14 C14        -0.3825   -1.9021    1.8688 C.3       1 <0>         0.0000
     15 N1          1.5263    2.4210    2.2723 N.am      1 <0>         0.0000
     16 O1          2.3445    2.1809    0.0917 O.2       1 <0>         0.0000
     17 O2          0.4334    1.9128    4.2788 O.2       1 <0>         0.0000
     18 F1          3.2895    2.9256    4.3370 F         1 <0>         0.0000
     19 H1          1.6334    6.9535    1.4771 H         1 <0>         0.0000
     20 H2          3.1659    7.3378    3.4044 H         1 <0>         0.0000
     21 H3          0.8568    4.6446    0.9541 H         1 <0>         0.0000
     22 H4          3.9450    5.3915    4.7802 H         1 <0>         0.0000
     23 H5          0.4844   -0.4967   -0.5732 H         1 <0>         0.0000
     24 H6          2.1764   -0.7949   -0.2437 H         1 <0>         0.0000
     25 H7          0.5579   -1.3842    3.7736 H         1 <0>         0.0000
     26 H8         -0.9906   -0.6079    3.5320 H         1 <0>         0.0000
     27 H9          0.5890   -2.8196    0.1532 H         1 <0>         0.0000
     28 H10         1.6779   -2.4334    1.4809 H         1 <0>         0.0000
     29 H11        -0.6660   -2.8736    2.2860 H         1 <0>         0.0000
     30 H12        -1.2473   -1.5361    1.3011 H         1 <0>         0.0000
@<TRIPOS>BOND
     1    1    2 ar
     2    1    3 ar
     3    1   19 1
     4    2    4 ar
     5    2   20 1
     6    3    5 ar
     7    3   21 1
     8    4    6 ar
     9    4   22 1
    10    5    6 ar
    11    5   15 1
    12    6   18 1
    13    7    8 2
    14    7    9 1
    15    7   11 1
    16    8   10 1
    17    8   12 1
    18    9   15 am
    19    9   16 2
    20   10   15 am
    21   10   17 2
    22   11   13 1
    23   11   23 1
    24   11   24 1
    25   12   14 1
    26   12   25 1
    27   12   26 1
    28   13   14 1
    29   13   27 1
    30   13   28 1
    31   14   29 1
    32   14   30 1
