@<TRIPOS>MOLECULE
*****
   26    26     0     0     0
SMALL
NO_CHARGES

@<TRIPOS>ATOM
      1 C1          1.8649   -0.6266    0.3580 C.ar      1 <0>         0.0000
      2 C2          2.5712    0.2187    1.2195 C.ar      1 <0>         0.0000
      3 C3          1.1585   -1.7150    0.8831 C.ar      1 <0>         0.0000
      4 C4          2.5654   -0.0228    2.5975 C.ar      1 <0>         0.0000
      5 C5          1.1485   -1.9513    2.2605 C.ar      1 <0>         0.0000
      6 C6          1.8516   -1.1052    3.1296 C.ar      1 <0>         0.0000
      7 C7          1.2947    1.6963    5.7849 C.2       1 <0>         0.0000
      8 C8          1.3396    3.1515    5.3512 C.3       1 <0>         0.0000
      9 C9          0.5406   -0.5763    5.2147 C.3       1 <0>         0.0000
     10 C10         1.7756   -1.2996    4.6260 C.3       1 <0>         0.0000
     11 N1          0.5563    0.8596    4.9891 N.am      1 <0>         0.0000
     12 O1          1.8689    1.3009    6.7999 O.2       1 <0>         0.0000
     13 O2          1.6789   -2.7004    4.9049 O.3       1 <0>         0.0000
     14 H1          1.8726   -0.4451   -0.7137 H         1 <0>         0.0000
     15 H2          3.1339    1.0585    0.8196 H         1 <0>         0.0000
     16 H3          0.6173   -2.3824    0.2170 H         1 <0>         0.0000
     17 H4          3.1308    0.6268    3.2620 H         1 <0>         0.0000
     18 H5          0.6119   -2.8023    2.6689 H         1 <0>         0.0000
     19 H6          0.9105    3.7669    6.1466 H         1 <0>         0.0000
     20 H7          2.3846    3.4505    5.2338 H         1 <0>         0.0000
     21 H8          0.8022    3.3489    4.4195 H         1 <0>         0.0000
     22 H9          0.5097   -0.7391    6.2954 H         1 <0>         0.0000
     23 H10        -0.3642   -0.9996    4.7697 H         1 <0>         0.0000
     24 H11         2.6722   -0.8748    5.0943 H         1 <0>         0.0000
     25 H12         0.2607    1.1955    4.0822 H         1 <0>         0.0000
     26 H13         1.7227   -2.8155    5.8675 H         1 <0>         0.0000
@<TRIPOS>BOND
     1    1    3 ar
     2    1    2 ar
     3    1   14 1
     4    2    4 ar
     5    2   15 1
     6    3    5 ar
     7    3   16 1
     8    4    6 ar
     9    4   17 1
    10    5    6 ar
    11    5   18 1
    12    6   10 1
    13    7    8 1
    14    7   11 am
    15    7   12 2
    16    8   19 1
    17    8   20 1
    18    8   21 1
    19    9   10 1
    20    9   11 1
    21    9   22 1
    22    9   23 1
    23   10   13 1
    24   10   24 1
    25   11   25 1
    26   13   26 1
