@<TRIPOS>MOLECULE
*****
   35    35     0     0     0
SMALL
NO_CHARGES

@<TRIPOS>ATOM
      1 C1          4.5833   -3.1455   -0.9327 C.2       1 <0>         0.0000
      2 C2          0.0772    0.6296   -2.0139 C.3       1 <0>         0.0000
      3 C3          0.8166   -0.6890   -3.8885 C.3       1 <0>         0.0000
      4 C4          1.4762    0.5226   -1.3922 C.3       1 <0>         0.0000
      5 C5          2.2134   -0.7793   -3.2647 C.3       1 <0>         0.0000
      6 C6          6.0260   -2.8880   -1.3439 C.3       1 <0>         0.0000
      7 C7          2.0951   -3.3325    0.9751 C.3       1 <0>         0.0000
      8 C8         -1.1516    0.6979   -4.0896 C.3       1 <0>         0.0000
      9 C9          1.7765   -1.9007   -1.1086 C.3       1 <0>         0.0000
     10 C10         2.5905   -2.1210    0.1792 C.3       1 <0>         0.0000
     11 N1          0.1607    0.5542   -3.4739 N.3       1 <0>         0.0000
     12 N2          2.2067   -0.6817   -1.8021 N.3       1 <0>         0.0000
     13 N3          4.0315   -2.1980   -0.1116 N.am      1 <0>         0.0000
     14 O1          3.9776   -4.1474   -1.3183 O.2       1 <0>         0.0000
     15 H1         -0.5815   -0.1646   -1.6088 H         1 <0>         0.0000
     16 H2         -0.3718    1.5907   -1.7367 H         1 <0>         0.0000
     17 H3          0.9006   -0.6929   -4.9816 H         1 <0>         0.0000
     18 H4          0.2180   -1.5771   -3.6024 H         1 <0>         0.0000
     19 H5          2.0606    1.3987   -1.6987 H         1 <0>         0.0000
     20 H6          1.3993    0.5453   -0.2999 H         1 <0>         0.0000
     21 H7          2.6992   -1.7154   -3.5554 H         1 <0>         0.0000
     22 H8          2.8195    0.0479   -3.6552 H         1 <0>         0.0000
     23 H9          6.5921   -3.8157   -1.2354 H         1 <0>         0.0000
     24 H10         6.0437   -2.6113   -2.4029 H         1 <0>         0.0000
     25 H11         6.5125   -2.0979   -0.7649 H         1 <0>         0.0000
     26 H12         2.1587   -4.2436    0.3782 H         1 <0>         0.0000
     27 H13         2.6976   -3.4675    1.8783 H         1 <0>         0.0000
     28 H14         1.0535   -3.1774    1.2769 H         1 <0>         0.0000
     29 H15        -1.5934    1.6574   -3.8004 H         1 <0>         0.0000
     30 H16        -1.8555   -0.1061   -3.7993 H         1 <0>         0.0000
     31 H17        -1.0519    0.6846   -5.1800 H         1 <0>         0.0000
     32 H18         0.7067   -1.8942   -0.8486 H         1 <0>         0.0000
     33 H19         1.9372   -2.7631   -1.7588 H         1 <0>         0.0000
     34 H20         2.4802   -1.2319    0.8106 H         1 <0>         0.0000
     35 H21         4.5182   -1.3122   -0.0877 H         1 <0>         0.0000
@<TRIPOS>BOND
     1    1    6 1
     2    1   13 am
     3    1   14 2
     4    2    4 1
     5    2   11 1
     6    2   15 1
     7    2   16 1
     8    3    5 1
     9    3   11 1
    10    3   17 1
    11    3   18 1
    12    4   12 1
    13    4   19 1
    14    4   20 1
    15    5   12 1
    16    5   21 1
    17    5   22 1
    18    6   23 1
    19    6   24 1
    20    6   25 1
    21    7   10 1
    22    7   26 1
    23    7   27 1
    24    7   28 1
    25    8   11 1
    26    8   29 1
    27    8   30 1
    28    8   31 1
    29    9   10 1
    30    9   12 1
    31    9   32 1
    32    9   33 1
    33   10   13 1
    34   10   34 1
    35   13   35 1
