@<TRIPOS>MOLECULE
*****
   26    25     0     0     0
SMALL
NO_CHARGES

@<TRIPOS>ATOM
      1 C1         -1.5436    1.8723    2.1170 C.2       1 <0>         0.0000
      2 C2          0.4350    1.2837   -0.1992 C.2       1 <0>         0.0000
      3 C3         -1.4950    1.4785    3.5838 C.3       1 <0>         0.0000
      4 C4         -1.9552    1.9388   -0.9316 C.3       1 <0>         0.0000
      5 C5          0.6436    0.5682   -2.6114 C.3       1 <0>         0.0000
      6 C6          2.6990    2.9860   -1.3231 C.3       1 <0>         0.0000
      7 C7         -1.0805    0.9410   -0.1515 C.3       1 <0>         0.0000
      8 N1         -1.4956    0.7987    1.2401 N.am      1 <0>         0.0000
      9 N2          0.9983    1.3926   -1.4622 N.am      1 <0>         0.0000
     10 O1         -1.6373    3.0399    1.7576 O.2       1 <0>         0.0000
     11 O2          1.0694    1.5162    0.8202 O.2       1 <0>         0.0000
     12 O3          2.3966    1.5887   -1.4639 O.3       1 <0>         0.0000
     13 H1         -0.4450    1.4401    3.8935 H         1 <0>         0.0000
     14 H2         -2.0018    2.2423    4.1747 H         1 <0>         0.0000
     15 H3         -1.9494    0.5019    3.7773 H         1 <0>         0.0000
     16 H4         -1.7743    2.9577   -0.5951 H         1 <0>         0.0000
     17 H5         -3.0084    1.7009   -0.7585 H         1 <0>         0.0000
     18 H6         -1.7579    1.8745   -2.0041 H         1 <0>         0.0000
     19 H7          0.8642    1.1199   -3.5283 H         1 <0>         0.0000
     20 H8         -0.4183    0.3298   -2.5963 H         1 <0>         0.0000
     21 H9          1.2226   -0.3633   -2.6074 H         1 <0>         0.0000
     22 H10         3.7860    3.0472   -1.4087 H         1 <0>         0.0000
     23 H11         2.3797    3.3527   -0.3444 H         1 <0>         0.0000
     24 H12         2.2255    3.5658   -2.1239 H         1 <0>         0.0000
     25 H13        -1.2143   -0.0516   -0.5979 H         1 <0>         0.0000
     26 H14        -1.1721   -0.0585    1.6722 H         1 <0>         0.0000
@<TRIPOS>BOND
     1    1    3 1
     2    1    8 am
     3    1   10 2
     4    2    7 1
     5    2    9 am
     6    2   11 2
     7    3   13 1
     8    3   14 1
     9    3   15 1
    10    4    7 1
    11    4   16 1
    12    4   17 1
    13    4   18 1
    14    5    9 1
    15    5   19 1
    16    5   20 1
    17    5   21 1
    18    6   12 1
    19    6   22 1
    20    6   23 1
    21    6   24 1
    22    7    8 1
    23    7   25 1
    24    8   26 1
    25    9   12 1
