@<TRIPOS>MOLECULE
*****
   24    23     0     0     0
SMALL
NO_CHARGES

@<TRIPOS>ATOM
      1 C1          0.6005   -3.1172    2.2365 C.2       1 <0>         0.0000
      2 C2          1.7856   -3.3214    0.0771 C.3       1 <0>         0.0000
      3 C3         -4.1908   -2.6977    3.6103 C.3       1 <0>         0.0000
      4 C4         -0.9569   -2.7121    4.1710 C.3       1 <0>         0.0000
      5 C5         -1.9416   -3.2778    5.1971 C.3       1 <0>         0.0000
      6 C6         -0.5250   -3.7134    3.0986 C.3       1 <0>         0.0000
      7 N1         -0.0333   -4.9596    3.7229 N.3       1 <0>         0.0000
      8 N2          0.7882   -3.7674    1.0423 N.am      1 <0>         0.0000
      9 O1          1.3042   -2.1746    2.5878 O.2       1 <0>         0.0000
     10 S1         -3.4375   -4.0948    4.5121 S.3       1 <0>         0.0000
     11 H1          1.4280   -2.4746   -0.5216 H         1 <0>         0.0000
     12 H2          2.0415   -4.1498   -0.5883 H         1 <0>         0.0000
     13 H3          2.6785   -3.0038    0.6171 H         1 <0>         0.0000
     14 H4         -5.1620   -3.0395    3.2444 H         1 <0>         0.0000
     15 H5         -3.5828   -2.3863    2.7570 H         1 <0>         0.0000
     16 H6         -4.3469   -1.8455    4.2782 H         1 <0>         0.0000
     17 H7         -1.3817   -1.8298    3.6802 H         1 <0>         0.0000
     18 H8         -0.0626   -2.3728    4.7019 H         1 <0>         0.0000
     19 H9         -2.2628   -2.4873    5.8832 H         1 <0>         0.0000
     20 H10        -1.4578   -4.0513    5.7999 H         1 <0>         0.0000
     21 H11        -1.3851   -3.9082    2.4357 H         1 <0>         0.0000
     22 H12         0.4912   -5.5075    3.0435 H         1 <0>         0.0000
     23 H13        -0.8358   -5.5261    3.9946 H         1 <0>         0.0000
     24 H14         0.0621   -4.3967    0.7260 H         1 <0>         0.0000
@<TRIPOS>BOND
     1    1    6 1
     2    1    8 am
     3    1    9 2
     4    2    8 1
     5    2   11 1
     6    2   12 1
     7    2   13 1
     8    3   10 1
     9    3   14 1
    10    3   15 1
    11    3   16 1
    12    4    5 1
    13    4    6 1
    14    4   17 1
    15    4   18 1
    16    5   10 1
    17    5   19 1
    18    5   20 1
    19    6    7 1
    20    6   21 1
    21    7   22 1
    22    7   23 1
    23    8   24 1
