@<TRIPOS>MOLECULE
*****
   26    27     0     0     0
SMALL
NO_CHARGES

@<TRIPOS>ATOM
      1 C1          1.1567   -4.1650   -3.1871 C.ar      1 <0>         0.0000
      2 C2          1.6414   -4.7343   -2.0017 C.ar      1 <0>         0.0000
      3 C3          0.2252   -3.1281   -3.1141 C.ar      1 <0>         0.0000
      4 C4          1.1982   -4.2719   -0.7637 C.ar      1 <0>         0.0000
      5 C5         -0.2301   -2.6498   -1.8782 C.ar      1 <0>         0.0000
      6 C6          0.2613   -3.2300   -0.7018 C.ar      1 <0>         0.0000
      7 C7          0.5190    1.8138   -0.6758 C.2       1 <0>         0.0000
      8 C8          1.2959    0.8716   -0.1268 C.2       1 <0>         0.0000
      9 C9         -0.6321   -0.4486    0.3168 C.2       1 <0>         0.0000
     10 C10        -0.9764    1.7458   -0.4581 C.3       1 <0>         0.0000
     11 C11        -1.1121   -1.8352    0.7033 C.3       1 <0>         0.0000
     12 N1         -1.4535    0.3719   -0.2188 N.2       1 <0>         0.0000
     13 N2          0.7051   -0.1796    0.6044 N.pl3     1 <0>         0.0000
     14 O1         -0.1039   -2.8401    0.5715 O.3       1 <0>         0.0000
     15 H1          1.5026   -4.5262   -4.1515 H         1 <0>         0.0000
     16 H2          2.3655   -5.5441   -2.0412 H         1 <0>         0.0000
     17 H3         -0.1560   -2.6742   -4.0252 H         1 <0>         0.0000
     18 H4          1.5586   -4.7063    0.1646 H         1 <0>         0.0000
     19 H5         -0.9408   -1.8319   -1.8519 H         1 <0>         0.0000
     20 H6          0.9547    2.6035   -1.2795 H         1 <0>         0.0000
     21 H7          2.3757    0.8346   -0.2268 H         1 <0>         0.0000
     22 H8         -1.2763    2.3695    0.3995 H         1 <0>         0.0000
     23 H9         -1.5153    2.1453   -1.3241 H         1 <0>         0.0000
     24 H10        -2.0061   -2.0722    0.1211 H         1 <0>         0.0000
     25 H11        -1.3723   -1.8458    1.7652 H         1 <0>         0.0000
     26 H12         1.2750   -0.9978    0.7866 H         1 <0>         0.0000
@<TRIPOS>BOND
     1    1    3 ar
     2    1    2 ar
     3    1   15 1
     4    2    4 ar
     5    2   16 1
     6    3    5 ar
     7    3   17 1
     8    4    6 ar
     9    4   18 1
    10    5    6 ar
    11    5   19 1
    12    6   14 1
    13    7    8 2
    14    7   10 1
    15    7   20 1
    16    8   13 1
    17    8   21 1
    18    9   11 1
    19    9   12 2
    20    9   13 1
    21   10   12 1
    22   10   22 1
    23   10   23 1
    24   11   14 1
    25   11   24 1
    26   11   25 1
    27   13   26 1
