@<TRIPOS>MOLECULE
*****
   34    36     0     0     0
SMALL
NO_CHARGES

@<TRIPOS>ATOM
      1 C1          0.4672    1.4541    2.3603 C.2       1 <0>         0.0000
      2 C2          0.0556    2.0170    3.5467 C.2       1 <0>         0.0000
      3 C3          2.8299   -1.3793    4.1222 C.ar      1 <0>         0.0000
      4 C4          1.3107    0.3348    2.6985 C.ar      1 <0>         0.0000
      5 C5          1.3757    0.3012    4.1165 C.ar      1 <0>         0.0000
      6 C6          2.1014   -0.6524    2.0421 C.ar      1 <0>         0.0000
      7 C7          3.0974   -1.7702    0.1023 C.3       1 <0>         0.0000
      8 C8          0.9890   -0.5999   -0.1675 C.3       1 <0>         0.0000
      9 C9          3.4722   -1.3637   -1.3200 C.3       1 <0>         0.0000
     10 C10         1.3932   -0.2011   -1.5827 C.3       1 <0>         0.0000
     11 C11         0.4138    1.6178    6.0256 C.3       1 <0>         0.0000
     12 C12         2.6404   -0.8777   -3.5357 C.3       1 <0>         0.0000
     13 N1          2.1096   -0.5399    4.8646 N.ar      1 <0>         0.0000
     14 N2          2.8614   -1.4819    2.7824 N.ar      1 <0>         0.0000
     15 N3          0.5963    1.3190    4.6149 N.pl3     1 <0>         0.0000
     16 N4          2.1770   -0.7811    0.6695 N.pl3     1 <0>         0.0000
     17 N5          2.2851   -1.2038   -2.1605 N.3       1 <0>         0.0000
     18 H1          0.2074    1.8352    1.3833 H         1 <0>         0.0000
     19 H2         -0.5809    2.8748    3.7206 H         1 <0>         0.0000
     20 H3          3.4664   -2.0784    4.6624 H         1 <0>         0.0000
     21 H4          2.6324   -2.7670    0.0976 H         1 <0>         0.0000
     22 H5          3.9864   -1.8228    0.7284 H         1 <0>         0.0000
     23 H6          0.3369    0.1569    0.2584 H         1 <0>         0.0000
     24 H7          0.4234   -1.5441   -0.2093 H         1 <0>         0.0000
     25 H8          4.0671   -0.4302   -1.2820 H         1 <0>         0.0000
     26 H9          4.1066   -2.1439   -1.7546 H         1 <0>         0.0000
     27 H10         0.4938   -0.1287   -2.2044 H         1 <0>         0.0000
     28 H11         1.8672    0.8000   -1.5547 H         1 <0>         0.0000
     29 H12        -0.6411    1.5327    6.3056 H         1 <0>         0.0000
     30 H13         0.9962    0.8962    6.5992 H         1 <0>         0.0000
     31 H14         0.7672    2.6280    6.2555 H         1 <0>         0.0000
     32 H15         3.2694   -1.6712   -3.9519 H         1 <0>         0.0000
     33 H16         3.1893    0.0792   -3.6254 H         1 <0>         0.0000
     34 H17         1.7335   -0.8090   -4.1455 H         1 <0>         0.0000
@<TRIPOS>BOND
     1    1    2 2
     2    1    4 1
     3    1   18 1
     4    2   15 1
     5    2   19 1
     6    3   13 ar
     7    3   14 ar
     8    3   20 1
     9    4    5 ar
    10    4    6 ar
    11    5   13 ar
    12    5   15 1
    13    6   14 ar
    14    6   16 1
    15    7    9 1
    16    7   16 1
    17    7   21 1
    18    7   22 1
    19    8   10 1
    20    8   16 1
    21    8   23 1
    22    8   24 1
    23    9   17 1
    24    9   25 1
    25    9   26 1
    26   10   17 1
    27   10   27 1
    28   10   28 1
    29   11   15 1
    30   11   29 1
    31   11   30 1
    32   11   31 1
    33   12   17 1
    34   12   32 1
    35   12   33 1
    36   12   34 1
