@<TRIPOS>MOLECULE
*****
   24    23     0     0     0
SMALL
NO_CHARGES

@<TRIPOS>ATOM
      1 C1          0.5982   -2.7045    1.6871 C.2       1 <0>         0.0000
      2 C2          0.8248   -0.6330    0.3739 C.3       1 <0>         0.0000
      3 C3         -1.1189    0.2949    5.2938 C.3       1 <0>         0.0000
      4 C4         -0.8732   -2.7038    3.7965 C.3       1 <0>         0.0000
      5 C5          0.2223   -2.0819    4.6631 C.3       1 <0>         0.0000
      6 C6         -0.2991   -3.5359    2.6265 C.3       1 <0>         0.0000
      7 N1          0.4737   -4.6671    3.1443 N.3       1 <0>         0.0000
      8 N2          0.0644   -1.5361    1.2300 N.am      1 <0>         0.0000
      9 O1          1.7150   -3.0915    1.3397 O.2       1 <0>         0.0000
     10 S1         -0.4008   -1.1675    6.1189 S.3       1 <0>         0.0000
     11 H1          1.5831   -0.0798    0.9402 H         1 <0>         0.0000
     12 H2          0.1380    0.0754   -0.0946 H         1 <0>         0.0000
     13 H3          1.3323   -1.2098   -0.4014 H         1 <0>         0.0000
     14 H4         -1.4218    0.9903    6.0805 H         1 <0>         0.0000
     15 H5         -2.0008    0.0419    4.6984 H         1 <0>         0.0000
     16 H6         -0.3742    0.7877    4.6607 H         1 <0>         0.0000
     17 H7         -1.4823   -3.3693    4.4163 H         1 <0>         0.0000
     18 H8         -1.5564   -1.9310    3.4212 H         1 <0>         0.0000
     19 H9          0.8605   -1.4099    4.0786 H         1 <0>         0.0000
     20 H10         0.8599   -2.8767    5.0572 H         1 <0>         0.0000
     21 H11        -1.1488   -3.8662    2.0077 H         1 <0>         0.0000
     22 H12         1.3052   -4.7829    2.5648 H         1 <0>         0.0000
     23 H13        -0.0702   -5.5232    3.0956 H         1 <0>         0.0000
     24 H14        -0.8110   -1.2161    1.6184 H         1 <0>         0.0000
@<TRIPOS>BOND
     1    1    6 1
     2    1    8 am
     3    1    9 2
     4    2    8 1
     5    2   11 1
     6    2   12 1
     7    2   13 1
     8    3   10 1
     9    3   14 1
    10    3   15 1
    11    3   16 1
    12    4    5 1
    13    4    6 1
    14    4   17 1
    15    4   18 1
    16    5   10 1
    17    5   19 1
    18    5   20 1
    19    6    7 1
    20    6   21 1
    21    7   22 1
    22    7   23 1
    23    8   24 1
