@<TRIPOS>MOLECULE
*****
   35    35     0     0     0
SMALL
NO_CHARGES

@<TRIPOS>ATOM
      1 C1         -1.0291   -2.7089    1.8589 C.2       1 <0>         0.0000
      2 C2         -0.5339   -0.6816   -2.8780 C.3       1 <0>         0.0000
      3 C3          1.8543   -0.4751   -3.0983 C.3       1 <0>         0.0000
      4 C4         -0.4126   -0.4137   -1.3740 C.3       1 <0>         0.0000
      5 C5          1.9664   -0.2111   -1.5922 C.3       1 <0>         0.0000
      6 C6         -2.1376   -1.9200    2.5391 C.3       1 <0>         0.0000
      7 C7          2.5818   -2.0583    1.4140 C.3       1 <0>         0.0000
      8 C8          0.4403   -0.2148   -5.0377 C.3       1 <0>         0.0000
      9 C9          1.0208   -2.2709   -0.5994 C.3       1 <0>         0.0000
     10 C10         1.2482   -2.5918    0.8899 C.3       1 <0>         0.0000
     11 N1          0.5558   -0.0187   -3.5985 N.3       1 <0>         0.0000
     12 N2          0.8818   -0.8207   -0.8145 N.3       1 <0>         0.0000
     13 N3          0.1531   -2.0405    1.6891 N.am      1 <0>         0.0000
     14 O1         -1.1911   -3.8810    1.5149 O.2       1 <0>         0.0000
     15 H1         -0.5356   -1.7741   -3.0662 H         1 <0>         0.0000
     16 H2         -1.4888   -0.2881   -3.2457 H         1 <0>         0.0000
     17 H3          2.6456    0.0704   -3.6259 H         1 <0>         0.0000
     18 H4          2.0077   -1.5539   -3.3045 H         1 <0>         0.0000
     19 H5         -0.5331    0.6631   -1.2018 H         1 <0>         0.0000
     20 H6         -1.2126   -0.9285   -0.8338 H         1 <0>         0.0000
     21 H7          2.9268   -0.5758   -1.2167 H         1 <0>         0.0000
     22 H8          1.9368    0.8727   -1.4257 H         1 <0>         0.0000
     23 H9         -3.0219   -1.9299    1.8962 H         1 <0>         0.0000
     24 H10        -2.4055   -2.4254    3.4711 H         1 <0>         0.0000
     25 H11        -1.8661   -0.8844    2.7635 H         1 <0>         0.0000
     26 H12         2.6334   -0.9692    1.3084 H         1 <0>         0.0000
     27 H13         2.7091   -2.3092    2.4712 H         1 <0>         0.0000
     28 H14         3.4161   -2.4934    0.8536 H         1 <0>         0.0000
     29 H15        -0.5184    0.1807   -5.3890 H         1 <0>         0.0000
     30 H16         0.5026   -1.2795   -5.3348 H         1 <0>         0.0000
     31 H17         1.2407    0.3289   -5.5505 H         1 <0>         0.0000
     32 H18         0.1178   -2.7984   -0.9230 H         1 <0>         0.0000
     33 H19         1.8493   -2.6870   -1.1872 H         1 <0>         0.0000
     34 H20         1.2039   -3.6768    1.0148 H         1 <0>         0.0000
     35 H21         0.1423   -1.0308    1.7676 H         1 <0>         0.0000
@<TRIPOS>BOND
     1    1    6 1
     2    1   13 am
     3    1   14 2
     4    2    4 1
     5    2   11 1
     6    2   15 1
     7    2   16 1
     8    3    5 1
     9    3   11 1
    10    3   17 1
    11    3   18 1
    12    4   12 1
    13    4   19 1
    14    4   20 1
    15    5   12 1
    16    5   21 1
    17    5   22 1
    18    6   23 1
    19    6   24 1
    20    6   25 1
    21    7   10 1
    22    7   26 1
    23    7   27 1
    24    7   28 1
    25    8   11 1
    26    8   29 1
    27    8   30 1
    28    8   31 1
    29    9   10 1
    30    9   12 1
    31    9   32 1
    32    9   33 1
    33   10   13 1
    34   10   34 1
    35   13   35 1
