@<TRIPOS>MOLECULE
*****
   34    36     0     0     0
SMALL
NO_CHARGES

@<TRIPOS>ATOM
      1 C1          3.6733   -4.3298    0.6247 C.2       1 <0>         0.0000
      2 C2          4.9277   -4.8435    0.8675 C.2       1 <0>         0.0000
      3 C3          4.7738   -0.4123    0.9676 C.ar      1 <0>         0.0000
      4 C4          3.7948   -2.8974    0.6923 C.ar      1 <0>         0.0000
      5 C5          5.1447   -2.6030    0.9792 C.ar      1 <0>         0.0000
      6 C6          2.9458   -1.7659    0.5516 C.ar      1 <0>         0.0000
      7 C7         -0.1090    1.0568   -1.4175 C.3       1 <0>         0.0000
      8 C8          0.9804   -0.0017   -1.2068 C.3       1 <0>         0.0000
      9 C9         -0.3573    1.8519   -0.1345 C.3       1 <0>         0.0000
     10 C10         0.3701    0.0104    1.2487 C.3       1 <0>         0.0000
     11 C11         0.6333   -0.8652    0.0140 C.3       1 <0>         0.0000
     12 C12        -1.0646    1.7111    2.1694 C.3       1 <0>         0.0000
     13 N1          5.6802   -1.3773    1.1255 N.ar      1 <0>         0.0000
     14 N2          3.4598   -0.5307    0.6941 N.ar      1 <0>         0.0000
     15 N3          5.8169   -3.7977    1.0816 N.pl3     1 <0>         0.0000
     16 N4         -0.7141    0.9580    0.9710 N.3       1 <0>         0.0000
     17 N5          1.6165   -1.9206    0.2855 N.pl3     1 <0>         0.0000
     18 H1          2.7887   -4.9222    0.4273 H         1 <0>         0.0000
     19 H2          5.2625   -5.8711    0.9066 H         1 <0>         0.0000
     20 H3          5.1368    0.6090    1.0722 H         1 <0>         0.0000
     21 H4          0.1803    1.7412   -2.2229 H         1 <0>         0.0000
     22 H5         -1.0477    0.5753   -1.7186 H         1 <0>         0.0000
     23 H6          1.0835   -0.6386   -2.0929 H         1 <0>         0.0000
     24 H7          1.9462    0.4801   -1.0325 H         1 <0>         0.0000
     25 H8          0.5436    2.4499    0.1107 H         1 <0>         0.0000
     26 H9         -1.1825    2.5569   -0.2846 H         1 <0>         0.0000
     27 H10         0.0682   -0.6325    2.0827 H         1 <0>         0.0000
     28 H11         1.3030    0.5213    1.5372 H         1 <0>         0.0000
     29 H12        -0.3027   -1.3931   -0.1997 H         1 <0>         0.0000
     30 H13        -1.3711    1.0220    2.9633 H         1 <0>         0.0000
     31 H14        -1.9071    2.3767    1.9544 H         1 <0>         0.0000
     32 H15        -0.2289    2.3266    2.5538 H         1 <0>         0.0000
     33 H16         6.8044   -3.8765    1.2827 H         1 <0>         0.0000
     34 H17         1.3098   -2.8715    0.1428 H         1 <0>         0.0000
@<TRIPOS>BOND
     1    1    2 2
     2    1    4 1
     3    1   18 1
     4    2   15 1
     5    2   19 1
     6    3   13 ar
     7    3   14 ar
     8    3   20 1
     9    4    5 ar
    10    4    6 ar
    11    5   13 ar
    12    5   15 1
    13    6   14 ar
    14    6   17 1
    15    7    8 1
    16    7    9 1
    17    7   21 1
    18    7   22 1
    19    8   11 1
    20    8   23 1
    21    8   24 1
    22    9   16 1
    23    9   25 1
    24    9   26 1
    25   10   11 1
    26   10   16 1
    27   10   27 1
    28   10   28 1
    29   11   17 1
    30   11   29 1
    31   12   16 1
    32   12   30 1
    33   12   31 1
    34   12   32 1
    35   15   33 1
    36   17   34 1
