@<TRIPOS>MOLECULE
*****
   30    30     0     0     0
SMALL
NO_CHARGES

@<TRIPOS>ATOM
      1 C1          5.7934   -1.4056   -1.4476 C.ar      1 <0>         0.0000
      2 C2          4.7613   -0.5490   -1.8421 C.ar      1 <0>         0.0000
      3 C3          5.8179   -1.8957   -0.1383 C.ar      1 <0>         0.0000
      4 C4          3.7709   -0.1718   -0.9308 C.ar      1 <0>         0.0000
      5 C5          4.8249   -1.5199    0.7698 C.ar      1 <0>         0.0000
      6 C6          3.8001   -0.6427    0.3892 C.ar      1 <0>         0.0000
      7 C7          3.7270    3.4154    1.6869 C.2       1 <0>         0.0000
      8 C8          3.6091    4.4602    0.5915 C.3       1 <0>         0.0000
      9 C9          4.4597    0.7370    3.0972 C.3       1 <0>         0.0000
     10 C10         2.7614   -0.2019    1.4031 C.3       1 <0>         0.0000
     11 C11         3.1929    1.0168    2.2606 C.3       1 <0>         0.0000
     12 N1          3.3038    2.1677    1.3591 N.am      1 <0>         0.0000
     13 O1          4.1921    3.7185    2.7945 O.2       1 <0>         0.0000
     14 O2          4.5091    1.4688    4.3051 O.3       1 <0>         0.0000
     15 O3          1.5582    0.1143    0.6843 O.3       1 <0>         0.0000
     16 H1          6.5628   -1.6995   -2.1567 H         1 <0>         0.0000
     17 H2          4.7219   -0.1796   -2.8637 H         1 <0>         0.0000
     18 H3          6.6047   -2.5769    0.1753 H         1 <0>         0.0000
     19 H4          2.9521    0.4615   -1.2571 H         1 <0>         0.0000
     20 H5          4.8487   -1.9225    1.7792 H         1 <0>         0.0000
     21 H6          2.9168    5.2389    0.9240 H         1 <0>         0.0000
     22 H7          4.5864    4.9282    0.4512 H         1 <0>         0.0000
     23 H8          3.2638    4.0580   -0.3646 H         1 <0>         0.0000
     24 H9          5.3483    0.8992    2.4720 H         1 <0>         0.0000
     25 H10         4.4483   -0.3165    3.3926 H         1 <0>         0.0000
     26 H11         2.5731   -1.0281    2.1004 H         1 <0>         0.0000
     27 H12         2.3871    1.2026    2.9874 H         1 <0>         0.0000
     28 H13         2.8321    2.0579    0.4700 H         1 <0>         0.0000
     29 H14         4.4866    2.4146    4.0428 H         1 <0>         0.0000
     30 H15         0.8693    0.3281    1.3342 H         1 <0>         0.0000
@<TRIPOS>BOND
     1    1    3 ar
     2    1    2 ar
     3    1   16 1
     4    2    4 ar
     5    2   17 1
     6    3    5 ar
     7    3   18 1
     8    4    6 ar
     9    4   19 1
    10    5    6 ar
    11    5   20 1
    12    6   10 1
    13    7    8 1
    14    7   12 am
    15    7   13 2
    16    8   21 1
    17    8   22 1
    18    8   23 1
    19    9   11 1
    20    9   14 1
    21    9   24 1
    22    9   25 1
    23   10   11 1
    24   10   15 1
    25   10   26 1
    26   11   12 1
    27   11   27 1
    28   12   28 1
    29   14   29 1
    30   15   30 1
