@<TRIPOS>MOLECULE
*****
   30    31     0     0     0
SMALL
NO_CHARGES

@<TRIPOS>ATOM
      1 C1         -1.1523   -2.3051    6.7931 C.ar      1 <0>         0.0000
      2 C2          1.8753   -0.6963   -0.0387 C.ar      1 <0>         0.0000
      3 C3         -1.2554   -2.7042    5.4558 C.ar      1 <0>         0.0000
      4 C4         -0.0007   -1.6333    7.2163 C.ar      1 <0>         0.0000
      5 C5          0.7510   -0.4979    0.7779 C.ar      1 <0>         0.0000
      6 C6          3.0495   -1.1446    0.5471 C.ar      1 <0>         0.0000
      7 C7         -0.2278   -2.4395    4.5487 C.ar      1 <0>         0.0000
      8 C8          1.0233   -1.3468    6.3118 C.ar      1 <0>         0.0000
      9 C9          0.8059   -0.7623    2.1388 C.ar      1 <0>         0.0000
     10 C10         3.1401   -1.4208    1.9271 C.ar      1 <0>         0.0000
     11 C11         0.9211   -1.7452    4.9674 C.ar      1 <0>         0.0000
     12 C12         1.9875   -1.2443    2.7507 C.ar      1 <0>         0.0000
     13 C13         4.4768   -1.8858    2.3761 C.2       1 <0>         0.0000
     14 C14         5.9062   -2.4475    4.1903 C.3       1 <0>         0.0000
     15 N1          2.0115   -1.4892    4.1130 N.pl3     1 <0>         0.0000
     16 O1          5.4042   -2.1502    1.6297 O.2       1 <0>         0.0000
     17 O2          4.6146   -1.9884    3.7360 O.3       1 <0>         0.0000
     18 H1         -1.9542   -2.5185    7.4943 H         1 <0>         0.0000
     19 H2          1.8326   -0.4913   -1.1040 H         1 <0>         0.0000
     20 H3         -2.1360   -3.2438    5.1164 H         1 <0>         0.0000
     21 H4          0.0972   -1.3175    8.2518 H         1 <0>         0.0000
     22 H5         -0.1744   -0.1189    0.3509 H         1 <0>         0.0000
     23 H6          3.9431   -1.2985   -0.0486 H         1 <0>         0.0000
     24 H7         -0.3047   -2.7907    3.5250 H         1 <0>         0.0000
     25 H8          1.9066   -0.8024    6.6376 H         1 <0>         0.0000
     26 H9         -0.0636   -0.5699    2.7565 H         1 <0>         0.0000
     27 H10         5.8352   -2.4823    5.2776 H         1 <0>         0.0000
     28 H11         6.6868   -1.7521    3.8753 H         1 <0>         0.0000
     29 H12         6.1197   -3.4385    3.7849 H         1 <0>         0.0000
     30 H13         2.9316   -1.6165    4.5141 H         1 <0>         0.0000
@<TRIPOS>BOND
     1    1    4 ar
     2    1    3 ar
     3    1   18 1
     4    2    5 ar
     5    2    6 ar
     6    2   19 1
     7    3    7 ar
     8    3   20 1
     9    4    8 ar
    10    4   21 1
    11    5    9 ar
    12    5   22 1
    13    6   10 ar
    14    6   23 1
    15    7   11 ar
    16    7   24 1
    17    8   11 ar
    18    8   25 1
    19    9   12 ar
    20    9   26 1
    21   10   12 ar
    22   10   13 1
    23   11   15 1
    24   12   15 1
    25   13   16 2
    26   13   17 1
    27   14   17 1
    28   14   27 1
    29   14   28 1
    30   14   29 1
    31   15   30 1
