@<TRIPOS>MOLECULE
*****
   34    36     0     0     0
SMALL
NO_CHARGES

@<TRIPOS>ATOM
      1 C1          0.1378    0.3499    2.5977 C.2       1 <0>         0.0000
      2 C2          0.3846    0.6094    3.9264 C.2       1 <0>         0.0000
      3 C3          1.8894   -3.3443    2.6351 C.ar      1 <0>         0.0000
      4 C4          0.6245   -0.9816    2.3336 C.ar      1 <0>         0.0000
      5 C5          1.1724   -1.4534    3.5552 C.ar      1 <0>         0.0000
      6 C6          0.7529   -1.8812    1.2346 C.ar      1 <0>         0.0000
      7 C7          0.5352   -2.5668   -1.1158 C.3       1 <0>         0.0000
      8 C8         -0.9640   -0.8798   -0.2475 C.3       1 <0>         0.0000
      9 C9         -0.6382   -3.5327   -1.2771 C.3       1 <0>         0.0000
     10 C10        -2.1337   -1.8554   -0.4155 C.3       1 <0>         0.0000
     11 C11         1.4452   -0.5871    5.8952 C.3       1 <0>         0.0000
     12 C12        -3.0097   -3.6889   -1.7144 C.3       1 <0>         0.0000
     13 N1          1.8008   -2.6252    3.7531 N.ar      1 <0>         0.0000
     14 N2          1.4069   -3.0460    1.4174 N.ar      1 <0>         0.0000
     15 N3          1.0044   -0.4820    4.5143 N.pl3     1 <0>         0.0000
     16 N4          0.2896   -1.6063   -0.0352 N.pl3     1 <0>         0.0000
     17 N5         -1.8809   -2.7892   -1.5118 N.3       1 <0>         0.0000
     18 H1         -0.3060    1.0568    1.9117 H         1 <0>         0.0000
     19 H2          0.1744    1.4974    4.5082 H         1 <0>         0.0000
     20 H3          2.4070   -4.2991    2.7144 H         1 <0>         0.0000
     21 H4          1.4519   -3.1130   -0.9050 H         1 <0>         0.0000
     22 H5          0.6592   -1.9926   -2.0415 H         1 <0>         0.0000
     23 H6         -0.8640   -0.2708   -1.1533 H         1 <0>         0.0000
     24 H7         -1.1672   -0.2187    0.5896 H         1 <0>         0.0000
     25 H8         -0.4556   -4.1865   -2.1375 H         1 <0>         0.0000
     26 H9         -0.7053   -4.1699   -0.3763 H         1 <0>         0.0000
     27 H10        -2.2960   -2.3848    0.5445 H         1 <0>         0.0000
     28 H11        -3.0451   -1.2883   -0.6386 H         1 <0>         0.0000
     29 H12         0.5942   -0.5128    6.5799 H         1 <0>         0.0000
     30 H13         1.9230   -1.5590    6.0215 H         1 <0>         0.0000
     31 H14         2.1672    0.2011    6.1313 H         1 <0>         0.0000
     32 H15        -2.8098   -4.3435   -2.5689 H         1 <0>         0.0000
     33 H16        -3.9113   -3.1079   -1.9354 H         1 <0>         0.0000
     34 H17        -3.2177   -4.3266   -0.8342 H         1 <0>         0.0000
@<TRIPOS>BOND
     1    1    2 2
     2    1    4 1
     3    1   18 1
     4    2   15 1
     5    2   19 1
     6    3   13 ar
     7    3   14 ar
     8    3   20 1
     9    4    5 ar
    10    4    6 ar
    11    5   13 ar
    12    5   15 1
    13    6   14 ar
    14    6   16 1
    15    7    9 1
    16    7   16 1
    17    7   21 1
    18    7   22 1
    19    8   10 1
    20    8   16 1
    21    8   23 1
    22    8   24 1
    23    9   17 1
    24    9   25 1
    25    9   26 1
    26   10   17 1
    27   10   27 1
    28   10   28 1
    29   11   15 1
    30   11   29 1
    31   11   30 1
    32   11   31 1
    33   12   17 1
    34   12   32 1
    35   12   33 1
    36   12   34 1
