@<TRIPOS>MOLECULE
*****
   34    36     0     0     0
SMALL
NO_CHARGES

@<TRIPOS>ATOM
      1 C1         -0.7895   -4.2467   -0.9334 C.2       1 <0>         0.0000
      2 C2         -1.1860   -5.4616   -1.4387 C.2       1 <0>         0.0000
      3 C3          3.2247   -5.0063   -1.2607 C.ar      1 <0>         0.0000
      4 C4          0.6550   -4.2415   -0.9332 C.ar      1 <0>         0.0000
      5 C5          1.0665   -5.4953   -1.4563 C.ar      1 <0>         0.0000
      6 C6          1.7251   -3.3781   -0.5749 C.ar      1 <0>         0.0000
      7 C7         -1.2040    0.1150   -1.3616 C.3       1 <0>         0.0000
      8 C8          0.0046   -0.8235   -1.4373 C.3       1 <0>         0.0000
      9 C9         -0.9576    1.2378   -0.3529 C.3       1 <0>         0.0000
     10 C10         0.5673   -0.1420    0.9199 C.3       1 <0>         0.0000
     11 C11         0.3747   -1.3258   -0.0337 C.3       1 <0>         0.0000
     12 C12        -0.4974    1.7478    1.9647 C.3       1 <0>         0.0000
     13 N1          2.3269   -5.9208   -1.6357 N.ar      1 <0>         0.0000
     14 N2          3.0001   -3.7833   -0.7561 N.ar      1 <0>         0.0000
     15 N3         -0.0635   -6.2162   -1.7539 N.pl3     1 <0>         0.0000
     16 N4         -0.6296    0.6927    0.9669 N.3       1 <0>         0.0000
     17 N5          1.5849   -2.1385   -0.0121 N.pl3     1 <0>         0.0000
     18 H1         -1.4659   -3.4699   -0.6088 H         1 <0>         0.0000
     19 H2         -2.1807   -5.8540   -1.6000 H         1 <0>         0.0000
     20 H3          4.2714   -5.2808   -1.3807 H         1 <0>         0.0000
     21 H4         -1.4157    0.5451   -2.3467 H         1 <0>         0.0000
     22 H5         -2.0936   -0.4480   -1.0538 H         1 <0>         0.0000
     23 H6         -0.1940   -1.6698   -2.1016 H         1 <0>         0.0000
     24 H7          0.8691   -0.2864   -1.8507 H         1 <0>         0.0000
     25 H8         -0.1458    1.8965   -0.7247 H         1 <0>         0.0000
     26 H9         -1.8544    1.8586   -0.2525 H         1 <0>         0.0000
     27 H10         0.7756   -0.5212    1.9256 H         1 <0>         0.0000
     28 H11         1.4570    0.4410    0.5966 H         1 <0>         0.0000
     29 H12        -0.4470   -1.9219    0.3698 H         1 <0>         0.0000
     30 H13        -0.3091    1.3062    2.9484 H         1 <0>         0.0000
     31 H14        -1.4292    2.3192    2.0222 H         1 <0>         0.0000
     32 H15         0.3253    2.4536    1.7409 H         1 <0>         0.0000
     33 H16        -0.0495   -7.1491   -2.1429 H         1 <0>         0.0000
     34 H17         2.4685   -1.6405    0.0304 H         1 <0>         0.0000
@<TRIPOS>BOND
     1    1    2 2
     2    1    4 1
     3    1   18 1
     4    2   15 1
     5    2   19 1
     6    3   13 ar
     7    3   14 ar
     8    3   20 1
     9    4    5 ar
    10    4    6 ar
    11    5   13 ar
    12    5   15 1
    13    6   14 ar
    14    6   17 1
    15    7    8 1
    16    7    9 1
    17    7   21 1
    18    7   22 1
    19    8   11 1
    20    8   23 1
    21    8   24 1
    22    9   16 1
    23    9   25 1
    24    9   26 1
    25   10   11 1
    26   10   16 1
    27   10   27 1
    28   10   28 1
    29   11   17 1
    30   11   29 1
    31   12   16 1
    32   12   30 1
    33   12   31 1
    34   12   32 1
    35   15   33 1
    36   17   34 1
