@<TRIPOS>MOLECULE
*****
   30    31     0     0     0
SMALL
NO_CHARGES

@<TRIPOS>ATOM
      1 C1         -1.6477   -3.1718    6.7237 C.ar      1 <0>         0.0000
      2 C2          7.1275   -3.5929    8.0017 C.ar      1 <0>         0.0000
      3 C3         -1.1079   -2.0266    7.3219 C.ar      1 <0>         0.0000
      4 C4         -1.1677   -3.6241    5.4895 C.ar      1 <0>         0.0000
      5 C5          6.5217   -2.4164    8.4594 C.ar      1 <0>         0.0000
      6 C6          7.0045   -3.9834    6.6636 C.ar      1 <0>         0.0000
      7 C7         -0.0793   -1.3262    6.6899 C.ar      1 <0>         0.0000
      8 C8         -0.1389   -2.9354    4.8432 C.ar      1 <0>         0.0000
      9 C9          5.7839   -1.6221    7.5803 C.ar      1 <0>         0.0000
     10 C10         6.2696   -3.2006    5.7706 C.ar      1 <0>         0.0000
     11 C11         0.3850   -1.7968    5.4588 C.ar      1 <0>         0.0000
     12 C12         5.6733   -2.0321    6.2490 C.ar      1 <0>         0.0000
     13 N1          3.0849   -1.6388    5.5602 N.pl3     1 <0>         0.0000
     14 O1          1.7480   -1.2898    3.2401 O.2       1 <0>         0.0000
     15 O2          1.7019    0.4912    5.0821 O.2       1 <0>         0.0000
     16 O3          4.7142    0.3666    5.5886 O.2       1 <0>         0.0000
     17 O4          5.0720   -1.3805    3.7484 O.2       1 <0>         0.0000
     18 F1          3.1014   -2.9989    5.1201 F         1 <0>         0.0000
     19 S1          1.6885   -0.8962    4.6411 S.o2      1 <0>         0.0000
     20 S2          4.7459   -1.0111    5.1192 S.o2      1 <0>         0.0000
     21 H1         -2.4488   -3.7122    7.2209 H         1 <0>         0.0000
     22 H2          7.7012   -4.2064    8.6912 H         1 <0>         0.0000
     23 H3         -1.4895   -1.6776    8.2771 H         1 <0>         0.0000
     24 H4         -1.5939   -4.5108    5.0291 H         1 <0>         0.0000
     25 H5          6.6263   -2.1161    9.4980 H         1 <0>         0.0000
     26 H6          7.4806   -4.8951    6.3144 H         1 <0>         0.0000
     27 H7          0.3490   -0.4305    7.1283 H         1 <0>         0.0000
     28 H8          0.2481   -3.2611    3.8833 H         1 <0>         0.0000
     29 H9          5.3133   -0.7008    7.9083 H         1 <0>         0.0000
     30 H10         6.1625   -3.4772    4.7269 H         1 <0>         0.0000
@<TRIPOS>BOND
     1    1    4 ar
     2    1    3 ar
     3    1   21 1
     4    2    6 ar
     5    2    5 ar
     6    2   22 1
     7    3    7 ar
     8    3   23 1
     9    4    8 ar
    10    4   24 1
    11    5    9 ar
    12    5   25 1
    13    6   10 ar
    14    6   26 1
    15    7   11 ar
    16    7   27 1
    17    8   11 ar
    18    8   28 1
    19    9   12 ar
    20    9   29 1
    21   10   12 ar
    22   10   30 1
    23   11   19 1
    24   12   20 1
    25   13   18 1
    26   13   19 1
    27   13   20 1
    28   14   19 2
    29   15   19 2
    30   16   20 2
    31   17   20 2
