@<TRIPOS>MOLECULE
*****
   29    30     0     0     0
SMALL
NO_CHARGES

@<TRIPOS>ATOM
      1 C1          1.3731    1.7097    0.2437 C.2       1 <0>         0.0000
      2 C2         -1.0865    1.4150   -0.2645 C.3       1 <0>         0.0000
      3 C3          0.7107   -1.1838   -1.1214 C.3       1 <0>         0.0000
      4 C4         -0.6446   -2.7033    0.0783 C.3       1 <0>         0.0000
      5 C5         -2.2084    0.6095    0.3657 C.3       1 <0>         0.0000
      6 C6          0.3840   -0.5411    0.2195 C.3       1 <0>         0.0000
      7 C7         -0.8663   -1.3015    0.6446 C.3       1 <0>         0.0000
      8 C8          1.2038    3.1740   -0.0761 C.3       1 <0>         0.0000
      9 C9          2.5181    3.8900    0.0547 C.3       1 <0>         0.0000
     10 N1          0.4738   -2.6134   -0.8804 N.3       1 <0>         0.0000
     11 N2          0.2304    0.9102    0.1370 N.am      1 <0>         0.0000
     12 O1          2.4823    1.2877    0.5813 O.2       1 <0>         0.0000
     13 O2         -2.0469   -0.7670    0.0444 O.3       1 <0>         0.0000
     14 F1          3.0304    3.7719    1.2982 F         1 <0>         0.0000
     15 F2          2.4037    5.2049   -0.2291 F         1 <0>         0.0000
     16 F3          3.4150    3.3626   -0.8083 F         1 <0>         0.0000
     17 H1         -1.1269    1.3287   -1.3566 H         1 <0>         0.0000
     18 H2         -1.2041    2.4698   -0.0069 H         1 <0>         0.0000
     19 H3          0.0453   -0.8302   -1.9180 H         1 <0>         0.0000
     20 H4          1.7460   -1.0073   -1.4269 H         1 <0>         0.0000
     21 H5         -0.3515   -3.3975    0.8727 H         1 <0>         0.0000
     22 H6         -1.5410   -3.0971   -0.4132 H         1 <0>         0.0000
     23 H7         -2.2436    0.7422    1.4535 H         1 <0>         0.0000
     24 H8         -3.1715    0.9355   -0.0395 H         1 <0>         0.0000
     25 H9          1.1972   -0.7713    0.9224 H         1 <0>         0.0000
     26 H10        -0.9931   -1.3209    1.7331 H         1 <0>         0.0000
     27 H11         0.4669    3.5735    0.6190 H         1 <0>         0.0000
     28 H12         0.8132    3.2468   -1.0900 H         1 <0>         0.0000
     29 H13         0.2449   -3.0920   -1.7498 H         1 <0>         0.0000
@<TRIPOS>BOND
     1    1    8 1
     2    1   11 am
     3    1   12 2
     4    2    5 1
     5    2   11 1
     6    2   17 1
     7    2   18 1
     8    3    6 1
     9    3   10 1
    10    3   19 1
    11    3   20 1
    12    4    7 1
    13    4   10 1
    14    4   21 1
    15    4   22 1
    16    5   13 1
    17    5   23 1
    18    5   24 1
    19    6    7 1
    20    6   11 1
    21    6   25 1
    22    7   13 1
    23    7   26 1
    24    8    9 1
    25    8   27 1
    26    8   28 1
    27    9   14 1
    28    9   15 1
    29    9   16 1
    30   10   29 1
