@<TRIPOS>MOLECULE
*****
   28    30     0     0     0
SMALL
NO_CHARGES

@<TRIPOS>ATOM
      1 C1         -1.3640    1.0457   -1.5404 C.ar      1 <0>         0.0000
      2 C2         -0.9601    0.0709   -0.6129 C.ar      1 <0>         0.0000
      3 C3         -2.3555    0.7552   -2.4842 C.ar      1 <0>         0.0000
      4 C4         -1.5195   -1.2125   -0.6002 C.ar      1 <0>         0.0000
      5 C5         -2.9176   -0.5224   -2.4772 C.ar      1 <0>         0.0000
      6 C6         -2.4995   -1.4838   -1.5510 C.ar      1 <0>         0.0000
      7 C7         -6.5021   -0.7139   -3.4151 C.cat     1 <0>         0.0000
      8 C8         -8.8040   -0.3126   -3.8740 C.3       1 <0>         0.0000
      9 C9         -3.8688   -2.6256   -2.9379 C.3       1 <0>         0.0000
     10 C10        -8.4904   -1.4566   -4.8410 C.3       1 <0>         0.0000
     11 C11        -4.0360   -1.1263   -3.2836 C.3       1 <0>         0.0000
     12 N1         -7.6760   -0.2912   -2.9258 N.pl3     1 <0>         0.0000
     13 N2         -5.3376   -0.5609   -2.8084 N.pl3     1 <0>         0.0000
     14 O1         -3.1617   -2.6790   -1.6816 O.3       1 <0>         0.0000
     15 S1         -6.6464   -1.4987   -4.9706 S.3       1 <0>         0.0000
     16 H1         -0.8979    2.0258   -1.5288 H         1 <0>         0.0000
     17 H2         -0.1858    0.3138    0.1091 H         1 <0>         0.0000
     18 H3         -2.6681    1.5040   -3.2078 H         1 <0>         0.0000
     19 H4         -1.2011   -1.9704    0.1082 H         1 <0>         0.0000
     20 H5         -8.8692    0.6483   -4.3953 H         1 <0>         0.0000
     21 H6         -9.7347   -0.4944   -3.3338 H         1 <0>         0.0000
     22 H7         -4.8101   -3.1653   -2.8261 H         1 <0>         0.0000
     23 H8         -3.2559   -3.1078   -3.7066 H         1 <0>         0.0000
     24 H9         -8.8246   -2.4233   -4.4614 H         1 <0>         0.0000
     25 H10        -8.9043   -1.2838   -5.8340 H         1 <0>         0.0000
     26 H11        -3.9689   -0.9368   -4.3577 H         1 <0>         0.0000
     27 H12        -7.7211    0.2697   -2.0802 H         1 <0>         0.0000
     28 H13        -5.2996   -0.0575   -1.9248 H         1 <0>         0.0000
@<TRIPOS>BOND
     1    1    2 ar
     2    1    3 ar
     3    1   16 1
     4    2    4 ar
     5    2   17 1
     6    3    5 ar
     7    3   18 1
     8    4    6 ar
     9    4   19 1
    10    5    6 ar
    11    5   11 1
    12    6   14 1
    13    7   12 2
    14    7   13 1
    15    7   15 1
    16    8   10 1
    17    8   12 1
    18    8   20 1
    19    8   21 1
    20    9   11 1
    21    9   14 1
    22    9   22 1
    23    9   23 1
    24   10   15 1
    25   10   24 1
    26   10   25 1
    27   11   13 1
    28   11   26 1
    29   12   27 1
    30   13   28 1
