@<TRIPOS>MOLECULE
*****
   30    31     0     0     0
SMALL
NO_CHARGES

@<TRIPOS>ATOM
      1 C1          1.6523   -2.2260    4.4989 C.ar      1 <0>         0.0000
      2 C2          1.3819   -1.9549    3.1592 C.ar      1 <0>         0.0000
      3 C3          0.9341   -1.6248    5.5368 C.ar      1 <0>         0.0000
      4 C4         -0.3755   -0.4286    3.8784 C.ar      1 <0>         0.0000
      5 C5          0.3533   -1.0456    2.8597 C.ar      1 <0>         0.0000
      6 C6         -0.0873   -0.7178    5.2221 C.ar      1 <0>         0.0000
      7 C7          0.7794   -0.9726    0.4138 C.2       1 <0>         0.0000
      8 C8         -1.3762   -0.2304   -0.3685 C.3       1 <0>         0.0000
      9 C9         -1.2302   -0.0237    1.1560 C.3       1 <0>         0.0000
     10 C10         0.0813   -0.3207   -0.7906 C.3       1 <0>         0.0000
     11 C11        -0.6100   -0.2961    7.5214 C.3       1 <0>         0.0000
     12 N1          0.0205   -0.7313    1.5032 N.am      1 <0>         0.0000
     13 N2          0.4417   -1.2001   -1.9626 N.4       1 <0>         0.0000
     14 O1          1.8257   -1.6051    0.2554 O.2       1 <0>         0.0000
     15 O2         -0.8553   -0.0610    6.1297 O.3       1 <0>         0.0000
     16 H1          2.4441   -2.9282    4.7430 H         1 <0>         0.0000
     17 H2          1.9546   -2.4287    2.3745 H         1 <0>         0.0000
     18 H3          1.1757   -1.8648    6.5653 H         1 <0>         0.0000
     19 H4         -1.1609    0.2925    3.6836 H         1 <0>         0.0000
     20 H5         -1.8918   -1.1784   -0.5584 H         1 <0>         0.0000
     21 H6         -1.9356    0.5747   -0.8472 H         1 <0>         0.0000
     22 H7         -1.1540    1.0375    1.4133 H         1 <0>         0.0000
     23 H8         -2.0662   -0.4565    1.7066 H         1 <0>         0.0000
     24 H9          0.5328    0.6559   -0.9864 H         1 <0>         0.0000
     25 H10        -1.3258    0.3287    8.0548 H         1 <0>         0.0000
     26 H11         0.4089   -0.0023    7.7961 H         1 <0>         0.0000
     27 H12        -0.7788   -1.3476    7.7783 H         1 <0>         0.0000
     28 H13        -0.2102   -1.9866   -2.0707 H         1 <0>         0.0000
     29 H14         1.3765   -1.5990   -1.7093 H         1 <0>         0.0000
     30 H15         0.4980   -0.7023   -2.8573 H         1 <0>         0.0000
@<TRIPOS>BOND
     1    1    2 ar
     2    1    3 ar
     3    1   16 1
     4    2    5 ar
     5    2   17 1
     6    3    6 ar
     7    3   18 1
     8    4    5 ar
     9    4    6 ar
    10    4   19 1
    11    5   12 1
    12    6   15 1
    13    7   10 1
    14    7   12 am
    15    7   14 2
    16    8    9 1
    17    8   10 1
    18    8   20 1
    19    8   21 1
    20    9   12 1
    21    9   22 1
    22    9   23 1
    23   10   13 1
    24   10   24 1
    25   11   15 1
    26   11   25 1
    27   11   26 1
    28   11   27 1
    29   13   28 1
    30   13   29 1
    31   13   30 1
