@<TRIPOS>MOLECULE
*****
   27    29     0     0     0
SMALL
NO_CHARGES

@<TRIPOS>ATOM
      1 C1          0.3038    0.1408    1.7274 C.ar      1 <0>         0.0000
      2 C2         -0.3379   -0.5052    0.6607 C.ar      1 <0>         0.0000
      3 C3          0.2585   -0.4082    3.0169 C.ar      1 <0>         0.0000
      4 C4         -1.0333   -1.7076    0.8475 C.ar      1 <0>         0.0000
      5 C5         -0.4313   -1.6022    3.2105 C.ar      1 <0>         0.0000
      6 C6         -1.0631   -2.2321    2.1380 C.ar      1 <0>         0.0000
      7 C7          1.1979   -2.0174    6.0678 C.2       1 <0>         0.0000
      8 C8          2.8642   -1.1197    7.3273 C.3       1 <0>         0.0000
      9 C9         -1.3967   -3.6707    3.8761 C.3       1 <0>         0.0000
     10 C10         1.6403   -0.5434    8.0756 C.3       1 <0>         0.0000
     11 C11        -0.6516   -2.4356    4.4569 C.3       1 <0>         0.0000
     12 N1          2.4332   -2.1379    6.3770 N.2       1 <0>         0.0000
     13 N2          0.5549   -2.8468    5.1726 N.pl3     1 <0>         0.0000
     14 O1         -1.7047   -3.3937    2.4866 O.3       1 <0>         0.0000
     15 S1          0.2457   -0.7188    6.8956 S.3       1 <0>         0.0000
     16 H1          0.8370    1.0709    1.5528 H         1 <0>         0.0000
     17 H2         -0.2950   -0.0687   -0.3339 H         1 <0>         0.0000
     18 H3          0.7501    0.0872    3.8502 H         1 <0>         0.0000
     19 H4         -1.5290   -2.2159    0.0261 H         1 <0>         0.0000
     20 H5          3.3870   -0.3224    6.7800 H         1 <0>         0.0000
     21 H6          3.5768   -1.5468    8.0402 H         1 <0>         0.0000
     22 H7         -0.7595   -4.5603    3.9170 H         1 <0>         0.0000
     23 H8         -2.3352   -3.8822    4.3909 H         1 <0>         0.0000
     24 H9          1.4069   -1.1190    8.9748 H         1 <0>         0.0000
     25 H10         1.7632    0.5081    8.3421 H         1 <0>         0.0000
     26 H11        -1.2886   -1.9120    5.1753 H         1 <0>         0.0000
     27 H12         1.2283   -3.3511    4.6010 H         1 <0>         0.0000
@<TRIPOS>BOND
     1    1    2 ar
     2    1    3 ar
     3    1   16 1
     4    2    4 ar
     5    2   17 1
     6    3    5 ar
     7    3   18 1
     8    4    6 ar
     9    4   19 1
    10    5    6 ar
    11    5   11 1
    12    6   14 1
    13    7   12 2
    14    7   13 1
    15    7   15 1
    16    8   10 1
    17    8   12 1
    18    8   20 1
    19    8   21 1
    20    9   11 1
    21    9   14 1
    22    9   22 1
    23    9   23 1
    24   10   15 1
    25   10   24 1
    26   10   25 1
    27   11   13 1
    28   11   26 1
    29   13   27 1
