@<TRIPOS>MOLECULE
*****
   29    30     0     0     0
SMALL
NO_CHARGES

@<TRIPOS>ATOM
      1 C1         -1.0546    1.0732   -4.4371 C.ar      1 <0>         0.0000
      2 C2         -1.1105    0.7955   -3.0665 C.ar      1 <0>         0.0000
      3 C3          0.1214    0.9097   -5.1598 C.ar      1 <0>         0.0000
      4 C4          1.2427    0.1771   -3.1239 C.ar      1 <0>         0.0000
      5 C5          0.0432    0.3466   -2.4055 C.ar      1 <0>         0.0000
      6 C6          1.2717    0.4563   -4.4932 C.ar      1 <0>         0.0000
      7 C7          0.9068   -0.6397   -0.2788 C.2       1 <0>         0.0000
      8 C8         -0.7092    0.2688    1.2380 C.3       1 <0>         0.0000
      9 C9         -1.1857    0.4499   -0.2103 C.3       1 <0>         0.0000
     10 C10         0.3409   -0.8391    1.1293 C.3       1 <0>         0.0000
     11 C11         3.5812   -0.1576   -4.6396 C.3       1 <0>         0.0000
     12 N1         -0.0104    0.0798   -1.0154 N.am      1 <0>         0.0000
     13 N2          1.4138   -0.7721    2.1153 N.3       1 <0>         0.0000
     14 O1          1.9906   -1.0813   -0.6496 O.2       1 <0>         0.0000
     15 O2          2.3913    0.3171   -5.2670 O.3       1 <0>         0.0000
     16 H1         -1.9511    1.4193   -4.9447 H         1 <0>         0.0000
     17 H2         -2.0474    0.9195   -2.5371 H         1 <0>         0.0000
     18 H3          0.1746    1.1207   -6.2233 H         1 <0>         0.0000
     19 H4          2.1166   -0.1759   -2.5999 H         1 <0>         0.0000
     20 H5         -0.2125    1.1763    1.5927 H         1 <0>         0.0000
     21 H6         -1.5332    0.0328    1.9160 H         1 <0>         0.0000
     22 H7         -2.0321   -0.2066   -0.4501 H         1 <0>         0.0000
     23 H8         -1.4807    1.4794   -0.4274 H         1 <0>         0.0000
     24 H9         -0.1638   -1.8222    1.1001 H         1 <0>         0.0000
     25 H10         4.3319   -0.2098   -5.4293 H         1 <0>         0.0000
     26 H11         3.4344   -1.1540   -4.2065 H         1 <0>         0.0000
     27 H12         3.9218    0.5310   -3.8571 H         1 <0>         0.0000
     28 H13         2.2390   -1.2190    1.7134 H         1 <0>         0.0000
     29 H14         1.1612   -1.2940    2.9509 H         1 <0>         0.0000
@<TRIPOS>BOND
     1    1    2 ar
     2    1    3 ar
     3    1   16 1
     4    2    5 ar
     5    2   17 1
     6    3    6 ar
     7    3   18 1
     8    4    5 ar
     9    4    6 ar
    10    4   19 1
    11    5   12 1
    12    6   15 1
    13    7   10 1
    14    7   12 am
    15    7   14 2
    16    8    9 1
    17    8   10 1
    18    8   20 1
    19    8   21 1
    20    9   12 1
    21    9   22 1
    22    9   23 1
    23   10   13 1
    24   10   24 1
    25   11   15 1
    26   11   25 1
    27   11   26 1
    28   11   27 1
    29   13   28 1
    30   13   29 1
