@<TRIPOS>MOLECULE
*****
   27    28     0     0     0
SMALL
NO_CHARGES

@<TRIPOS>ATOM
      1 C1         -2.8935   -2.5082    2.3306 C.ar      1 <0>         0.0000
      2 C2         -3.7950   -1.5548    1.8572 C.ar      1 <0>         0.0000
      3 C3         -1.7163   -2.1031    2.9596 C.ar      1 <0>         0.0000
      4 C4         -3.5193   -0.1964    2.0129 C.ar      1 <0>         0.0000
      5 C5         -1.4405   -0.7447    3.1153 C.ar      1 <0>         0.0000
      6 C6         -2.3420    0.2087    2.6419 C.ar      1 <0>         0.0000
      7 C7         -0.8939    2.0197   -0.9422 C.3       1 <0>         0.0000
      8 C8         -0.0068    0.9827   -0.2814 C.3       1 <0>         0.0000
      9 C9         -1.9263    2.3018    0.1378 C.3       1 <0>         0.0000
     10 C10         0.1140    1.4863    1.1507 C.3       1 <0>         0.0000
     11 N1         -1.1461    2.2443    1.4045 N.pl3     1 <0>         0.0000
     12 O1         -3.2623    2.6364    2.8236 O.2       1 <0>         0.0000
     13 O2         -1.0944    2.0670    3.9741 O.2       1 <0>         0.0000
     14 S1         -1.9937    1.9304    2.8424 S.o2      1 <0>         0.0000
     15 H1         -3.1092   -3.5658    2.2097 H         1 <0>         0.0000
     16 H2         -4.7118   -1.8705    1.3682 H         1 <0>         0.0000
     17 H3         -1.0146   -2.8451    3.3293 H         1 <0>         0.0000
     18 H4         -4.2292    0.5377    1.6415 H         1 <0>         0.0000
     19 H5         -0.5209   -0.4399    3.6076 H         1 <0>         0.0000
     20 H6         -0.3161    2.9250   -1.1638 H         1 <0>         0.0000
     21 H7         -1.3465    1.6624   -1.8711 H         1 <0>         0.0000
     22 H8         -0.5010    0.0037   -0.2944 H         1 <0>         0.0000
     23 H9          0.9656    0.8795   -0.7709 H         1 <0>         0.0000
     24 H10        -2.3877    3.2846    0.0108 H         1 <0>         0.0000
     25 H11        -2.7020    1.5280    0.1379 H         1 <0>         0.0000
     26 H12         0.2482    0.6572    1.8515 H         1 <0>         0.0000
     27 H13         0.9567    2.1776    1.2564 H         1 <0>         0.0000
@<TRIPOS>BOND
     1    1    3 ar
     2    1    2 ar
     3    1   15 1
     4    2    4 ar
     5    2   16 1
     6    3    5 ar
     7    3   17 1
     8    4    6 ar
     9    4   18 1
    10    5    6 ar
    11    5   19 1
    12    6   14 1
    13    7    8 1
    14    7    9 1
    15    7   20 1
    16    7   21 1
    17    8   10 1
    18    8   22 1
    19    8   23 1
    20    9   11 1
    21    9   24 1
    22    9   25 1
    23   10   11 1
    24   10   26 1
    25   10   27 1
    26   11   14 1
    27   12   14 2
    28   13   14 2
