@<TRIPOS>MOLECULE
*****
   30    31     0     0     0
SMALL
NO_CHARGES

@<TRIPOS>ATOM
      1 C1          0.5877    0.3629   -5.1583 C.ar      1 <0>         0.0000
      2 C2          2.0484   -0.4163   -6.7239 C.ar      1 <0>         0.0000
      3 C3          1.0343   -0.6024   -4.2546 C.ar      1 <0>         0.0000
      4 C4          2.4850   -1.3939   -5.8002 C.ar      1 <0>         0.0000
      5 C5          0.4440   -0.7575   -2.8801 C.2       1 <0>         0.0000
      6 C6         -0.0271   -0.7324    0.0480 C.3       1 <0>         0.0000
      7 C7         -0.2410    1.4100    0.1110 C.3       1 <0>         0.0000
      8 C8         -0.5420    0.3273   -0.9511 C.3       1 <0>         0.0000
      9 C9          0.9920    0.4128    2.1841 C.3       1 <0>         0.0000
     10 C10         0.8802   -0.7574    3.1483 C.3       1 <0>         0.0000
     11 N1          1.0981    0.4519   -6.3968 N.ar      1 <0>         0.0000
     12 N2          1.9848   -1.4928   -4.5847 N.ar      1 <0>         0.0000
     13 N3          0.2045    0.4164   -2.1835 N.am      1 <0>         0.0000
     14 N4         -0.1076    0.3226    1.1736 N.4       1 <0>         0.0000
     15 O1          0.2076   -1.8440   -2.3674 O.2       1 <0>         0.0000
     16 F1         -0.4312   -0.7596    3.6443 F         1 <0>         0.0000
     17 Cl1         3.7258   -2.5147   -6.2723 Cl        1 <0>         0.0000
     18 H1         -0.2146    1.0579   -4.9163 H         1 <0>         0.0000
     19 H2          2.4775   -0.3559   -7.7209 H         1 <0>         0.0000
     20 H3         -0.6385   -1.6106    0.2393 H         1 <0>         0.0000
     21 H4          1.0158   -1.0037   -0.1027 H         1 <0>         0.0000
     22 H5          0.7299    1.8877   -0.0255 H         1 <0>         0.0000
     23 H6         -1.0087    2.1444    0.3534 H         1 <0>         0.0000
     24 H7         -1.6179    0.2134   -1.1249 H         1 <0>         0.0000
     25 H8          0.8702    1.3635    2.7095 H         1 <0>         0.0000
     26 H9          1.9485    0.4088    1.6565 H         1 <0>         0.0000
     27 H10         1.5732   -0.6352    3.9833 H         1 <0>         0.0000
     28 H11         1.0531   -1.7209    2.6612 H         1 <0>         0.0000
     29 H12         0.2694    1.3095   -2.6582 H         1 <0>         0.0000
     30 H13        -0.9850    0.2128    1.6946 H         1 <0>         0.0000
@<TRIPOS>BOND
     1    1    3 ar
     2    1   11 ar
     3    1   18 1
     4    2    4 ar
     5    2   11 ar
     6    2   19 1
     7    3    5 1
     8    3   12 ar
     9    4   12 ar
    10    4   17 1
    11    5   13 am
    12    5   15 2
    13    6    8 1
    14    6   14 1
    15    6   20 1
    16    6   21 1
    17    7    8 1
    18    7   14 1
    19    7   22 1
    20    7   23 1
    21    8   13 1
    22    8   24 1
    23    9   10 1
    24    9   14 1
    25    9   25 1
    26    9   26 1
    27   10   16 1
    28   10   27 1
    29   10   28 1
    30   13   29 1
    31   14   30 1
