@<TRIPOS>MOLECULE
*****
   32    34     0     0     0
SMALL
NO_CHARGES

@<TRIPOS>ATOM
      1 C1         -0.3590   -0.4558    1.0440 C.ar      1 <0>         0.0000
      2 C2         -1.2581   -1.4567    1.3860 C.ar      1 <0>         0.0000
      3 C3          0.2694   -0.1700    3.3502 C.ar      1 <0>         0.0000
      4 C4         -2.4489   -3.1836    4.3122 C.2       1 <0>         0.0000
      5 C5         -0.6339   -1.1813    3.7292 C.ar      1 <0>         0.0000
      6 C6         -1.7752   -2.6460    5.3655 C.2       1 <0>         0.0000
      7 C7          0.4215    0.2060    2.0203 C.ar      1 <0>         0.0000
      8 C8         -0.7912   -1.5761    5.1423 C.2       1 <0>         0.0000
      9 C9         -1.3885   -1.8128    2.7328 C.ar      1 <0>         0.0000
     10 C10        -2.9147   -4.6921   10.6099 C.2       1 <0>         0.0000
     11 C11        -3.9128   -5.4108    8.6167 C.2       1 <0>         0.0000
     12 C12        -1.9929   -3.0977    6.7406 C.2       1 <0>         0.0000
     13 C13        -2.3127   -3.8762    9.4649 C.3       1 <0>         0.0000
     14 C14         1.3903    1.2896    1.6091 C.3       1 <0>         0.0000
     15 N1         -2.8432   -4.0291    7.0013 N.2       1 <0>         0.0000
     16 N2         -3.8236   -5.5462   10.0195 N.am      1 <0>         0.0000
     17 N3         -3.0031   -4.4073    8.2941 N.am      1 <0>         0.0000
     18 O1         -0.1516   -1.0538    6.0625 O.2       1 <0>         0.0000
     19 O2         -2.6452   -4.6028   11.7910 O.2       1 <0>         0.0000
     20 O3         -4.6365   -6.0480    7.8842 O.2       1 <0>         0.0000
     21 O4         -2.2916   -2.8102    3.0282 O.3       1 <0>         0.0000
     22 H1         -0.2537   -0.1749   -0.0015 H         1 <0>         0.0000
     23 H2         -1.8585   -1.9662    0.6384 H         1 <0>         0.0000
     24 H3          0.8438    0.3057    4.1401 H         1 <0>         0.0000
     25 H4         -3.1843   -3.9739    4.4190 H         1 <0>         0.0000
     26 H5         -1.3877   -2.5873    7.4923 H         1 <0>         0.0000
     27 H6         -2.5086   -2.8088    9.6157 H         1 <0>         0.0000
     28 H7         -1.2293   -4.0324    9.4164 H         1 <0>         0.0000
     29 H8          0.8728    2.1071    1.0950 H         1 <0>         0.0000
     30 H9          1.9073    1.7104    2.4749 H         1 <0>         0.0000
     31 H10         2.1482    0.9000    0.9204 H         1 <0>         0.0000
     32 H11        -4.3880   -6.2185   10.5256 H         1 <0>         0.0000
@<TRIPOS>BOND
     1    1    2 ar
     2    1    7 ar
     3    1   22 1
     4    2    9 ar
     5    2   23 1
     6    3    5 ar
     7    3    7 ar
     8    3   24 1
     9    4    6 2
    10    4   21 1
    11    4   25 1
    12    5    9 ar
    13    5    8 1
    14    6    8 1
    15    6   12 1
    16    7   14 1
    17    8   18 2
    18    9   21 1
    19   10   13 1
    20   10   16 am
    21   10   19 2
    22   11   16 am
    23   11   17 am
    24   11   20 2
    25   12   15 2
    26   12   26 1
    27   13   17 1
    28   13   27 1
    29   13   28 1
    30   14   29 1
    31   14   30 1
    32   14   31 1
    33   15   17 1
    34   16   32 1
