@<TRIPOS>MOLECULE
*****
   51    53     0     0     0
SMALL
NO_CHARGES

@<TRIPOS>ATOM
      1 C1         -2.5455    3.4678    1.4991 C.ar      1 <0>         0.0000
      2 C2          5.5305    4.1000    1.6867 C.ar      1 <0>         0.0000
      3 C3         -1.9770    1.0550    6.2464 C.ar      1 <0>         0.0000
      4 C4         -1.3320    4.1015    1.7666 C.ar      1 <0>         0.0000
      5 C5         -2.5944    2.4087    0.5928 C.ar      1 <0>         0.0000
      6 C6          4.4189    3.5929    2.3599 C.ar      1 <0>         0.0000
      7 C7          5.8637    3.6113    0.4235 C.ar      1 <0>         0.0000
      8 C8         -2.8056    0.8246    5.1483 C.ar      1 <0>         0.0000
      9 C9         -0.6072    0.8100    6.1501 C.ar      1 <0>         0.0000
     10 C10        -0.1673    3.6759    1.1278 C.ar      1 <0>         0.0000
     11 C11        -1.4297    1.9831   -0.0460 C.ar      1 <0>         0.0000
     12 C12         3.6406    2.5972    1.7697 C.ar      1 <0>         0.0000
     13 C13         5.0853    2.6156   -0.1667 C.ar      1 <0>         0.0000
     14 C14        -2.2644    0.3491    3.9538 C.ar      1 <0>         0.0000
     15 C15        -0.0660    0.3346    4.9557 C.ar      1 <0>         0.0000
     16 C16        -0.2162    2.6167    0.2215 C.ar      1 <0>         0.0000
     17 C17         3.9738    2.1085    0.5064 C.ar      1 <0>         0.0000
     18 C18        -0.8946    0.1041    3.8575 C.ar      1 <0>         0.0000
     19 C19         1.0379    2.1590   -0.4655 C.3       1 <0>         0.0000
     20 C20         3.1354    1.0369   -0.1284 C.3       1 <0>         0.0000
     21 C21         1.0726   -0.1641    0.1465 C.3       1 <0>         0.0000
     22 C22         1.0428   -0.5854    2.6630 C.3       1 <0>         0.0000
     23 C23         1.4366   -1.1144    1.2873 C.3       1 <0>         0.0000
     24 N1          1.7318    1.1130    0.2969 N.3       1 <0>         0.0000
     25 O1          0.7928   -2.3735    1.0887 O.3       1 <0>         0.0000
     26 O2         -0.3637   -0.3610    2.6843 O.3       1 <0>         0.0000
     27 H1         -3.4527    3.8000    1.9954 H         1 <0>         0.0000
     28 H2          6.1374    4.8744    2.1467 H         1 <0>         0.0000
     29 H3         -2.3987    1.4247    7.1765 H         1 <0>         0.0000
     30 H4         -1.2938    4.9269    2.4713 H         1 <0>         0.0000
     31 H5         -3.5394    1.9159    0.3836 H         1 <0>         0.0000
     32 H6          4.1599    3.9724    3.3438 H         1 <0>         0.0000
     33 H7          6.7298    4.0052   -0.1003 H         1 <0>         0.0000
     34 H8         -3.8722    1.0155    5.2241 H         1 <0>         0.0000
     35 H9          0.0382    0.9896    7.0051 H         1 <0>         0.0000
     36 H10         0.7737    4.1755    1.3425 H         1 <0>         0.0000
     37 H11        -1.4772    1.1569   -0.7505 H         1 <0>         0.0000
     38 H12         2.7763    2.2081    2.3015 H         1 <0>         0.0000
     39 H13         5.3524    2.2409   -1.1513 H         1 <0>         0.0000
     40 H14        -2.9145    0.1731    3.1010 H         1 <0>         0.0000
     41 H15         1.0021    0.1471    4.8867 H         1 <0>         0.0000
     42 H16         0.8093    1.7570   -1.4586 H         1 <0>         0.0000
     43 H17         1.7361    2.9911   -0.6043 H         1 <0>         0.0000
     44 H18         3.1621    1.1218   -1.2202 H         1 <0>         0.0000
     45 H19         3.5098    0.0406    0.1295 H         1 <0>         0.0000
     46 H20         1.3786   -0.5961   -0.8123 H         1 <0>         0.0000
     47 H21        -0.0106   -0.0079    0.1139 H         1 <0>         0.0000
     48 H22         1.5410    0.3653    2.8762 H         1 <0>         0.0000
     49 H23         1.2739   -1.3076    3.4524 H         1 <0>         0.0000
     50 H24         2.5158   -1.3074    1.2674 H         1 <0>         0.0000
     51 H25         1.1135   -2.7137    0.2400 H         1 <0>         0.0000
@<TRIPOS>BOND
     1    1    5 ar
     2    1    4 ar
     3    1   27 1
     4    2    7 ar
     5    2    6 ar
     6    2   28 1
     7    3    9 ar
     8    3    8 ar
     9    3   29 1
    10    4   10 ar
    11    4   30 1
    12    5   11 ar
    13    5   31 1
    14    6   12 ar
    15    6   32 1
    16    7   13 ar
    17    7   33 1
    18    8   14 ar
    19    8   34 1
    20    9   15 ar
    21    9   35 1
    22   10   16 ar
    23   10   36 1
    24   11   16 ar
    25   11   37 1
    26   12   17 ar
    27   12   38 1
    28   13   17 ar
    29   13   39 1
    30   14   18 ar
    31   14   40 1
    32   15   18 ar
    33   15   41 1
    34   16   19 1
    35   17   20 1
    36   18   26 1
    37   19   24 1
    38   19   42 1
    39   19   43 1
    40   20   24 1
    41   20   44 1
    42   20   45 1
    43   21   23 1
    44   21   24 1
    45   21   46 1
    46   21   47 1
    47   22   23 1
    48   22   26 1
    49   22   48 1
    50   22   49 1
    51   23   25 1
    52   23   50 1
    53   25   51 1
