@<TRIPOS>MOLECULE
*****
   30    31     0     0     0
SMALL
NO_CHARGES

@<TRIPOS>ATOM
      1 C1          2.4711    0.1137    0.1113 C.ar      1 <0>         0.0000
      2 C2          6.2863   -2.1284    0.6637 C.ar      1 <0>         0.0000
      3 C3          2.2873   -1.2306    0.4351 C.ar      1 <0>         0.0000
      4 C4          2.4312    1.0841    1.1125 C.ar      1 <0>         0.0000
      5 C5          6.1228   -3.1655    1.5821 C.ar      1 <0>         0.0000
      6 C6          5.9824   -0.8175    1.0307 C.ar      1 <0>         0.0000
      7 C7          2.0638   -1.6044    1.7602 C.ar      1 <0>         0.0000
      8 C8          2.2077    0.7102    2.4376 C.ar      1 <0>         0.0000
      9 C9          5.6554   -2.8916    2.8675 C.ar      1 <0>         0.0000
     10 C10         5.5150   -0.5436    2.3160 C.ar      1 <0>         0.0000
     11 C11         2.0239   -0.6341    2.7615 C.ar      1 <0>         0.0000
     12 C12         5.3515   -1.5806    3.2345 C.ar      1 <0>         0.0000
     13 N1          3.1948   -1.9148    4.8502 N.pl3     1 <0>         0.0000
     14 O1          1.6266    0.1015    5.2326 O.2       1 <0>         0.0000
     15 O2          0.6568   -2.0680    4.4179 O.2       1 <0>         0.0000
     16 O3          5.6023   -1.9915    5.7717 O.2       1 <0>         0.0000
     17 O4          4.6595    0.2069    5.0042 O.2       1 <0>         0.0000
     18 F1          3.1711   -3.2655    4.6012 F         1 <0>         0.0000
     19 S1          1.7474   -1.1019    4.4208 S.o2      1 <0>         0.0000
     20 S2          4.7627   -1.2327    4.8635 S.o2      1 <0>         0.0000
     21 H1          2.6458    0.4041   -0.9207 H         1 <0>         0.0000
     22 H2          6.6509   -2.3423   -0.3368 H         1 <0>         0.0000
     23 H3          2.3191   -1.9858   -0.3445 H         1 <0>         0.0000
     24 H4          2.5753    2.1307    0.8609 H         1 <0>         0.0000
     25 H5          6.3602   -4.1859    1.2963 H         1 <0>         0.0000
     26 H6          6.1106   -0.0096    0.3163 H         1 <0>         0.0000
     27 H7          1.9232   -2.6546    2.0014 H         1 <0>         0.0000
     28 H8          2.1794    1.4742    3.2099 H         1 <0>         0.0000
     29 H9          5.5331   -3.7069    3.5753 H         1 <0>         0.0000
     30 H10         5.2821    0.4815    2.5919 H         1 <0>         0.0000
@<TRIPOS>BOND
     1    1    4 ar
     2    1    3 ar
     3    1   21 1
     4    2    6 ar
     5    2    5 ar
     6    2   22 1
     7    3    7 ar
     8    3   23 1
     9    4    8 ar
    10    4   24 1
    11    5    9 ar
    12    5   25 1
    13    6   10 ar
    14    6   26 1
    15    7   11 ar
    16    7   27 1
    17    8   11 ar
    18    8   28 1
    19    9   12 ar
    20    9   29 1
    21   10   12 ar
    22   10   30 1
    23   11   19 1
    24   12   20 1
    25   13   18 1
    26   13   19 1
    27   13   20 1
    28   14   19 2
    29   15   19 2
    30   16   20 2
    31   17   20 2
