@<TRIPOS>MOLECULE
*****
   18    18     0     0     0
SMALL
NO_CHARGES

@<TRIPOS>ATOM
      1 C1          1.4146   -1.8903    0.1699 C.ar      1 <0>         0.0000
      2 C2          2.4948   -1.5840    2.3135 C.ar      1 <0>         0.0000
      3 C3          0.2007   -1.4595    0.7086 C.ar      1 <0>         0.0000
      4 C4          1.2844   -1.1654    2.8660 C.ar      1 <0>         0.0000
      5 C5          2.5744   -1.9553    0.9605 C.ar      1 <0>         0.0000
      6 C6          0.1478   -1.1040    2.0567 C.ar      1 <0>         0.0000
      7 C7          3.8345   -2.4587    0.3570 C.2       1 <0>         0.0000
      8 N1          5.0472   -2.0776    0.5921 N.2       1 <0>         0.0000
      9 N2          3.6776   -3.4280   -0.6486 N.pl3     1 <0>         0.0000
     10 O1          5.1193   -0.9646    1.4702 O.3       1 <0>         0.0000
     11 Br1        -1.5152   -0.5212    2.8120 Br        1 <0>         0.0000
     12 H1          1.4698   -2.1647   -0.8788 H         1 <0>         0.0000
     13 H2          3.3807   -1.6237    2.9354 H         1 <0>         0.0000
     14 H3         -0.6878   -1.4011    0.0884 H         1 <0>         0.0000
     15 H4          1.2268   -0.8876    3.9134 H         1 <0>         0.0000
     16 H5          3.0682   -4.1939   -0.3747 H         1 <0>         0.0000
     17 H6          4.5779   -3.7703   -0.9752 H         1 <0>         0.0000
     18 H7          6.0712   -0.7769    1.4688 H         1 <0>         0.0000
@<TRIPOS>BOND
     1    1    3 ar
     2    1    5 ar
     3    1   12 1
     4    2    4 ar
     5    2    5 ar
     6    2   13 1
     7    3    6 ar
     8    3   14 1
     9    4    6 ar
    10    4   15 1
    11    5    7 1
    12    6   11 1
    13    7    8 2
    14    7    9 1
    15    8   10 1
    16    9   16 1
    17    9   17 1
    18   10   18 1
