@<TRIPOS>MOLECULE
*****
   21    22     0     0     0
SMALL
NO_CHARGES

@<TRIPOS>ATOM
      1 C1          0.6109    0.4892    1.9281 C.ar      1 <0>         0.0000
      2 C2          0.2723   -0.3410    0.8540 C.ar      1 <0>         0.0000
      3 C3          0.8366   -0.0856    3.1759 C.ar      1 <0>         0.0000
      4 C4          0.1746   -1.7179    1.0800 C.ar      1 <0>         0.0000
      5 C5          1.3714   -3.5581    7.1523 C.2       1 <0>         0.0000
      6 C6          0.7136   -1.4796    3.2999 C.ar      1 <0>         0.0000
      7 C7          1.7930   -1.5759    7.9728 C.2       1 <0>         0.0000
      8 C8          0.9324   -2.1779    4.5753 C.2       1 <0>         0.0000
      9 N1          0.3881   -2.2869    2.2719 N.ar      1 <0>         0.0000
     10 N2          1.6512   -3.7027    8.4202 N.2       1 <0>         0.0000
     11 N3          1.9221   -2.4412    8.9519 N.2       1 <0>         0.0000
     12 N4          1.2505   -1.5233    5.6335 N.2       1 <0>         0.0000
     13 N5          1.4448   -2.2161    6.8015 N.pl3     1 <0>         0.0000
     14 S1          2.0104    0.1653    8.0403 S.3       1 <0>         0.0000
     15 H1          0.6965    1.5640    1.7923 H         1 <0>         0.0000
     16 H2          0.0875    0.0642   -0.1365 H         1 <0>         0.0000
     17 H3          1.1018    0.5095    4.0435 H         1 <0>         0.0000
     18 H4         -0.0868   -2.3935    0.2674 H         1 <0>         0.0000
     19 H5          1.1186   -4.3562    6.4702 H         1 <0>         0.0000
     20 H6          0.8038   -3.2619    4.5362 H         1 <0>         0.0000
     21 H7          2.3133    0.1289    9.3541 H         1 <0>         0.0000
@<TRIPOS>BOND
     1    1    2 ar
     2    1    3 ar
     3    1   15 1
     4    2    4 ar
     5    2   16 1
     6    3    6 ar
     7    3   17 1
     8    4    9 ar
     9    4   18 1
    10    5   10 2
    11    5   13 1
    12    5   19 1
    13    6    8 1
    14    6    9 ar
    15    7   11 2
    16    7   13 1
    17    7   14 1
    18    8   12 2
    19    8   20 1
    20   10   11 1
    21   12   13 1
    22   14   21 1
