@<TRIPOS>MOLECULE
*****
   24    25     0     0     0
SMALL
NO_CHARGES

@<TRIPOS>ATOM
      1 C1          0.3049   -1.8353    1.7923 C.ar      1 <0>         0.0000
      2 C2          0.2219   -0.4845    1.4317 C.ar      1 <0>         0.0000
      3 C3          1.4925   -2.3444    2.3069 C.ar      1 <0>         0.0000
      4 C4          1.3317    0.3474    1.5901 C.ar      1 <0>         0.0000
      5 C5          2.6279   -1.5265    2.4901 C.ar      1 <0>         0.0000
      6 C6          2.5153   -0.1749    2.1135 C.ar      1 <0>         0.0000
      7 C7          3.9785   -5.5790    5.4380 C.2       1 <0>         0.0000
      8 C8          5.0608   -4.7087    5.0458 C.2       1 <0>         0.0000
      9 C9          3.8680   -2.0858    3.0341 C.2       1 <0>         0.0000
     10 N1          4.4315   -6.4008    6.3536 N.2       1 <0>         0.0000
     11 N2          6.1364   -5.0181    5.7219 N.2       1 <0>         0.0000
     12 N3          3.8588   -3.1965    3.6880 N.2       1 <0>         0.0000
     13 N4          2.7028   -5.6183    4.9098 N.pl3     1 <0>         0.0000
     14 N5          5.0519   -3.7073    4.0908 N.pl3     1 <0>         0.0000
     15 O1          5.7703   -6.0759    6.5314 O.3       1 <0>         0.0000
     16 Br1         3.9922    1.0412    2.3303 Br        1 <0>         0.0000
     17 H1         -0.5516   -2.4899    1.6577 H         1 <0>         0.0000
     18 H2         -0.6987   -0.0782    1.0223 H         1 <0>         0.0000
     19 H3          1.5753   -3.3974    2.5564 H         1 <0>         0.0000
     20 H4          1.2794    1.3953    1.3137 H         1 <0>         0.0000
     21 H5          4.7968   -1.5343    2.8643 H         1 <0>         0.0000
     22 H6          2.3966   -4.7190    4.5548 H         1 <0>         0.0000
     23 H7          2.0287   -6.0875    5.5043 H         1 <0>         0.0000
     24 H8          5.8961   -3.1383    4.0200 H         1 <0>         0.0000
@<TRIPOS>BOND
     1    1    2 ar
     2    1    3 ar
     3    1   17 1
     4    2    4 ar
     5    2   18 1
     6    3    5 ar
     7    3   19 1
     8    4    6 ar
     9    4   20 1
    10    5    6 ar
    11    5    9 1
    12    6   16 1
    13    7    8 1
    14    7   10 2
    15    7   13 1
    16    8   11 2
    17    8   14 1
    18    9   12 2
    19    9   21 1
    20   10   15 1
    21   11   15 1
    22   12   14 1
    23   13   22 1
    24   13   23 1
    25   14   24 1
