@<TRIPOS>MOLECULE
*****
   31    33     0     0     0
SMALL
NO_CHARGES

@<TRIPOS>ATOM
      1 C1          3.2131    0.5907   -0.7491 C.ar      1 <0>         0.0000
      2 C2          2.5992    1.8548   -0.9228 C.ar      1 <0>         0.0000
      3 C3          4.5276    0.4975   -0.3349 C.ar      1 <0>         0.0000
      4 C4         10.4658   -2.2597    0.5556 C.ar      1 <0>         0.0000
      5 C5          3.3040    3.0132   -0.6687 C.ar      1 <0>         0.0000
      6 C6         11.6897   -2.2809    1.2156 C.ar      1 <0>         0.0000
      7 C7          9.5726   -0.7864    2.2498 C.ar      1 <0>         0.0000
      8 C8          6.5406    4.0223    0.4552 C.ar      1 <0>         0.0000
      9 C9          5.2795    1.6749   -0.0724 C.ar      1 <0>         0.0000
     10 C10         9.3918   -1.4980    1.0513 C.ar      1 <0>         0.0000
     11 C11         4.6526    2.9529   -0.2315 C.ar      1 <0>         0.0000
     12 C12        11.8679   -1.5562    2.3996 C.ar      1 <0>         0.0000
     13 C13        10.7968   -0.8149    2.9211 C.ar      1 <0>         0.0000
     14 C14         6.6451    1.7336    0.3736 C.ar      1 <0>         0.0000
     15 C15         8.1068   -1.5319    0.3239 C.2       1 <0>         0.0000
     16 N1          5.2997    4.1312    0.0331 N.ar      1 <0>         0.0000
     17 N2          7.2523    2.8856    0.6382 N.ar      1 <0>         0.0000
     18 N3          7.2305   -0.6005    0.1420 N.2       1 <0>         0.0000
     19 N4          7.4615    0.6422    0.6290 N.pl3     1 <0>         0.0000
     20 Cl1        13.4162   -1.6066    3.1956 Cl        1 <0>         0.0000
     21 Cl2        10.9517    0.0767    4.4117 Cl        1 <0>         0.0000
     22 H1          2.6452   -0.3149   -0.9448 H         1 <0>         0.0000
     23 H2          1.5652    1.9100   -1.2537 H         1 <0>         0.0000
     24 H3          4.9966   -0.4688   -0.2157 H         1 <0>         0.0000
     25 H4         10.3428   -2.8321   -0.3599 H         1 <0>         0.0000
     26 H5          2.8563    3.9954   -0.7856 H         1 <0>         0.0000
     27 H6         12.5193   -2.8599    0.8225 H         1 <0>         0.0000
     28 H7          8.7512   -0.2410    2.7019 H         1 <0>         0.0000
     29 H8          7.0723    4.9453    0.6817 H         1 <0>         0.0000
     30 H9          7.8511   -2.4726   -0.1611 H         1 <0>         0.0000
     31 H10         8.4048    0.9221    0.9025 H         1 <0>         0.0000
@<TRIPOS>BOND
     1    1    2 ar
     2    1    3 ar
     3    1   22 1
     4    2    5 ar
     5    2   23 1
     6    3    9 ar
     7    3   24 1
     8    4    6 ar
     9    4   10 ar
    10    4   25 1
    11    5   11 ar
    12    5   26 1
    13    6   12 ar
    14    6   27 1
    15    7   10 ar
    16    7   13 ar
    17    7   28 1
    18    8   16 ar
    19    8   17 ar
    20    8   29 1
    21    9   11 ar
    22    9   14 ar
    23   10   15 1
    24   11   16 ar
    25   12   13 ar
    26   12   20 1
    27   13   21 1
    28   14   17 ar
    29   14   19 1
    30   15   18 2
    31   15   30 1
    32   18   19 1
    33   19   31 1
