@<TRIPOS>MOLECULE
*****
   35    36     0     0     0
SMALL
NO_CHARGES

@<TRIPOS>ATOM
      1 C1          3.1756    1.3293   -1.1101 C.1       1 <0>         0.0000
      2 C2         -2.1316   -4.2328   -5.2290 C.ar      1 <0>         0.0000
      3 C3         -3.9731   -4.4969   -3.6969 C.ar      1 <0>         0.0000
      4 C4         -1.5056   -3.3538   -4.3529 C.ar      1 <0>         0.0000
      5 C5         -3.3579   -3.6162   -2.8064 C.ar      1 <0>         0.0000
      6 C6          1.9152    0.6925   -0.8785 C.2       1 <0>         0.0000
      7 C7         -3.3746   -4.8199   -4.9226 C.ar      1 <0>         0.0000
      8 C8          1.3650   -0.1695   -1.8099 C.2       1 <0>         0.0000
      9 C9         -2.1210   -3.0379   -3.1271 C.ar      1 <0>         0.0000
     10 C10         0.1049   -0.7773   -1.5272 C.2       1 <0>         0.0000
     11 C11         1.2629    1.0117    0.3884 C.2       1 <0>         0.0000
     12 C12        -0.5450   -0.4789   -0.2991 C.2       1 <0>         0.0000
     13 C13        -4.0478   -5.7498   -5.9027 C.3       1 <0>         0.0000
     14 C14         2.0521   -0.4860   -3.1096 C.3       1 <0>         0.0000
     15 C15        -0.7192    0.6339    1.8567 C.3       1 <0>         0.0000
     16 N1          4.2045    1.8315   -1.3301 N.1       1 <0>         0.0000
     17 N2         -1.5653   -2.1619   -2.1751 N.2       1 <0>         0.0000
     18 N3         -0.4325   -1.6331   -2.4613 N.2       1 <0>         0.0000
     19 N4          0.0035    0.3657    0.6032 N.am      1 <0>         0.0000
     20 O1          1.7127    1.7676    1.2400 O.2       1 <0>         0.0000
     21 O2         -1.7050   -1.0091    0.0136 O.3       1 <0>         0.0000
     22 H1         -1.6491   -4.4747   -6.1737 H         1 <0>         0.0000
     23 H2         -4.9306   -4.9395   -3.4334 H         1 <0>         0.0000
     24 H3         -0.5476   -2.9083   -4.5974 H         1 <0>         0.0000
     25 H4         -3.8274   -3.3719   -1.8570 H         1 <0>         0.0000
     26 H5         -3.3268   -6.4313   -6.3651 H         1 <0>         0.0000
     27 H6         -4.8219   -6.3511   -5.4182 H         1 <0>         0.0000
     28 H7         -4.5255   -5.1840   -6.7118 H         1 <0>         0.0000
     29 H8          2.2306   -1.5623   -3.1880 H         1 <0>         0.0000
     30 H9          3.0011    0.0419   -3.1977 H         1 <0>         0.0000
     31 H10         1.4090   -0.2124   -3.9511 H         1 <0>         0.0000
     32 H11        -0.8620   -0.2977    2.4076 H         1 <0>         0.0000
     33 H12        -1.6954    1.0694    1.6346 H         1 <0>         0.0000
     34 H13        -0.1146    1.3290    2.4341 H         1 <0>         0.0000
     35 H14        -1.9456   -1.6238   -0.8137 H         1 <0>         0.0000
@<TRIPOS>BOND
     1    1    6 1
     2    1   16 3
     3    2    4 ar
     4    2    7 ar
     5    2   22 1
     6    3    5 ar
     7    3    7 ar
     8    3   23 1
     9    4    9 ar
    10    4   24 1
    11    5    9 ar
    12    5   25 1
    13    6    8 2
    14    6   11 1
    15    7   13 1
    16    8   10 1
    17    8   14 1
    18    9   17 1
    19   10   12 2
    20   10   18 1
    21   11   19 am
    22   11   20 2
    23   12   19 1
    24   12   21 1
    25   13   26 1
    26   13   27 1
    27   13   28 1
    28   14   29 1
    29   14   30 1
    30   14   31 1
    31   15   19 1
    32   15   32 1
    33   15   33 1
    34   15   34 1
    35   17   18 2
    36   21   35 1
