@<TRIPOS>MOLECULE
*****
   27    28     0     0     0
SMALL
NO_CHARGES

@<TRIPOS>ATOM
      1 C1         -0.5959    2.3273   -2.2028 C.1       1 <0>         0.0000
      2 C2          3.4241   -0.7517    2.6693 C.ar      1 <0>         0.0000
      3 C3          2.0965   -0.4358    2.9564 C.ar      1 <0>         0.0000
      4 C4          3.7732   -1.2996    1.4312 C.ar      1 <0>         0.0000
      5 C5          1.4362   -1.2101    0.7540 C.ar      1 <0>         0.0000
      6 C6         -1.7972    2.0009   -1.5258 C.2       1 <0>         0.0000
      7 C7          1.0902   -0.6445    1.9961 C.ar      1 <0>         0.0000
      8 C8          2.7675   -1.5321    0.4905 C.ar      1 <0>         0.0000
      9 C9         -1.9049    1.2300   -0.3883 C.2       1 <0>         0.0000
     10 C10        -3.8770    1.9088   -1.0177 C.2       1 <0>         0.0000
     11 C11        -0.3045   -0.3066    2.3519 C.2       1 <0>         0.0000
     12 C12        -5.3519    2.0228   -0.8824 C.3       1 <0>         0.0000
     13 N1          0.4331    2.5555   -2.7059 N.1       1 <0>         0.0000
     14 N2         -3.0844    2.4144   -1.9028 N.2       1 <0>         0.0000
     15 N3         -1.2422    0.2061    1.6301 N.2       1 <0>         0.0000
     16 N4         -0.9715    0.5263    0.3256 N.pl3     1 <0>         0.0000
     17 O1         -3.2114    1.1555   -0.0477 O.3       1 <0>         0.0000
     18 Cl1         3.1815   -2.2514   -1.0529 Cl        1 <0>         0.0000
     19 H1          4.1972   -0.5753    3.4118 H         1 <0>         0.0000
     20 H2          1.8340   -0.0158    3.9239 H         1 <0>         0.0000
     21 H3          4.8036   -1.5503    1.2009 H         1 <0>         0.0000
     22 H4          0.6755   -1.4451    0.0171 H         1 <0>         0.0000
     23 H5         -0.6025   -0.4841    3.3841 H         1 <0>         0.0000
     24 H6         -5.8250    1.0361   -0.9100 H         1 <0>         0.0000
     25 H7         -5.6206    2.4979    0.0667 H         1 <0>         0.0000
     26 H8         -5.7322    2.6272   -1.7064 H         1 <0>         0.0000
     27 H9         -0.0052    0.6665    0.0277 H         1 <0>         0.0000
@<TRIPOS>BOND
     1    1    6 1
     2    1   13 3
     3    2    3 ar
     4    2    4 ar
     5    2   19 1
     6    3    7 ar
     7    3   20 1
     8    4    8 ar
     9    4   21 1
    10    5    7 ar
    11    5    8 ar
    12    5   22 1
    13    6    9 2
    14    6   14 1
    15    7   11 1
    16    8   18 1
    17    9   16 1
    18    9   17 1
    19   10   12 1
    20   10   14 2
    21   10   17 1
    22   11   15 2
    23   11   23 1
    24   12   24 1
    25   12   25 1
    26   12   26 1
    27   15   16 1
    28   16   27 1
