@<TRIPOS>MOLECULE
*****
   15    15     0     0     0
SMALL
NO_CHARGES

@<TRIPOS>ATOM
      1 C1          0.2407   -0.3839    0.9305 C.ar      1 <0>         0.0000
      2 C2          1.6384   -0.6257    2.8878 C.ar      1 <0>         0.0000
      3 C3         -0.6386   -1.2888    1.5238 C.ar      1 <0>         0.0000
      4 C4          1.3991   -0.0565    1.6418 C.ar      1 <0>         0.0000
      5 C5          0.6731   -1.5232    3.3744 C.ar      1 <0>         0.0000
      6 C6         -0.4365   -3.3212    5.2411 C.3       1 <0>         0.0000
      7 N1         -0.4367   -1.8541    2.7229 N.ar      1 <0>         0.0000
      8 F1         -0.5448   -4.3014    4.3311 F         1 <0>         0.0000
      9 F2         -1.6030   -2.6596    5.2883 F         1 <0>         0.0000
     10 F3         -0.2389   -3.8987    6.4503 F         1 <0>         0.0000
     11 S1          1.0136   -2.2361    4.9827 S.3       1 <0>         0.0000
     12 Cl1         2.5511    1.0692    0.9672 Cl        1 <0>         0.0000
     13 H1          0.0328    0.0470   -0.0425 H         1 <0>         0.0000
     14 H2          2.5320   -0.3840    3.4544 H         1 <0>         0.0000
     15 H3         -1.5541   -1.5761    1.0108 H         1 <0>         0.0000
@<TRIPOS>BOND
     1    1    3 ar
     2    1    4 ar
     3    1   13 1
     4    2    4 ar
     5    2    5 ar
     6    2   14 1
     7    3    7 ar
     8    3   15 1
     9    4   12 1
    10    5    7 ar
    11    5   11 1
    12    6    8 1
    13    6    9 1
    14    6   10 1
    15    6   11 1
