@<TRIPOS>MOLECULE
*****
   44    46     0     0     0
SMALL
NO_CHARGES

@<TRIPOS>ATOM
      1 C1         -2.9819    2.1398   -5.5661 C.ar      1 <0>         0.0000
      2 C2         -1.8932    1.7488   -6.3465 C.ar      1 <0>         0.0000
      3 C3         -3.1778    1.5135   -4.3327 C.ar      1 <0>         0.0000
      4 C4         -1.0559    0.7413   -5.8533 C.ar      1 <0>         0.0000
      5 C5         -2.2795    0.5214   -3.9193 C.ar      1 <0>         0.0000
      6 C6         -0.5835    2.1579   -0.2484 C.3       1 <0>         0.0000
      7 C7         -0.3563    1.2024    0.9283 C.3       1 <0>         0.0000
      8 C8         -0.0753   -1.2249    1.6512 C.3       1 <0>         0.0000
      9 C9         -1.7039    1.6583   -1.1609 C.3       1 <0>         0.0000
     10 C10         1.3999   -1.1619    2.0949 C.3       1 <0>         0.0000
     11 C11        -1.3559   -0.6240   -0.4651 C.3       1 <0>         0.0000
     12 C12         1.1726   -0.4576   -0.2369 C.3       1 <0>         0.0000
     13 C13        -0.1895   -0.2550    0.4540 C.3       1 <0>         0.0000
     14 C14         3.9957   -2.3999    0.1040 C.3       1 <0>         0.0000
     15 C15        -2.4307   -0.1756   -2.5833 C.3       1 <0>         0.0000
     16 N1         -1.2357    0.1362   -4.6740 N.ar      1 <0>         0.0000
     17 N2         -1.4451    0.2863   -1.6044 N.3       1 <0>         0.0000
     18 N3          2.0787   -0.5801    0.9162 N.pl3     1 <0>         0.0000
     19 O1          4.3079   -0.6464    2.0571 O.2       1 <0>         0.0000
     20 O2          4.1035    0.1960   -0.3549 O.2       1 <0>         0.0000
     21 S1          3.7133   -0.7199    0.7195 S.o2      1 <0>         0.0000
     22 H1         -3.6628    2.9154   -5.9078 H         1 <0>         0.0000
     23 H2         -1.6945    2.2033   -7.3129 H         1 <0>         0.0000
     24 H3         -4.0123    1.7894   -3.6935 H         1 <0>         0.0000
     25 H4         -0.2017    0.4030   -6.4386 H         1 <0>         0.0000
     26 H5         -0.8365    3.1569    0.1239 H         1 <0>         0.0000
     27 H6          0.3339    2.2611   -0.8367 H         1 <0>         0.0000
     28 H7          0.5176    1.5128    1.5104 H         1 <0>         0.0000
     29 H8         -1.2239    1.2458    1.6003 H         1 <0>         0.0000
     30 H9         -0.3223   -2.2410    1.3226 H         1 <0>         0.0000
     31 H10        -0.7581   -0.9649    2.4646 H         1 <0>         0.0000
     32 H11        -2.6760    1.7200   -0.6275 H         1 <0>         0.0000
     33 H12        -1.7781    2.3026   -2.0412 H         1 <0>         0.0000
     34 H13         1.5581   -0.5134    2.9595 H         1 <0>         0.0000
     35 H14         1.7891   -2.1545    2.3492 H         1 <0>         0.0000
     36 H15        -1.2131   -1.6414   -0.8464 H         1 <0>         0.0000
     37 H16        -2.2933   -0.6289    0.1298 H         1 <0>         0.0000
     38 H17         1.1524   -1.3712   -0.8507 H         1 <0>         0.0000
     39 H18         1.4808    0.3703   -0.8713 H         1 <0>         0.0000
     40 H19         5.0732   -2.5182   -0.0241 H         1 <0>         0.0000
     41 H20         3.6235   -3.1144    0.8401 H         1 <0>         0.0000
     42 H21         3.4871   -2.5141   -0.8546 H         1 <0>         0.0000
     43 H22        -3.4655   -0.0499   -2.2114 H         1 <0>         0.0000
     44 H23        -2.2649   -1.2442   -2.7467 H         1 <0>         0.0000
@<TRIPOS>BOND
     1    1    2 ar
     2    1    3 ar
     3    1   22 1
     4    2    4 ar
     5    2   23 1
     6    3    5 ar
     7    3   24 1
     8    4   16 ar
     9    4   25 1
    10    5   15 1
    11    5   16 ar
    12    6    7 1
    13    6    9 1
    14    6   26 1
    15    6   27 1
    16    7   13 1
    17    7   28 1
    18    7   29 1
    19    8   10 1
    20    8   13 1
    21    8   30 1
    22    8   31 1
    23    9   17 1
    24    9   32 1
    25    9   33 1
    26   10   18 1
    27   10   34 1
    28   10   35 1
    29   11   13 1
    30   11   17 1
    31   11   36 1
    32   11   37 1
    33   12   13 1
    34   12   18 1
    35   12   38 1
    36   12   39 1
    37   14   21 1
    38   14   40 1
    39   14   41 1
    40   14   42 1
    41   15   17 1
    42   15   43 1
    43   15   44 1
    44   18   21 1
    45   19   21 2
    46   20   21 2
