@<TRIPOS>MOLECULE
*****
   31    33     0     0     0
SMALL
NO_CHARGES

@<TRIPOS>ATOM
      1 C1          5.8451    1.1520    4.0800 C.ar      1 <0>         0.0000
      2 C2          5.3361    2.4680    4.1973 C.ar      1 <0>         0.0000
      3 C3          6.5084    0.7532    2.9357 C.ar      1 <0>         0.0000
      4 C4         10.2003   -1.3466   -1.0667 C.ar      1 <0>         0.0000
      5 C5          5.5047    3.3748    3.1715 C.ar      1 <0>         0.0000
      6 C6         11.0515   -1.6075   -2.1372 C.ar      1 <0>         0.0000
      7 C7          9.0531   -3.4320   -1.4839 C.ar      1 <0>         0.0000
      8 C8          6.9999    3.5547   -0.0669 C.ar      1 <0>         0.0000
      9 C9          6.6915    1.6651    1.8607 C.ar      1 <0>         0.0000
     10 C10         9.1758   -2.2531   -0.7305 C.ar      1 <0>         0.0000
     11 C11         6.1885    3.0005    1.9858 C.ar      1 <0>         0.0000
     12 C12        10.9038   -2.7711   -2.8990 C.ar      1 <0>         0.0000
     13 C13         9.8982   -3.6914   -2.5624 C.ar      1 <0>         0.0000
     14 C14         7.3646    1.3970    0.6186 C.ar      1 <0>         0.0000
     15 C15         8.2590   -2.0634    0.4119 C.2       1 <0>         0.0000
     16 N1          6.3469    3.9450    1.0060 N.ar      1 <0>         0.0000
     17 N2          7.5174    2.3295   -0.3168 N.ar      1 <0>         0.0000
     18 N3          7.7284   -0.9817    0.8781 N.2       1 <0>         0.0000
     19 N4          7.9636    0.1998    0.2608 N.pl3     1 <0>         0.0000
     20 Cl1        11.9840   -3.0488   -4.2364 Cl        1 <0>         0.0000
     21 Cl2         9.6808   -5.1685   -3.4642 Cl        1 <0>         0.0000
     22 H1          5.7114    0.4483    4.8972 H         1 <0>         0.0000
     23 H2          4.8132    2.7641    5.1032 H         1 <0>         0.0000
     24 H3          6.8855   -0.2554    2.8451 H         1 <0>         0.0000
     25 H4         10.3704   -0.4576   -0.4684 H         1 <0>         0.0000
     26 H5          5.1306    4.3920    3.2365 H         1 <0>         0.0000
     27 H6         11.8455   -0.9115   -2.3881 H         1 <0>         0.0000
     28 H7          8.2837   -4.1572   -1.2357 H         1 <0>         0.0000
     29 H8          7.1444    4.2905   -0.8567 H         1 <0>         0.0000
     30 H9          7.9536   -2.9631    0.9435 H         1 <0>         0.0000
     31 H10         8.3405    0.2230   -0.6876 H         1 <0>         0.0000
@<TRIPOS>BOND
     1    1    2 ar
     2    1    3 ar
     3    1   22 1
     4    2    5 ar
     5    2   23 1
     6    3    9 ar
     7    3   24 1
     8    4    6 ar
     9    4   10 ar
    10    4   25 1
    11    5   11 ar
    12    5   26 1
    13    6   12 ar
    14    6   27 1
    15    7   10 ar
    16    7   13 ar
    17    7   28 1
    18    8   16 ar
    19    8   17 ar
    20    8   29 1
    21    9   11 ar
    22    9   14 ar
    23   10   15 1
    24   11   16 ar
    25   12   13 ar
    26   12   20 1
    27   13   21 1
    28   14   17 ar
    29   14   19 1
    30   15   18 2
    31   15   30 1
    32   18   19 1
    33   19   31 1
