@<TRIPOS>MOLECULE
*****
   31    33     0     0     0
SMALL
NO_CHARGES

@<TRIPOS>ATOM
      1 C1          6.3980    1.2180    3.9892 C.ar      1 <0>         0.0000
      2 C2          6.1818    2.5562    4.3986 C.ar      1 <0>         0.0000
      3 C3          6.5381    0.9055    2.6510 C.ar      1 <0>         0.0000
      4 C4          8.3209   -2.6336   -2.6368 C.ar      1 <0>         0.0000
      5 C5          6.0963    3.5666    3.4634 C.ar      1 <0>         0.0000
      6 C6          8.1926   -2.9062   -3.9945 C.ar      1 <0>         0.0000
      7 C7          6.2643   -1.3664   -2.6921 C.ar      1 <0>         0.0000
      8 C8          6.2121    3.9926   -0.0811 C.ar      1 <0>         0.0000
      9 C9          6.4610    1.9276    1.6662 C.ar      1 <0>         0.0000
     10 C10         7.3689   -1.8441   -1.9661 C.ar      1 <0>         0.0000
     11 C11         6.2251    3.2785    2.0799 C.ar      1 <0>         0.0000
     12 C12         7.0987   -2.4128   -4.7149 C.ar      1 <0>         0.0000
     13 C13         6.1263   -1.6480   -4.0529 C.ar      1 <0>         0.0000
     14 C14         6.5754    1.7524    0.2438 C.ar      1 <0>         0.0000
     15 C15         7.5416   -1.6073   -0.5185 C.2       1 <0>         0.0000
     16 N1          6.1058    4.3134    1.1901 N.ar      1 <0>         0.0000
     17 N2          6.4436    2.7664   -0.6051 N.ar      1 <0>         0.0000
     18 N3          7.2676   -0.5633    0.1910 N.2       1 <0>         0.0000
     19 N4          6.7758    0.5463   -0.4106 N.pl3     1 <0>         0.0000
     20 Cl1         6.9744   -2.7744   -6.4140 Cl        1 <0>         0.0000
     21 Cl2         4.7246   -1.0391   -4.8929 Cl        1 <0>         0.0000
     22 H1          6.4557    0.4297    4.7349 H         1 <0>         0.0000
     23 H2          6.0781    2.7853    5.4562 H         1 <0>         0.0000
     24 H3          6.7157   -0.1151    2.3431 H         1 <0>         0.0000
     25 H4          9.1737   -3.0286   -2.0912 H         1 <0>         0.0000
     26 H5          5.9231    4.6000    3.7480 H         1 <0>         0.0000
     27 H6          8.9362   -3.5051   -4.5105 H         1 <0>         0.0000
     28 H7          5.4734   -0.8112   -2.1995 H         1 <0>         0.0000
     29 H8          6.1108    4.7973   -0.8077 H         1 <0>         0.0000
     30 H9          7.9894   -2.4185    0.0534 H         1 <0>         0.0000
     31 H10         6.8608    0.6658   -1.4212 H         1 <0>         0.0000
@<TRIPOS>BOND
     1    1    2 ar
     2    1    3 ar
     3    1   22 1
     4    2    5 ar
     5    2   23 1
     6    3    9 ar
     7    3   24 1
     8    4    6 ar
     9    4   10 ar
    10    4   25 1
    11    5   11 ar
    12    5   26 1
    13    6   12 ar
    14    6   27 1
    15    7   10 ar
    16    7   13 ar
    17    7   28 1
    18    8   16 ar
    19    8   17 ar
    20    8   29 1
    21    9   11 ar
    22    9   14 ar
    23   10   15 1
    24   11   16 ar
    25   12   13 ar
    26   12   20 1
    27   13   21 1
    28   14   17 ar
    29   14   19 1
    30   15   18 2
    31   15   30 1
    32   18   19 1
    33   19   31 1
