@<TRIPOS>MOLECULE
*****
   44    46     0     0     0
SMALL
NO_CHARGES

@<TRIPOS>ATOM
      1 C1         -6.3857    0.0704    1.4320 C.1       1 <0>         0.0000
      2 C2         -4.1635    1.0789    1.2791 C.2       1 <0>         0.0000
      3 C3         -5.4415    0.9214    0.7785 C.2       1 <0>         0.0000
      4 C4         -3.2029    1.9102    0.6592 C.2       1 <0>         0.0000
      5 C5         -3.5593    2.5859   -0.4971 C.2       1 <0>         0.0000
      6 C6         -5.8518    1.6141   -0.4374 C.2       1 <0>         0.0000
      7 C7          0.3258   -0.0670   -0.9362 C.2       1 <0>         0.0000
      8 C8         -1.8335    2.0976    1.2380 C.2       1 <0>         0.0000
      9 C9          1.5668   -2.6819   -0.2236 C.3       1 <0>         0.0000
     10 C10         0.1414   -2.2844    0.1834 C.3       1 <0>         0.0000
     11 C11         0.9277   -0.2219    1.5275 C.3       1 <0>         0.0000
     12 C12         2.2506   -1.6309   -1.1314 C.3       1 <0>         0.0000
     13 C13         0.2788    1.1118    1.9226 C.3       1 <0>         0.0000
     14 C14        -1.3661   -0.3390    0.8892 C.3       1 <0>         0.0000
     15 C15         0.0224   -0.7724    0.3951 C.3       1 <0>         0.0000
     16 C16        -2.6319    3.4744   -1.2735 C.3       1 <0>         0.0000
     17 C17         1.7615    0.0363   -2.9067 C.3       1 <0>         0.0000
     18 N1         -7.1236   -0.6398    1.9896 N.1       1 <0>         0.0000
     19 N2         -4.8193    2.4136   -0.9808 N.am      1 <0>         0.0000
     20 N3          1.3397   -0.6162   -1.6709 N.am      1 <0>         0.0000
     21 N4         -1.1386    0.9570    1.5445 N.am      1 <0>         0.0000
     22 O1         -6.9428    1.5623   -0.9968 O.2       1 <0>         0.0000
     23 O2         -0.3318    0.9037   -1.3303 O.2       1 <0>         0.0000
     24 O3         -1.3711    3.2215    1.4480 O.2       1 <0>         0.0000
     25 H1         -3.8895    0.5481    2.1872 H         1 <0>         0.0000
     26 H2          2.1808   -2.8141    0.6718 H         1 <0>         0.0000
     27 H3          1.5422   -3.6509   -0.7296 H         1 <0>         0.0000
     28 H4         -0.5696   -2.5859   -0.5940 H         1 <0>         0.0000
     29 H5         -0.1471   -2.8132    1.0985 H         1 <0>         0.0000
     30 H6          1.9718   -0.0891    1.2336 H         1 <0>         0.0000
     31 H7          0.9068   -0.9302    2.3636 H         1 <0>         0.0000
     32 H8          3.0641   -1.1321   -0.5867 H         1 <0>         0.0000
     33 H9          2.7165   -2.1241   -1.9888 H         1 <0>         0.0000
     34 H10         0.3791    1.3312    2.9892 H         1 <0>         0.0000
     35 H11         0.6980    1.9563    1.3691 H         1 <0>         0.0000
     36 H12        -2.0802   -0.2449    0.0737 H         1 <0>         0.0000
     37 H13        -1.7453   -1.0759    1.6089 H         1 <0>         0.0000
     38 H14        -1.6967    2.9447   -1.4721 H         1 <0>         0.0000
     39 H15        -2.3872    4.3618   -0.6853 H         1 <0>         0.0000
     40 H16        -3.0805    3.7798   -2.2230 H         1 <0>         0.0000
     41 H17         2.7090    0.5721   -2.7638 H         1 <0>         0.0000
     42 H18         0.9952    0.7480   -3.2087 H         1 <0>         0.0000
     43 H19         1.8984   -0.7140   -3.6923 H         1 <0>         0.0000
     44 H20        -5.0908    2.8910   -1.8362 H         1 <0>         0.0000
@<TRIPOS>BOND
     1    1    3 1
     2    1   18 3
     3    2    3 2
     4    2    4 1
     5    2   25 1
     6    3    6 1
     7    4    5 2
     8    4    8 1
     9    5   16 1
    10    5   19 1
    11    6   19 am
    12    6   22 2
    13    7   15 1
    14    7   20 am
    15    7   23 2
    16    8   21 am
    17    8   24 2
    18    9   10 1
    19    9   12 1
    20    9   26 1
    21    9   27 1
    22   10   15 1
    23   10   28 1
    24   10   29 1
    25   11   13 1
    26   11   15 1
    27   11   30 1
    28   11   31 1
    29   12   20 1
    30   12   32 1
    31   12   33 1
    32   13   21 1
    33   13   34 1
    34   13   35 1
    35   14   15 1
    36   14   21 1
    37   14   36 1
    38   14   37 1
    39   16   38 1
    40   16   39 1
    41   16   40 1
    42   17   20 1
    43   17   41 1
    44   17   42 1
    45   17   43 1
    46   19   44 1
