@<TRIPOS>MOLECULE
*****
   36    38     0     0     0
SMALL
NO_CHARGES

@<TRIPOS>ATOM
      1 C1         -1.4458    6.3359   -5.8192 C.1       1 <0>         0.0000
      2 C2         -0.2092    1.7713   -1.6137 C.ar      1 <0>         0.0000
      3 C3         -1.0114    0.6118   -1.4711 C.ar      1 <0>         0.0000
      4 C4         -0.7421    3.0262   -1.3970 C.ar      1 <0>         0.0000
      5 C5         -2.3374    0.7233   -1.1071 C.ar      1 <0>         0.0000
      6 C6         -4.0649    4.4372   -0.4117 C.ar      1 <0>         0.0000
      7 C7         -1.1827    6.2392   -4.4328 C.2       1 <0>         0.0000
      8 C8         -2.1067    3.1712   -1.0236 C.ar      1 <0>         0.0000
      9 C9         -2.7384    4.4309   -0.7816 C.ar      1 <0>         0.0000
     10 C10        -2.9154    1.9988   -0.8729 C.ar      1 <0>         0.0000
     11 C11        -4.7895    3.2145   -0.2749 C.ar      1 <0>         0.0000
     12 C12         0.0667    6.3381   -3.7413 C.2       1 <0>         0.0000
     13 C13        -2.1359    5.9892   -3.4350 C.2       1 <0>         0.0000
     14 C14        -6.2375    3.2457    0.1472 C.3       1 <0>         0.0000
     15 C15         1.4150    6.5905   -4.3365 C.3       1 <0>         0.0000
     16 C16        -1.9916    5.7422   -0.9272 C.3       1 <0>         0.0000
     17 N1         -1.6893    6.4081   -6.9601 N.1       1 <0>         0.0000
     18 N2         -4.2343    2.0406   -0.5055 N.ar      1 <0>         0.0000
     19 N3         -0.1012    6.1607   -2.4386 N.2       1 <0>         0.0000
     20 N4         -1.4571    5.9586   -2.2640 N.pl3     1 <0>         0.0000
     21 N5         -3.5119    5.8827   -3.5237 N.pl3     1 <0>         0.0000
     22 H1          0.8347    1.6711   -1.8985 H         1 <0>         0.0000
     23 H2         -0.5763   -0.3683   -1.6485 H         1 <0>         0.0000
     24 H3         -0.1141    3.9023   -1.5198 H         1 <0>         0.0000
     25 H4         -2.9736   -0.1484   -0.9865 H         1 <0>         0.0000
     26 H5         -4.5763    5.3787   -0.2222 H         1 <0>         0.0000
     27 H6         -6.8254    3.9066   -0.4997 H         1 <0>         0.0000
     28 H7         -6.6580    2.2399    0.1065 H         1 <0>         0.0000
     29 H8         -6.3341    3.6259    1.1710 H         1 <0>         0.0000
     30 H9          1.4414    7.5598   -4.8451 H         1 <0>         0.0000
     31 H10         2.1748    6.5827   -3.5525 H         1 <0>         0.0000
     32 H11         1.6629    5.8258   -5.0799 H         1 <0>         0.0000
     33 H12        -2.6559    6.5727   -0.6667 H         1 <0>         0.0000
     34 H13        -1.1275    5.7791   -0.2606 H         1 <0>         0.0000
     35 H14        -3.9219    5.1713   -2.9254 H         1 <0>         0.0000
     36 H15        -3.8341    5.7966   -4.4829 H         1 <0>         0.0000
@<TRIPOS>BOND
     1    1    7 1
     2    1   17 3
     3    2    3 ar
     4    2    4 ar
     5    2   22 1
     6    3    5 ar
     7    3   23 1
     8    4    8 ar
     9    4   24 1
    10    5   10 ar
    11    5   25 1
    12    6    9 ar
    13    6   11 ar
    14    6   26 1
    15    7   12 1
    16    7   13 2
    17    8    9 ar
    18    8   10 ar
    19    9   16 1
    20   10   18 ar
    21   11   14 1
    22   11   18 ar
    23   12   15 1
    24   12   19 2
    25   13   20 1
    26   13   21 1
    27   14   27 1
    28   14   28 1
    29   14   29 1
    30   15   30 1
    31   15   31 1
    32   15   32 1
    33   16   20 1
    34   16   33 1
    35   16   34 1
    36   19   20 1
    37   21   35 1
    38   21   36 1
