@<TRIPOS>MOLECULE
*****
   34    36     0     0     0
SMALL
NO_CHARGES

@<TRIPOS>ATOM
      1 C1         -0.4489   -2.2923  -12.9148 C.1       1 <0>         0.0000
      2 C2          4.0386    1.9150   -8.6855 C.ar      1 <0>         0.0000
      3 C3          4.9571    0.8994   -9.0065 C.ar      1 <0>         0.0000
      4 C4          2.7359    1.6090   -8.2929 C.ar      1 <0>         0.0000
      5 C5          4.5852   -0.4459   -8.9380 C.ar      1 <0>         0.0000
      6 C6         -0.3094   -2.8599  -10.4496 C.2       1 <0>         0.0000
      7 C7         -0.2210   -3.1375  -11.8005 C.2       1 <0>         0.0000
      8 C8          0.0122   -4.0643   -9.7505 C.2       1 <0>         0.0000
      9 C9          2.3436    0.2641   -8.2195 C.ar      1 <0>         0.0000
     10 C10         3.2810   -0.7489   -8.5421 C.ar      1 <0>         0.0000
     11 C11         0.2958   -5.0430  -10.7222 C.2       1 <0>         0.0000
     12 C12         1.0339   -1.4882   -7.8845 C.2       1 <0>         0.0000
     13 C13         0.0079   -4.3417   -8.3230 C.2       1 <0>         0.0000
     14 C14         0.7108   -6.4720  -10.5769 C.3       1 <0>         0.0000
     15 C15         0.3762   -5.1484  -13.2289 C.3       1 <0>         0.0000
     16 N1         -0.6332   -1.6185  -13.8505 N.1       1 <0>         0.0000
     17 N2          1.0821   -0.1892   -7.8574 N.2       1 <0>         0.0000
     18 N3         -0.0860   -3.5681   -7.2912 N.2       1 <0>         0.0000
     19 N4          0.1560   -4.4740  -11.9555 N.pl3     1 <0>         0.0000
     20 N5         -0.1274   -2.1789   -7.5608 N.pl3     1 <0>         0.0000
     21 S1          2.5293   -2.3284   -8.3595 S.3       1 <0>         0.0000
     22 H1          4.3491    2.9546   -8.7460 H         1 <0>         0.0000
     23 H2          5.9668    1.1603   -9.3113 H         1 <0>         0.0000
     24 H3          2.0197    2.3869   -8.0449 H         1 <0>         0.0000
     25 H4          5.2954   -1.2300   -9.1853 H         1 <0>         0.0000
     26 H5         -0.5818   -1.9071  -10.0239 H         1 <0>         0.0000
     27 H6          0.0654   -5.3923   -8.0407 H         1 <0>         0.0000
     28 H7          0.0159   -7.1474  -11.0887 H         1 <0>         0.0000
     29 H8          1.7080   -6.6422  -10.9993 H         1 <0>         0.0000
     30 H9          0.7470   -6.7631   -9.5271 H         1 <0>         0.0000
     31 H10         1.4009   -5.5254  -13.2904 H         1 <0>         0.0000
     32 H11        -0.3213   -5.9824  -13.3479 H         1 <0>         0.0000
     33 H12         0.2149   -4.4386  -14.0398 H         1 <0>         0.0000
     34 H13        -0.6184   -1.7003   -6.8105 H         1 <0>         0.0000
@<TRIPOS>BOND
     1    1    7 1
     2    1   16 3
     3    2    3 ar
     4    2    4 ar
     5    2   22 1
     6    3    5 ar
     7    3   23 1
     8    4    9 ar
     9    4   24 1
    10    5   10 ar
    11    5   25 1
    12    6    7 2
    13    6    8 1
    14    6   26 1
    15    7   19 1
    16    8   11 2
    17    8   13 1
    18    9   10 ar
    19    9   17 1
    20   10   21 1
    21   11   14 1
    22   11   19 1
    23   12   17 2
    24   12   20 1
    25   12   21 1
    26   13   18 2
    27   13   27 1
    28   14   28 1
    29   14   29 1
    30   14   30 1
    31   15   19 1
    32   15   31 1
    33   15   32 1
    34   15   33 1
    35   18   20 1
    36   20   34 1
