@<TRIPOS>MOLECULE
*****
   15    15     0     0     0
SMALL
NO_CHARGES

@<TRIPOS>ATOM
      1 C1          0.3551   -0.5772    0.7709 C.ar      1 <0>         0.0000
      2 C2          0.8983   -0.2684    3.1125 C.ar      1 <0>         0.0000
      3 C3         -0.4744   -1.6281    1.1651 C.ar      1 <0>         0.0000
      4 C4          1.0446    0.1016    1.7765 C.ar      1 <0>         0.0000
      5 C5          0.0355   -1.3408    3.3776 C.ar      1 <0>         0.0000
      6 C6          0.6577   -1.0017    6.1240 C.3       1 <0>         0.0000
      7 N1         -0.6370   -2.0090    2.4376 N.ar      1 <0>         0.0000
      8 F1          0.3316    0.3116    6.0970 F         1 <0>         0.0000
      9 F2          1.9886   -1.0757    5.8905 F         1 <0>         0.0000
     10 F3          0.4294   -1.4594    7.3692 F         1 <0>         0.0000
     11 S1         -0.3385   -2.0229    4.9943 S.3       1 <0>         0.0000
     12 Cl1         2.1024    1.4285    1.3654 Cl        1 <0>         0.0000
     13 H1          0.4577   -0.3017   -0.2728 H         1 <0>         0.0000
     14 H2          1.4349    0.2612    3.8878 H         1 <0>         0.0000
     15 H3         -1.0353   -2.1912    0.4221 H         1 <0>         0.0000
@<TRIPOS>BOND
     1    1    3 ar
     2    1    4 ar
     3    1   13 1
     4    2    4 ar
     5    2    5 ar
     6    2   14 1
     7    3    7 ar
     8    3   15 1
     9    4   12 1
    10    5    7 ar
    11    5   11 1
    12    6    8 1
    13    6    9 1
    14    6   10 1
    15    6   11 1
