@<TRIPOS>MOLECULE
*****
   44    46     0     0     0
SMALL
NO_CHARGES

@<TRIPOS>ATOM
      1 C1         -4.2022    4.5126   -1.4282 C.2       1 <0>         0.0000
      2 C2         -2.3318    3.0026   -1.7983 C.2       1 <0>         0.0000
      3 C3         -3.6840    3.1914   -1.5995 C.2       1 <0>         0.0000
      4 C4         -3.3690    5.5979   -1.4900 C.2       1 <0>         0.0000
      5 C5         -1.4161    4.1298   -1.8624 C.2       1 <0>         0.0000
      6 C6          2.2179   -1.4096    1.4290 C.2       1 <0>         0.0000
      7 C7         -1.7869    1.6351   -2.1219 C.2       1 <0>         0.0000
      8 C8         -0.3601   -1.1679   -0.5072 C.3       1 <0>         0.0000
      9 C9         -0.5248    0.7473    1.1213 C.3       1 <0>         0.0000
     10 C10        -0.1837   -0.1481   -1.6349 C.3       1 <0>         0.0000
     11 C11        -0.3688    1.7241   -0.0525 C.3       1 <0>         0.0000
     12 C12        -0.0344   -1.6213    1.9876 C.3       1 <0>         0.0000
     13 C13         0.1214   -0.6063    0.8367 C.3       1 <0>         0.0000
     14 C14        -4.6529    2.0345   -1.5831 C.3       1 <0>         0.0000
     15 C15        -3.8128    7.0253   -1.3441 C.3       1 <0>         0.0000
     16 C16         1.6592   -3.1985    3.0309 C.3       1 <0>         0.0000
     17 N1         -2.0349    5.3824   -1.7002 N.am      1 <0>         0.0000
     18 N2          1.2820   -2.2267    2.0239 N.am      1 <0>         0.0000
     19 N3         -0.8444    1.1094   -1.2871 N.am      1 <0>         0.0000
     20 O1         -0.1935    4.0764   -2.0346 O.2       1 <0>         0.0000
     21 O2          3.4258   -1.5199    1.4575 O.2       1 <0>         0.0000
     22 O3         -2.2129    1.0304   -3.1130 O.2       1 <0>         0.0000
     23 O4          1.5661   -0.4081    0.7556 O.3       1 <0>         0.0000
     24 H1         -5.2624    4.6648   -1.2581 H         1 <0>         0.0000
     25 H2         -1.4217   -1.4281   -0.4188 H         1 <0>         0.0000
     26 H3          0.1926   -2.0854   -0.7366 H         1 <0>         0.0000
     27 H4         -0.0748    1.1794    2.0214 H         1 <0>         0.0000
     28 H5         -1.5911    0.5840    1.3223 H         1 <0>         0.0000
     29 H6          0.8827    0.0472   -1.7993 H         1 <0>         0.0000
     30 H7         -0.6202   -0.5112   -2.5641 H         1 <0>         0.0000
     31 H8         -0.9395    2.6281    0.1503 H         1 <0>         0.0000
     32 H9          0.6803    2.0138   -0.1712 H         1 <0>         0.0000
     33 H10        -0.2757   -1.1252    2.9411 H         1 <0>         0.0000
     34 H11        -0.8145   -2.3603    1.7770 H         1 <0>         0.0000
     35 H12        -4.9504    1.7899   -2.6078 H         1 <0>         0.0000
     36 H13        -5.5510    2.2854   -1.0115 H         1 <0>         0.0000
     37 H14        -4.2051    1.1312   -1.1634 H         1 <0>         0.0000
     38 H15        -3.3051    7.5111   -0.5028 H         1 <0>         0.0000
     39 H16        -4.8888    7.0767   -1.1705 H         1 <0>         0.0000
     40 H17        -3.5836    7.6000   -2.2489 H         1 <0>         0.0000
     41 H18         1.5175   -2.8016    4.0461 H         1 <0>         0.0000
     42 H19         2.7129   -3.4435    2.8918 H         1 <0>         0.0000
     43 H20         1.0599   -4.1082    2.9217 H         1 <0>         0.0000
     44 H21        -1.3926    6.1678   -1.7544 H         1 <0>         0.0000
@<TRIPOS>BOND
     1    1    3 1
     2    1    4 2
     3    1   24 1
     4    2    3 2
     5    2    5 1
     6    2    7 1
     7    3   14 1
     8    4   15 1
     9    4   17 1
    10    5   17 am
    11    5   20 2
    12    6   18 am
    13    6   21 2
    14    6   23 1
    15    7   19 am
    16    7   22 2
    17    8   10 1
    18    8   13 1
    19    8   25 1
    20    8   26 1
    21    9   11 1
    22    9   13 1
    23    9   27 1
    24    9   28 1
    25   10   19 1
    26   10   29 1
    27   10   30 1
    28   11   19 1
    29   11   31 1
    30   11   32 1
    31   12   13 1
    32   12   18 1
    33   12   33 1
    34   12   34 1
    35   13   23 1
    36   14   35 1
    37   14   36 1
    38   14   37 1
    39   15   38 1
    40   15   39 1
    41   15   40 1
    42   16   18 1
    43   16   41 1
    44   16   42 1
    45   16   43 1
    46   17   44 1
