@<TRIPOS>MOLECULE
*****
   29    31     0     0     0
SMALL
NO_CHARGES

@<TRIPOS>ATOM
      1 C1         -1.1751   -4.7400  -10.6055 C.ar      1 <0>         0.0000
      2 C2          2.1717    1.7207   -4.3683 C.ar      1 <0>         0.0000
      3 C3          1.9639    0.9374   -3.2183 C.ar      1 <0>         0.0000
      4 C4         -0.5205   -5.6842  -11.4029 C.ar      1 <0>         0.0000
      5 C5         -0.8842   -4.6597   -9.2441 C.ar      1 <0>         0.0000
      6 C6          1.9936    1.2016   -5.6570 C.ar      1 <0>         0.0000
      7 C7          1.5668   -0.4061   -3.3119 C.ar      1 <0>         0.0000
      8 C8          0.4172   -6.5502  -10.8348 C.ar      1 <0>         0.0000
      9 C9          0.0640   -5.5137   -8.6451 C.ar      1 <0>         0.0000
     10 C10         1.5969   -0.1343   -5.7631 C.ar      1 <0>         0.0000
     11 C11         1.3961   -0.8916   -4.5969 C.ar      1 <0>         0.0000
     12 C12         0.6967   -6.4596   -9.4707 C.ar      1 <0>         0.0000
     13 C13         1.0146   -2.0902   -6.3528 C.2       1 <0>         0.0000
     14 C14         0.3239   -5.4533   -7.1871 C.2       1 <0>         0.0000
     15 N1          1.3433   -0.9446   -6.8788 N.2       1 <0>         0.0000
     16 N2          0.5529   -4.4127   -6.4625 N.2       1 <0>         0.0000
     17 N3          0.6256   -3.1936   -7.0654 N.pl3     1 <0>         0.0000
     18 O1          1.0124   -2.1696   -4.9903 O.3       1 <0>         0.0000
     19 Br1         2.0019   -7.6591   -8.7338 Br        1 <0>         0.0000
     20 H1         -1.9143   -4.0733  -11.0403 H         1 <0>         0.0000
     21 H2          2.4797    2.7563   -4.2515 H         1 <0>         0.0000
     22 H3          2.1133    1.3785   -2.2370 H         1 <0>         0.0000
     23 H4         -0.7383   -5.7529  -12.4650 H         1 <0>         0.0000
     24 H5         -1.4152   -3.9461   -8.6202 H         1 <0>         0.0000
     25 H6          2.1567    1.8077   -6.5430 H         1 <0>         0.0000
     26 H7          1.4037   -1.0236   -2.4342 H         1 <0>         0.0000
     27 H8          0.9295   -7.2871  -11.4447 H         1 <0>         0.0000
     28 H9          0.3272   -6.3896   -6.6348 H         1 <0>         0.0000
     29 H10         0.7330   -3.1047   -8.0751 H         1 <0>         0.0000
@<TRIPOS>BOND
     1    1    4 ar
     2    1    5 ar
     3    1   20 1
     4    2    3 ar
     5    2    6 ar
     6    2   21 1
     7    3    7 ar
     8    3   22 1
     9    4    8 ar
    10    4   23 1
    11    5    9 ar
    12    5   24 1
    13    6   10 ar
    14    6   25 1
    15    7   11 ar
    16    7   26 1
    17    8   12 ar
    18    8   27 1
    19    9   12 ar
    20    9   14 1
    21   10   11 ar
    22   10   15 1
    23   11   18 1
    24   12   19 1
    25   13   15 2
    26   13   17 1
    27   13   18 1
    28   14   16 2
    29   14   28 1
    30   16   17 1
    31   17   29 1
