@<TRIPOS>MOLECULE
*****
   48    51     0     0     0
SMALL
NO_CHARGES

@<TRIPOS>ATOM
      1 C1          2.6565   -6.9149    6.1618 C.2       1 <0>         0.0000
      2 C2          2.8981   -5.8744    7.0192 C.2       1 <0>         0.0000
      3 C3          1.0389   -5.5796    5.4458 C.2       1 <0>         0.0000
      4 C4          1.0875   -1.5493    1.8539 C.2       1 <0>         0.0000
      5 C5          2.1368   -0.9804    4.4850 C.3       1 <0>         0.0000
      6 C6          0.7290   -1.5560    4.3863 C.3       1 <0>         0.0000
      7 C7         -0.9393   -2.7097    2.8191 C.3       1 <0>         0.0000
      8 C8          2.3760    1.6930    0.9110 C.3       1 <0>         0.0000
      9 C9          3.9623   -0.2331    0.5875 C.3       1 <0>         0.0000
     10 C10         2.3491    0.0231    3.3607 C.3       1 <0>         0.0000
     11 C11        -0.8949   -4.2187    2.4920 C.3       1 <0>         0.0000
     12 C12         1.2698   -3.7246    3.0886 C.3       1 <0>         0.0000
     13 C13         2.9800    2.2976   -0.3607 C.3       1 <0>         0.0000
     14 C14         4.4811    0.4997   -0.6529 C.3       1 <0>         0.0000
     15 C15         2.5034    0.1650    0.8565 C.3       1 <0>         0.0000
     16 C16         0.5466   -2.3185    3.0657 C.3       1 <0>         0.0000
     17 C17        -0.1238   -5.0679    4.6393 C.3       1 <0>         0.0000
     18 N1          1.6104   -6.7406    5.2840 N.2       1 <0>         0.0000
     19 N2          1.9609   -0.5077    2.0493 N.am      1 <0>         0.0000
     20 N3          0.2453   -4.7618    3.2489 N.3       1 <0>         0.0000
     21 O1          0.7704   -1.9220    0.7169 O.2       1 <0>         0.0000
     22 O2          4.3432    1.9155   -0.5314 O.3       1 <0>         0.0000
     23 S1          1.7608   -4.6036    6.7215 S.3       1 <0>         0.0000
     24 H1          3.2202   -7.8416    6.1393 H         1 <0>         0.0000
     25 H2          3.6522   -5.7956    7.7912 H         1 <0>         0.0000
     26 H3          2.2919   -0.4742    5.4436 H         1 <0>         0.0000
     27 H4          2.8814   -1.7816    4.4186 H         1 <0>         0.0000
     28 H5          0.5195   -2.2179    5.2319 H         1 <0>         0.0000
     29 H6          0.0000   -0.7362    4.4420 H         1 <0>         0.0000
     30 H7         -1.3871   -2.1308    2.0101 H         1 <0>         0.0000
     31 H8         -1.5195   -2.5271    3.7302 H         1 <0>         0.0000
     32 H9          2.9112    2.1043    1.7736 H         1 <0>         0.0000
     33 H10         1.3224    1.9845    0.9977 H         1 <0>         0.0000
     34 H11         4.0258   -1.3160    0.4344 H         1 <0>         0.0000
     35 H12         4.5966    0.0249    1.4439 H         1 <0>         0.0000
     36 H13         1.7719    0.9337    3.5734 H         1 <0>         0.0000
     37 H14         3.4019    0.3185    3.3142 H         1 <0>         0.0000
     38 H15        -1.8175   -4.7512    2.7398 H         1 <0>         0.0000
     39 H16        -0.6928   -4.3539    1.4254 H         1 <0>         0.0000
     40 H17         1.7599   -3.8919    2.1259 H         1 <0>         0.0000
     41 H18         2.0304   -3.7944    3.8676 H         1 <0>         0.0000
     42 H19         2.3936    1.9875   -1.2412 H         1 <0>         0.0000
     43 H20         2.9745    3.3898   -0.3161 H         1 <0>         0.0000
     44 H21         5.5467    0.3114   -0.8067 H         1 <0>         0.0000
     45 H22         3.9390    0.1510   -1.5469 H         1 <0>         0.0000
     46 H23         1.8982   -0.1991    0.0241 H         1 <0>         0.0000
     47 H24        -0.8738   -5.8643    4.6052 H         1 <0>         0.0000
     48 H25        -0.5800   -4.2203    5.1778 H         1 <0>         0.0000
@<TRIPOS>BOND
     1    1    2 2
     2    1   18 1
     3    1   24 1
     4    2   23 1
     5    2   25 1
     6    3   17 1
     7    3   18 2
     8    3   23 1
     9    4   16 1
    10    4   19 am
    11    4   21 2
    12    5    6 1
    13    5   10 1
    14    5   26 1
    15    5   27 1
    16    6   16 1
    17    6   28 1
    18    6   29 1
    19    7   11 1
    20    7   16 1
    21    7   30 1
    22    7   31 1
    23    8   13 1
    24    8   15 1
    25    8   32 1
    26    8   33 1
    27    9   14 1
    28    9   15 1
    29    9   34 1
    30    9   35 1
    31   10   19 1
    32   10   36 1
    33   10   37 1
    34   11   20 1
    35   11   38 1
    36   11   39 1
    37   12   16 1
    38   12   20 1
    39   12   40 1
    40   12   41 1
    41   13   22 1
    42   13   42 1
    43   13   43 1
    44   14   22 1
    45   14   44 1
    46   14   45 1
    47   15   19 1
    48   15   46 1
    49   17   20 1
    50   17   47 1
    51   17   48 1
