@<TRIPOS>MOLECULE
*****
   20    21     0     0     0
SMALL
NO_CHARGES

@<TRIPOS>ATOM
      1 C1          1.8313   -0.6670   -0.2580 C.ar      1 <0>         0.0000
      2 C2          0.7545   -0.4575    0.6012 C.ar      1 <0>         0.0000
      3 C3          2.8835   -1.5093    0.1214 C.ar      1 <0>         0.0000
      4 C4         -0.6658    0.0044    6.2921 C.2       1 <0>         0.0000
      5 C5          0.6199    0.4958    6.2572 C.2       1 <0>         0.0000
      6 C6          0.7178   -1.0634    1.8679 C.ar      1 <0>         0.0000
      7 C7          2.8359   -2.1312    1.3621 C.ar      1 <0>         0.0000
      8 C8          1.7660   -1.9119    2.2305 C.ar      1 <0>         0.0000
      9 C9         -0.2343   -0.4180    4.1682 C.2       1 <0>         0.0000
     10 C10        -0.4755   -0.8141    2.7507 C.2       1 <0>         0.0000
     11 N1         -1.1389   -0.4962    5.1125 N.2       1 <0>         0.0000
     12 O1         -1.6059   -0.8678    2.2935 O.2       1 <0>         0.0000
     13 F1          3.8221   -2.9684    1.7427 F         1 <0>         0.0000
     14 F2          1.7483   -2.5698    3.4072 F         1 <0>         0.0000
     15 S1          1.2836    0.3097    4.6814 S.3       1 <0>         0.0000
     16 H1          1.8561   -0.1815   -1.2287 H         1 <0>         0.0000
     17 H2         -0.0753    0.1790    0.3108 H         1 <0>         0.0000
     18 H3          3.7309   -1.6992   -0.5304 H         1 <0>         0.0000
     19 H4         -1.3011   -0.0052    7.1713 H         1 <0>         0.0000
     20 H5          1.1874    0.9491    7.0599 H         1 <0>         0.0000
@<TRIPOS>BOND
     1    1    2 ar
     2    1    3 ar
     3    1   16 1
     4    2    6 ar
     5    2   17 1
     6    3    7 ar
     7    3   18 1
     8    4    5 2
     9    4   11 1
    10    4   19 1
    11    5   15 1
    12    5   20 1
    13    6    8 ar
    14    6   10 1
    15    7    8 ar
    16    7   13 1
    17    8   14 1
    18    9   10 1
    19    9   11 2
    20    9   15 1
    21   10   12 2
