@<TRIPOS>MOLECULE
*****
   31    33     0     0     0
SMALL
NO_CHARGES

@<TRIPOS>ATOM
      1 C1         -6.3171    3.9869    0.0134 C.1       1 <0>         0.0000
      2 C2         -4.2034   -3.2738    2.5413 C.ar      1 <0>         0.0000
      3 C3         -4.1317   -3.7271    3.8552 C.ar      1 <0>         0.0000
      4 C4         -3.7028   -1.4586    4.6916 C.ar      1 <0>         0.0000
      5 C5         -3.8201    0.1526    1.4041 C.2       1 <0>         0.0000
      6 C6         -5.5187    4.7867    0.8663 C.2       1 <0>         0.0000
      7 C7         -3.7667   -0.9889    3.3675 C.ar      1 <0>         0.0000
      8 C8         -3.6428    0.3297    2.7743 C.2       1 <0>         0.0000
      9 C9         -4.0173   -1.9061    2.3139 C.ar      1 <0>         0.0000
     10 C10        -3.8841   -2.8185    4.9051 C.ar      1 <0>         0.0000
     11 C11        -4.6039    4.3087    1.7822 C.2       1 <0>         0.0000
     12 C12        -4.6224    6.4872    1.8112 C.2       1 <0>         0.0000
     13 C13        -3.3246    1.5348    3.5266 C.2       1 <0>         0.0000
     14 C14        -4.1784    7.8148    2.3080 C.3       1 <0>         0.0000
     15 N1         -6.9250    3.2428   -0.6519 N.1       1 <0>         0.0000
     16 N2         -5.5005    6.1890    0.9130 N.2       1 <0>         0.0000
     17 N3         -3.5466    2.7777    3.2459 N.2       1 <0>         0.0000
     18 N4         -4.0344   -1.1784    1.1342 N.pl3     1 <0>         0.0000
     19 N5         -4.1944    3.0325    2.0561 N.pl3     1 <0>         0.0000
     20 O1         -4.0222    5.3647    2.3914 O.3       1 <0>         0.0000
     21 Br1        -3.8091   -3.4992    6.6986 Br        1 <0>         0.0000
     22 H1         -4.3991   -3.9677    1.7283 H         1 <0>         0.0000
     23 H2         -4.2692   -4.7799    4.0765 H         1 <0>         0.0000
     24 H3         -3.5273   -0.7864    5.5250 H         1 <0>         0.0000
     25 H4         -3.7401    0.8607    0.5909 H         1 <0>         0.0000
     26 H5         -2.8394    1.3925    4.4903 H         1 <0>         0.0000
     27 H6         -4.3728    7.9151    3.3807 H         1 <0>         0.0000
     28 H7         -3.1044    7.9538    2.1471 H         1 <0>         0.0000
     29 H8         -4.7256    8.5896    1.7701 H         1 <0>         0.0000
     30 H9         -4.2070   -1.5570    0.2130 H         1 <0>         0.0000
     31 H10        -4.8177    2.3116    1.6864 H         1 <0>         0.0000
@<TRIPOS>BOND
     1    1    6 1
     2    1   15 3
     3    2    3 ar
     4    2    9 ar
     5    2   22 1
     6    3   10 ar
     7    3   23 1
     8    4    7 ar
     9    4   10 ar
    10    4   24 1
    11    5    8 2
    12    5   18 1
    13    5   25 1
    14    6   11 2
    15    6   16 1
    16    7    8 1
    17    7    9 ar
    18    8   13 1
    19    9   18 1
    20   10   21 1
    21   11   19 1
    22   11   20 1
    23   12   14 1
    24   12   16 2
    25   12   20 1
    26   13   17 2
    27   13   26 1
    28   14   27 1
    29   14   28 1
    30   14   29 1
    31   17   19 1
    32   18   30 1
    33   19   31 1
