@<TRIPOS>MOLECULE
*****
   31    34     0     0     0
SMALL
NO_CHARGES

@<TRIPOS>ATOM
      1 C1         -1.2103    4.5376    1.6487 C.ar      1 <0>         0.0000
      2 C2         -1.1216    5.9042    1.4899 C.ar      1 <0>         0.0000
      3 C3          2.4904   -2.8009    0.0470 C.2       1 <0>         0.0000
      4 C4          1.3946   -3.3012    0.7000 C.2       1 <0>         0.0000
      5 C5          0.4963   -2.2754    1.1409 C.2       1 <0>         0.0000
      6 C6         -0.1719    3.7606    1.0993 C.ar      1 <0>         0.0000
      7 C7          0.9398   -1.0055    0.8157 C.2       1 <0>         0.0000
      8 C8         -0.0086    6.4186    0.7959 C.ar      1 <0>         0.0000
      9 C9         -0.1926    2.2896    1.2259 C.2       1 <0>         0.0000
     10 C10         0.3247    0.2647    1.0796 C.2       1 <0>         0.0000
     11 C11         0.1737   -4.8379    1.9505 C.3       1 <0>         0.0000
     12 C12        -1.0307   -3.9342    1.7418 C.3       1 <0>         0.0000
     13 C13         0.1706    7.8967    0.5732 C.3       1 <0>         0.0000
     14 N1          0.8670    4.2947    0.4475 N.ar      1 <0>         0.0000
     15 N2          0.9463    5.6184    0.2979 N.ar      1 <0>         0.0000
     16 N3          0.7713    1.4469    0.7275 N.2       1 <0>         0.0000
     17 N4         -1.1831    1.6821    1.8523 N.2       1 <0>         0.0000
     18 O1         -0.8469    0.3214    1.7613 O.3       1 <0>         0.0000
     19 O2          1.1506   -4.6326    0.9145 O.3       1 <0>         0.0000
     20 O3         -0.6530   -2.5443    1.8145 O.3       1 <0>         0.0000
     21 S1          2.4608   -1.0724   -0.0475 S.3       1 <0>         0.0000
     22 H1         -2.0344    4.0615    2.1704 H         1 <0>         0.0000
     23 H2         -1.8826    6.5723    1.8852 H         1 <0>         0.0000
     24 H3          3.3105   -3.3653   -0.3768 H         1 <0>         0.0000
     25 H4          0.6316   -4.6444    2.9287 H         1 <0>         0.0000
     26 H5         -0.1177   -5.8882    1.8894 H         1 <0>         0.0000
     27 H6         -1.4907   -4.1287    0.7658 H         1 <0>         0.0000
     28 H7         -1.7724   -4.0825    2.5287 H         1 <0>         0.0000
     29 H8          0.2002    8.4357    1.5266 H         1 <0>         0.0000
     30 H9          1.1020    8.0780    0.0345 H         1 <0>         0.0000
     31 H10        -0.6614    8.3074   -0.0097 H         1 <0>         0.0000
@<TRIPOS>BOND
     1    1    2 ar
     2    1    6 ar
     3    1   22 1
     4    2    8 ar
     5    2   23 1
     6    3    4 2
     7    3   21 1
     8    3   24 1
     9    4    5 1
    10    4   19 1
    11    5    7 2
    12    5   20 1
    13    6    9 1
    14    6   14 ar
    15    7   10 1
    16    7   21 1
    17    8   13 1
    18    8   15 ar
    19    9   16 1
    20    9   17 2
    21   10   16 2
    22   10   18 1
    23   11   12 1
    24   11   19 1
    25   11   25 1
    26   11   26 1
    27   12   20 1
    28   12   27 1
    29   12   28 1
    30   13   29 1
    31   13   30 1
    32   13   31 1
    33   14   15 ar
    34   17   18 1
