@<TRIPOS>MOLECULE
*****
   31    33     0     0     0
SMALL
NO_CHARGES

@<TRIPOS>ATOM
      1 C1          2.9628    0.8118   -0.5581 C.ar      1 <0>         0.0000
      2 C2          2.5316    2.1324   -0.2848 C.ar      1 <0>         0.0000
      3 C3          4.3091    0.5151   -0.6471 C.ar      1 <0>         0.0000
      4 C4          9.6509   -1.3073   -2.1283 C.ar      1 <0>         0.0000
      5 C5          3.4524    3.1452   -0.1131 C.ar      1 <0>         0.0000
      6 C6         10.9969   -1.4869   -2.4362 C.ar      1 <0>         0.0000
      7 C7          9.7329   -3.2451   -0.6871 C.ar      1 <0>         0.0000
      8 C8          6.9910    3.6256   -0.1602 C.ar      1 <0>         0.0000
      9 C9          5.2801    1.5378   -0.4688 C.ar      1 <0>         0.0000
     10 C10         8.9993   -2.1804   -1.2354 C.ar      1 <0>         0.0000
     11 C11         4.8425    2.8764   -0.2066 C.ar      1 <0>         0.0000
     12 C12        11.7265   -2.5338   -1.8637 C.ar      1 <0>         0.0000
     13 C13        11.0834   -3.4216   -0.9865 C.ar      1 <0>         0.0000
     14 C14         6.7078    1.3820   -0.5408 C.ar      1 <0>         0.0000
     15 C15         7.5669   -2.0762   -0.8899 C.2       1 <0>         0.0000
     16 N1          5.7143    3.9216   -0.0494 N.ar      1 <0>         0.0000
     17 N2          7.5380    2.4103   -0.3958 N.ar      1 <0>         0.0000
     18 N3          6.8299   -1.0294   -0.7174 N.2       1 <0>         0.0000
     19 N4          7.3839    0.2025   -0.8093 N.pl3     1 <0>         0.0000
     20 Cl1        13.4108   -2.7114   -2.2691 Cl        1 <0>         0.0000
     21 Cl2        11.9378   -4.7568   -0.2588 Cl        1 <0>         0.0000
     22 H1          2.2279    0.0236   -0.6976 H         1 <0>         0.0000
     23 H2          1.4684    2.3477   -0.2140 H         1 <0>         0.0000
     24 H3          4.6347   -0.4963   -0.8443 H         1 <0>         0.0000
     25 H4          9.1027   -0.5130   -2.6241 H         1 <0>         0.0000
     26 H5          3.1503    4.1678    0.0910 H         1 <0>         0.0000
     27 H6         11.4937   -0.8180   -3.1315 H         1 <0>         0.0000
     28 H7          9.2511   -3.9442   -0.0098 H         1 <0>         0.0000
     29 H8          7.7029    4.4418   -0.0464 H         1 <0>         0.0000
     30 H9          7.0369   -3.0138   -0.7304 H         1 <0>         0.0000
     31 H10         8.3972    0.3185   -0.7650 H         1 <0>         0.0000
@<TRIPOS>BOND
     1    1    2 ar
     2    1    3 ar
     3    1   22 1
     4    2    5 ar
     5    2   23 1
     6    3    9 ar
     7    3   24 1
     8    4    6 ar
     9    4   10 ar
    10    4   25 1
    11    5   11 ar
    12    5   26 1
    13    6   12 ar
    14    6   27 1
    15    7   10 ar
    16    7   13 ar
    17    7   28 1
    18    8   16 ar
    19    8   17 ar
    20    8   29 1
    21    9   11 ar
    22    9   14 ar
    23   10   15 1
    24   11   16 ar
    25   12   13 ar
    26   12   20 1
    27   13   21 1
    28   14   17 ar
    29   14   19 1
    30   15   18 2
    31   15   30 1
    32   18   19 1
    33   19   31 1
