@<TRIPOS>MOLECULE
*****
   24    25     0     0     0
SMALL
NO_CHARGES

@<TRIPOS>ATOM
      1 C1          2.0786   -0.3338   -0.0725 C.ar      1 <0>         0.0000
      2 C2          0.8295   -0.1450    0.5255 C.ar      1 <0>         0.0000
      3 C3          3.0377   -1.1076    0.5733 C.ar      1 <0>         0.0000
      4 C4          0.5632   -0.7252    1.7674 C.ar      1 <0>         0.0000
      5 C5          2.7962   -1.7271    1.8204 C.ar      1 <0>         0.0000
      6 C6          1.5326   -1.5004    2.4074 C.ar      1 <0>         0.0000
      7 C7          3.7239   -5.5124    5.3799 C.2       1 <0>         0.0000
      8 C8          4.8705   -4.8779    4.7767 C.2       1 <0>         0.0000
      9 C9          3.9020   -2.5253    2.3570 C.2       1 <0>         0.0000
     10 N1          4.1402   -6.1946    6.4203 N.2       1 <0>         0.0000
     11 N2          5.9474   -5.1868    5.4493 N.2       1 <0>         0.0000
     12 N3          3.7901   -3.4077    3.2869 N.2       1 <0>         0.0000
     13 N4          2.4282   -5.4992    4.9113 N.pl3     1 <0>         0.0000
     14 N5          4.9060   -4.1048    3.6280 N.pl3     1 <0>         0.0000
     15 O1          5.5197   -6.0182    6.4657 O.3       1 <0>         0.0000
     16 Br1         1.0483   -2.1613    4.1447 Br        1 <0>         0.0000
     17 H1          2.3036    0.1182   -1.0341 H         1 <0>         0.0000
     18 H2          0.0668    0.4563    0.0391 H         1 <0>         0.0000
     19 H3          4.0072   -1.2578    0.1040 H         1 <0>         0.0000
     20 H4         -0.3968   -0.5693    2.2483 H         1 <0>         0.0000
     21 H5          4.8724   -2.3524    1.8736 H         1 <0>         0.0000
     22 H6          2.1722   -4.6406    4.4328 H         1 <0>         0.0000
     23 H7          1.7430   -5.8166    5.5876 H         1 <0>         0.0000
     24 H8          5.8236   -3.7582    3.3459 H         1 <0>         0.0000
@<TRIPOS>BOND
     1    1    2 ar
     2    1    3 ar
     3    1   17 1
     4    2    4 ar
     5    2   18 1
     6    3    5 ar
     7    3   19 1
     8    4    6 ar
     9    4   20 1
    10    5    6 ar
    11    5    9 1
    12    6   16 1
    13    7    8 1
    14    7   10 2
    15    7   13 1
    16    8   11 2
    17    8   14 1
    18    9   12 2
    19    9   21 1
    20   10   15 1
    21   11   15 1
    22   12   14 1
    23   13   22 1
    24   13   23 1
    25   14   24 1
