@<TRIPOS>MOLECULE
*****
   27    28     0     0     0
SMALL
NO_CHARGES

@<TRIPOS>ATOM
      1 C1          0.4126    5.0245    3.7252 C.1       1 <0>         0.0000
      2 C2          0.5744   -2.0998    1.5942 C.ar      1 <0>         0.0000
      3 C3          0.3165   -0.8430    2.1459 C.ar      1 <0>         0.0000
      4 C4          1.2138   -3.0915    2.3422 C.ar      1 <0>         0.0000
      5 C5          1.3142   -1.5675    4.2353 C.ar      1 <0>         0.0000
      6 C6          0.9744    4.6473    2.4767 C.2       1 <0>         0.0000
      7 C7          0.6945   -0.5613    3.4728 C.ar      1 <0>         0.0000
      8 C8          1.5742   -2.8107    3.6631 C.ar      1 <0>         0.0000
      9 C9          1.1762    3.3913    1.9535 C.2       1 <0>         0.0000
     10 C10         1.8653    4.9023    0.5325 C.2       1 <0>         0.0000
     11 C11         0.4274    0.7385    4.1262 C.2       1 <0>         0.0000
     12 C12         2.4666    5.3561   -0.7482 C.3       1 <0>         0.0000
     13 N1         -0.0454    5.3680    4.7413 N.1       1 <0>         0.0000
     14 N2          1.4293    5.5878    1.5327 N.2       1 <0>         0.0000
     15 N3          0.5090    1.9293    3.6419 N.2       1 <0>         0.0000
     16 N4          0.9062    2.1046    2.3470 N.pl3     1 <0>         0.0000
     17 O1          1.7385    3.5234    0.7216 O.3       1 <0>         0.0000
     18 Cl1         2.3613   -4.0497    4.6219 Cl        1 <0>         0.0000
     19 H1          0.2678   -2.3154    0.5744 H         1 <0>         0.0000
     20 H2         -0.2255   -0.1038    1.5643 H         1 <0>         0.0000
     21 H3          1.4194   -4.0682    1.9162 H         1 <0>         0.0000
     22 H4          1.5972   -1.3750    5.2661 H         1 <0>         0.0000
     23 H5          0.1444    0.7169    5.1773 H         1 <0>         0.0000
     24 H6          3.4829    4.9656   -0.8652 H         1 <0>         0.0000
     25 H7          1.8740    5.0151   -1.6034 H         1 <0>         0.0000
     26 H8          2.5005    6.4459   -0.7487 H         1 <0>         0.0000
     27 H9          1.4065    1.3638    1.8545 H         1 <0>         0.0000
@<TRIPOS>BOND
     1    1    6 1
     2    1   13 3
     3    2    3 ar
     4    2    4 ar
     5    2   19 1
     6    3    7 ar
     7    3   20 1
     8    4    8 ar
     9    4   21 1
    10    5    7 ar
    11    5    8 ar
    12    5   22 1
    13    6    9 2
    14    6   14 1
    15    7   11 1
    16    8   18 1
    17    9   16 1
    18    9   17 1
    19   10   12 1
    20   10   14 2
    21   10   17 1
    22   11   15 2
    23   11   23 1
    24   12   24 1
    25   12   25 1
    26   12   26 1
    27   15   16 1
    28   16   27 1
