@<TRIPOS>MOLECULE
*****
   27    28     0     0     0
SMALL
NO_CHARGES

@<TRIPOS>ATOM
      1 C1         -1.9990    4.0861    3.0288 C.1       1 <0>         0.0000
      2 C2          2.9504   -0.9229    0.6384 C.ar      1 <0>         0.0000
      3 C3          2.1689    0.0047    1.3306 C.ar      1 <0>         0.0000
      4 C4          2.7976   -2.2938    0.8601 C.ar      1 <0>         0.0000
      5 C5          1.0800   -1.8119    2.5141 C.ar      1 <0>         0.0000
      6 C6         -1.6837    3.9711    1.6489 C.2       1 <0>         0.0000
      7 C7          1.2163   -0.4335    2.2705 C.ar      1 <0>         0.0000
      8 C8          1.8602   -2.7219    1.8043 C.ar      1 <0>         0.0000
      9 C9         -0.8764    3.0584    1.0106 C.2       1 <0>         0.0000
     10 C10        -1.7033    4.4599   -0.4486 C.2       1 <0>         0.0000
     11 C11         0.3763    0.4962    3.0567 C.2       1 <0>         0.0000
     12 C12        -1.8972    5.0030   -1.8179 C.3       1 <0>         0.0000
     13 N1         -2.2750    4.2101    4.1551 N.1       1 <0>         0.0000
     14 N2         -2.1933    4.8527    0.6765 N.2       1 <0>         0.0000
     15 N3         -0.1994    1.5879    2.6883 N.2       1 <0>         0.0000
     16 N4         -0.0764    2.0119    1.3958 N.pl3     1 <0>         0.0000
     17 O1         -0.8695    3.3454   -0.3193 O.3       1 <0>         0.0000
     18 Cl1         1.6679   -4.4379    2.1082 Cl        1 <0>         0.0000
     19 H1          3.6932   -0.5778   -0.0754 H         1 <0>         0.0000
     20 H2          2.3380    1.0664    1.1796 H         1 <0>         0.0000
     21 H3          3.4003   -3.0182    0.3219 H         1 <0>         0.0000
     22 H4          0.3632   -2.1684    3.2480 H         1 <0>         0.0000
     23 H5          0.1775    0.2299    4.0935 H         1 <0>         0.0000
     24 H6         -0.9428    5.3101   -2.2578 H         1 <0>         0.0000
     25 H7         -2.3470    4.2538   -2.4777 H         1 <0>         0.0000
     26 H8         -2.5581    5.8681   -1.7577 H         1 <0>         0.0000
     27 H9          0.2049    1.3605    0.6623 H         1 <0>         0.0000
@<TRIPOS>BOND
     1    1    6 1
     2    1   13 3
     3    2    3 ar
     4    2    4 ar
     5    2   19 1
     6    3    7 ar
     7    3   20 1
     8    4    8 ar
     9    4   21 1
    10    5    7 ar
    11    5    8 ar
    12    5   22 1
    13    6    9 2
    14    6   14 1
    15    7   11 1
    16    8   18 1
    17    9   16 1
    18    9   17 1
    19   10   12 1
    20   10   14 2
    21   10   17 1
    22   11   15 2
    23   11   23 1
    24   12   24 1
    25   12   25 1
    26   12   26 1
    27   15   16 1
    28   16   27 1
