@<TRIPOS>MOLECULE
*****
   29    31     0     0     0
SMALL
NO_CHARGES

@<TRIPOS>ATOM
      1 C1          4.4881   -4.4964   -4.8098 C.ar      1 <0>         0.0000
      2 C2          2.6754    1.1978   -5.2465 C.ar      1 <0>         0.0000
      3 C3          3.1031    0.3664   -4.1943 C.ar      1 <0>         0.0000
      4 C4          5.0954   -3.8188   -5.8726 C.ar      1 <0>         0.0000
      5 C5          3.2262   -5.0599   -4.9828 C.ar      1 <0>         0.0000
      6 C6          1.8339    0.7288   -6.2628 C.ar      1 <0>         0.0000
      7 C7          2.7015   -0.9759   -4.1153 C.ar      1 <0>         0.0000
      8 C8          4.4531   -3.7407   -7.1092 C.ar      1 <0>         0.0000
      9 C9          2.5340   -4.9482   -6.2020 C.ar      1 <0>         0.0000
     10 C10         1.4252   -0.6064   -6.1945 C.ar      1 <0>         0.0000
     11 C11         1.8611   -1.4088   -5.1265 C.ar      1 <0>         0.0000
     12 C12         3.1895   -4.3152   -7.2702 C.ar      1 <0>         0.0000
     13 C13         0.6248   -2.5568   -6.4909 C.2       1 <0>         0.0000
     14 C14         1.1633   -5.5123   -6.2766 C.2       1 <0>         0.0000
     15 N1          0.6424   -1.3845   -7.0578 N.2       1 <0>         0.0000
     16 N2          0.0361   -4.9764   -6.6017 N.2       1 <0>         0.0000
     17 N3         -0.0718   -3.6514   -6.9371 N.pl3     1 <0>         0.0000
     18 O1          1.3113   -2.6688   -5.3062 O.3       1 <0>         0.0000
     19 Br1         2.4105   -4.2709   -9.0212 Br        1 <0>         0.0000
     20 H1          4.9930   -4.5777   -3.8512 H         1 <0>         0.0000
     21 H2          3.0117    2.2308   -5.2710 H         1 <0>         0.0000
     22 H3          3.7581    0.7701   -3.4274 H         1 <0>         0.0000
     23 H4          6.0735   -3.3627   -5.7480 H         1 <0>         0.0000
     24 H5          2.7356   -5.5623   -4.1529 H         1 <0>         0.0000
     25 H6          1.5133    1.3696   -7.0786 H         1 <0>         0.0000
     26 H7          3.0275   -1.6330   -3.3155 H         1 <0>         0.0000
     27 H8          4.9296   -3.2454   -7.9487 H         1 <0>         0.0000
     28 H9          1.0619   -6.5601   -5.9946 H         1 <0>         0.0000
     29 H10        -0.9127   -3.4393   -7.4569 H         1 <0>         0.0000
@<TRIPOS>BOND
     1    1    4 ar
     2    1    5 ar
     3    1   20 1
     4    2    3 ar
     5    2    6 ar
     6    2   21 1
     7    3    7 ar
     8    3   22 1
     9    4    8 ar
    10    4   23 1
    11    5    9 ar
    12    5   24 1
    13    6   10 ar
    14    6   25 1
    15    7   11 ar
    16    7   26 1
    17    8   12 ar
    18    8   27 1
    19    9   12 ar
    20    9   14 1
    21   10   11 ar
    22   10   15 1
    23   11   18 1
    24   12   19 1
    25   13   15 2
    26   13   17 1
    27   13   18 1
    28   14   16 2
    29   14   28 1
    30   16   17 1
    31   17   29 1
