@<TRIPOS>MOLECULE
*****
   40    42     0     0     0
SMALL
NO_CHARGES

@<TRIPOS>ATOM
      1 C1          0.6177    3.3465    5.0190 C.1       1 <0>         0.0000
      2 C2          2.2711   -2.8196    5.5401 C.ar      1 <0>         0.0000
      3 C3          3.7153   -1.4053    4.2323 C.ar      1 <0>         0.0000
      4 C4          1.9124   -1.7315    6.3348 C.ar      1 <0>         0.0000
      5 C5          3.3745   -0.3117    5.0292 C.ar      1 <0>         0.0000
      6 C6          3.1623   -2.6727    4.4668 C.ar      1 <0>         0.0000
      7 C7          2.4585   -0.4743    6.0723 C.ar      1 <0>         0.0000
      8 C8          0.6372    0.9687    4.3158 C.2       1 <0>         0.0000
      9 C9          0.4176   -0.1578    2.4642 C.2       1 <0>         0.0000
     10 C10         1.0199    1.9945    5.3045 C.2       1 <0>         0.0000
     11 C11         0.5435   -0.5988    1.0441 C.3       1 <0>         0.0000
     12 C12         1.9999   -0.7759    0.5750 C.3       1 <0>         0.0000
     13 C13         2.7568    0.5394    0.3395 C.3       1 <0>         0.0000
     14 C14         3.0069    1.4049    1.5834 C.3       1 <0>         0.0000
     15 C15         1.7558    1.9885    2.2483 C.3       1 <0>         0.0000
     16 C16         3.4780   -3.8373    3.5591 C.3       1 <0>         0.0000
     17 N1          0.2988    4.4206    4.6933 N.1       1 <0>         0.0000
     18 N2         -0.0690   -0.1127    4.5892 N.2       1 <0>         0.0000
     19 N3         -0.1996   -0.8293    3.4206 N.2       1 <0>         0.0000
     20 N4          1.6063    1.8229    6.4602 N.2       1 <0>         0.0000
     21 N5          0.9630    0.9940    2.9746 N.pl3     1 <0>         0.0000
     22 N6          2.0759    0.6517    6.8800 N.pl3     1 <0>         0.0000
     23 H1          1.8225   -3.7908    5.7346 H         1 <0>         0.0000
     24 H2          4.4277   -1.2738    3.4207 H         1 <0>         0.0000
     25 H3          1.1740   -1.8376    7.1232 H         1 <0>         0.0000
     26 H4          3.8085    0.6670    4.8421 H         1 <0>         0.0000
     27 H5          0.0047   -1.5468    0.9732 H         1 <0>         0.0000
     28 H6          0.0303    0.1119    0.3819 H         1 <0>         0.0000
     29 H7          2.5375   -1.3935    1.3048 H         1 <0>         0.0000
     30 H8          1.9877   -1.3380   -0.3658 H         1 <0>         0.0000
     31 H9          3.7284    0.3058   -0.1119 H         1 <0>         0.0000
     32 H10         2.2118    1.1363   -0.4050 H         1 <0>         0.0000
     33 H11         3.5702    0.8362    2.3305 H         1 <0>         0.0000
     34 H12         3.6359    2.2545    1.2926 H         1 <0>         0.0000
     35 H13         2.0434    2.7579    2.9643 H         1 <0>         0.0000
     36 H14         1.1132    2.4731    1.5045 H         1 <0>         0.0000
     37 H15         2.6862   -3.9652    2.8109 H         1 <0>         0.0000
     38 H16         4.4197   -3.6863    3.0235 H         1 <0>         0.0000
     39 H17         3.5513   -4.7746    4.1187 H         1 <0>         0.0000
     40 H18         2.5189    0.7387    7.7866 H         1 <0>         0.0000
@<TRIPOS>BOND
     1    1   10 1
     2    1   17 3
     3    2    4 ar
     4    2    6 ar
     5    2   23 1
     6    3    5 ar
     7    3    6 ar
     8    3   24 1
     9    4    7 ar
    10    4   25 1
    11    5    7 ar
    12    5   26 1
    13    6   16 1
    14    7   22 1
    15    8   10 1
    16    8   18 2
    17    8   21 1
    18    9   11 1
    19    9   19 2
    20    9   21 1
    21   10   20 2
    22   11   12 1
    23   11   27 1
    24   11   28 1
    25   12   13 1
    26   12   29 1
    27   12   30 1
    28   13   14 1
    29   13   31 1
    30   13   32 1
    31   14   15 1
    32   14   33 1
    33   14   34 1
    34   15   21 1
    35   15   35 1
    36   15   36 1
    37   16   37 1
    38   16   38 1
    39   16   39 1
    40   18   19 1
    41   20   22 1
    42   22   40 1
