@<TRIPOS>MOLECULE
*****
   23    24     0     0     0
SMALL
NO_CHARGES

@<TRIPOS>ATOM
      1 C1         -3.8632   -5.3272   -3.9490 C.2       1 <0>         0.0000
      2 C2         -3.2763   -5.2029   -2.6616 C.2       1 <0>         0.0000
      3 C3         -4.4417   -4.1507   -4.3682 C.2       1 <0>         0.0000
      4 C4         -7.5211   -1.2859   -0.3311 C.2       1 <0>         0.0000
      5 C5         -3.4194   -3.9404   -2.1083 C.2       1 <0>         0.0000
      6 C6         -7.0869   -2.5641   -0.1283 C.2       1 <0>         0.0000
      7 C7         -5.1062   -1.6163   -0.4418 C.2       1 <0>         0.0000
      8 C8         -2.8247   -3.5577   -0.8418 C.2       1 <0>         0.0000
      9 C9         -7.9510   -3.7569    0.1534 C.3       1 <0>         0.0000
     10 N1         -5.7107   -2.7396   -0.1944 N.2       1 <0>         0.0000
     11 N2         -2.8651   -2.4696   -0.1496 N.2       1 <0>         0.0000
     12 N3         -3.7329   -1.4635   -0.6528 N.pl3     1 <0>         0.0000
     13 S1         -4.2889   -2.8891   -3.2010 S.3       1 <0>         0.0000
     14 S2         -6.1677   -0.2189   -0.6377 S.3       1 <0>         0.0000
     15 H1         -3.8583   -6.2376   -4.5389 H         1 <0>         0.0000
     16 H2         -2.7603   -6.0076   -2.1466 H         1 <0>         0.0000
     17 H3         -4.9490   -3.9578   -5.3057 H         1 <0>         0.0000
     18 H4         -8.5332   -0.9039   -0.3195 H         1 <0>         0.0000
     19 H5         -2.1759   -4.3186   -0.4061 H         1 <0>         0.0000
     20 H6         -7.8061   -4.5211   -0.6176 H         1 <0>         0.0000
     21 H7         -7.6799   -4.2068    1.1144 H         1 <0>         0.0000
     22 H8         -9.0084   -3.4820    0.1809 H         1 <0>         0.0000
     23 H9         -3.3978   -0.5658   -0.3165 H         1 <0>         0.0000
@<TRIPOS>BOND
     1    1    2 1
     2    1    3 2
     3    1   15 1
     4    2    5 2
     5    2   16 1
     6    3   13 1
     7    3   17 1
     8    4    6 2
     9    4   14 1
    10    4   18 1
    11    5    8 1
    12    5   13 1
    13    6    9 1
    14    6   10 1
    15    7   10 2
    16    7   12 1
    17    7   14 1
    18    8   11 2
    19    8   19 1
    20    9   20 1
    21    9   21 1
    22    9   22 1
    23   11   12 1
    24   12   23 1
