@<TRIPOS>MOLECULE
*****
   18    17     0     0     0
SMALL
NO_CHARGES

@<TRIPOS>ATOM
      1 C1         -0.6247    1.2227    2.3560 C.1       1 <0>         0.0000
      2 C2          2.4252   -2.0889    2.6429 C.2       1 <0>         0.0000
      3 C3          0.7269    0.7440    0.3477 C.3       1 <0>         0.0000
      4 C4          1.7573    1.8667    2.3552 C.3       1 <0>         0.0000
      5 C5          0.7154    0.8635    1.8689 C.3       1 <0>         0.0000
      6 N1         -1.6821    1.5085    2.7395 N.1       1 <0>         0.0000
      7 N2          2.1419   -0.8552    2.0980 N.2       1 <0>         0.0000
      8 N3          1.0170   -0.4492    2.4485 N.2       1 <0>         0.0000
      9 N4          3.6668   -2.5554    2.2664 N.am      1 <0>         0.0000
     10 O1          1.6909   -2.7419    3.3851 O.2       1 <0>         0.0000
     11 H1          1.7239    0.4763   -0.0208 H         1 <0>         0.0000
     12 H2          0.0340   -0.0330    0.0029 H         1 <0>         0.0000
     13 H3          0.4311    1.6854   -0.1294 H         1 <0>         0.0000
     14 H4          2.7585    1.6038    1.9949 H         1 <0>         0.0000
     15 H5          1.8038    1.8952    3.4506 H         1 <0>         0.0000
     16 H6          1.5281    2.8808    2.0080 H         1 <0>         0.0000
     17 H7          3.9833   -3.4566    2.6081 H         1 <0>         0.0000
     18 H8          4.2705   -2.0163    1.6548 H         1 <0>         0.0000
@<TRIPOS>BOND
     1    1    5 1
     2    1    6 3
     3    2    7 1
     4    2    9 am
     5    2   10 2
     6    3    5 1
     7    3   11 1
     8    3   12 1
     9    3   13 1
    10    4    5 1
    11    4   14 1
    12    4   15 1
    13    4   16 1
    14    5    8 1
    15    7    8 2
    16    9   17 1
    17    9   18 1
