@<TRIPOS>MOLECULE
*****
   39    42     0     0     0
SMALL
NO_CHARGES

@<TRIPOS>ATOM
      1 C1         -1.0929    2.1983   -1.3866 C.ar      1 <0>         0.0000
      2 C2         -1.0910    2.7547   -0.0962 C.ar      1 <0>         0.0000
      3 C3         -0.6206    0.9006   -1.6084 C.ar      1 <0>         0.0000
      4 C4          2.3350   -0.4205   -1.9162 C.ar      1 <0>         0.0000
      5 C5          2.4451   -2.6701   -1.0421 C.ar      1 <0>         0.0000
      6 C6         -1.6875   -2.6181   -0.0343 C.ar      1 <0>         0.0000
      7 C7         -0.6587   -2.7478   -2.2164 C.ar      1 <0>         0.0000
      8 C8         -0.6181    2.0227    0.9930 C.ar      1 <0>         0.0000
      9 C9          3.5643   -0.6061   -2.5487 C.ar      1 <0>         0.0000
     10 C10         3.6744   -2.8558   -1.6746 C.ar      1 <0>         0.0000
     11 C11        -2.6758   -3.5118   -0.4471 C.ar      1 <0>         0.0000
     12 C12        -1.6469   -3.6414   -2.6293 C.ar      1 <0>         0.0000
     13 C13         1.7754   -1.4525   -1.1629 C.ar      1 <0>         0.0000
     14 C14        -0.6790   -2.2361   -0.9189 C.ar      1 <0>         0.0000
     15 C15        -0.1456    0.1750   -0.5250 C.ar      1 <0>         0.0000
     16 C16        -0.1571    0.7436    0.7475 C.ar      1 <0>         0.0000
     17 C17         4.2340   -1.8238   -2.4279 C.ar      1 <0>         0.0000
     18 C18        -2.6555   -4.0234   -1.7446 C.ar      1 <0>         0.0000
     19 C19         0.7050   -1.3645    1.0834 C.2       1 <0>         0.0000
     20 C20         0.4144   -1.2465   -0.4619 C.3       1 <0>         0.0000
     21 N1          0.3420   -0.1545    1.6789 N.am      1 <0>         0.0000
     22 O1          1.1677   -2.3410    1.6572 O.2       1 <0>         0.0000
     23 O2          5.4341   -2.0047   -3.0440 O.3       1 <0>         0.0000
     24 O3         -3.6204   -4.8944   -2.1481 O.3       1 <0>         0.0000
     25 H1         -1.4673    2.7845   -2.2218 H         1 <0>         0.0000
     26 H2         -1.4637    3.7646    0.0527 H         1 <0>         0.0000
     27 H3         -0.6274    0.4785   -2.6077 H         1 <0>         0.0000
     28 H4          1.8203    0.5317   -2.0160 H         1 <0>         0.0000
     29 H5          2.0165   -3.4795   -0.4573 H         1 <0>         0.0000
     30 H6         -1.7112   -2.2246    0.9787 H         1 <0>         0.0000
     31 H7          0.1232   -2.4557   -2.9122 H         1 <0>         0.0000
     32 H8         -0.6191    2.4479    1.9903 H         1 <0>         0.0000
     33 H9          3.9951    0.2016   -3.1337 H         1 <0>         0.0000
     34 H10         4.1914   -3.8066   -1.5765 H         1 <0>         0.0000
     35 H11        -3.4588   -3.8051    0.2465 H         1 <0>         0.0000
     36 H12        -1.6259   -4.0364   -3.6415 H         1 <0>         0.0000
     37 H13         0.4322    0.0428    2.6686 H         1 <0>         0.0000
     38 H14         5.6891   -1.2019   -3.5261 H         1 <0>         0.0000
     39 H15        -4.2463   -5.0613   -1.4255 H         1 <0>         0.0000
@<TRIPOS>BOND
     1    1    2 ar
     2    1    3 ar
     3    1   25 1
     4    2    8 ar
     5    2   26 1
     6    3   15 ar
     7    3   27 1
     8    4    9 ar
     9    4   13 ar
    10    4   28 1
    11    5   10 ar
    12    5   13 ar
    13    5   29 1
    14    6   11 ar
    15    6   14 ar
    16    6   30 1
    17    7   12 ar
    18    7   14 ar
    19    7   31 1
    20    8   16 ar
    21    8   32 1
    22    9   17 ar
    23    9   33 1
    24   10   17 ar
    25   10   34 1
    26   11   18 ar
    27   11   35 1
    28   12   18 ar
    29   12   36 1
    30   13   20 1
    31   14   20 1
    32   15   16 ar
    33   15   20 1
    34   16   21 1
    35   17   23 1
    36   18   24 1
    37   19   20 1
    38   19   21 am
    39   19   22 2
    40   21   37 1
    41   23   38 1
    42   24   39 1
