@<TRIPOS>MOLECULE
*****
   34    36     0     0     0
SMALL
NO_CHARGES

@<TRIPOS>ATOM
      1 C1          0.5043    1.6015    2.0759 C.2       1 <0>         0.0000
      2 C2          0.0301    2.2548    3.1937 C.2       1 <0>         0.0000
      3 C3          1.9853   -1.6231    4.0119 C.ar      1 <0>         0.0000
      4 C4          1.0959    0.3877    2.5101 C.ar      1 <0>         0.0000
      5 C5          0.9597    0.3423    3.8922 C.ar      1 <0>         0.0000
      6 C6          1.7377   -0.6944    1.9097 C.ar      1 <0>         0.0000
      7 C7          3.0973   -1.4436    0.0030 C.3       1 <0>         0.0000
      8 C8          0.7537   -0.7086   -0.3650 C.3       1 <0>         0.0000
      9 C9          3.4272   -0.9673   -1.4135 C.3       1 <0>         0.0000
     10 C10         1.1590   -0.2571   -1.7703 C.3       1 <0>         0.0000
     11 C11        -0.0296    1.8265    5.6525 C.3       1 <0>         0.0000
     12 C12         2.5985   -0.6737   -3.6556 C.3       1 <0>         0.0000
     13 N1          1.3834   -0.6379    4.7090 N.ar      1 <0>         0.0000
     14 N2          2.1876   -1.7133    2.6781 N.ar      1 <0>         0.0000
     15 N3          0.3112    1.4810    4.2904 N.pl3     1 <0>         0.0000
     16 N4          1.9200   -0.7367    0.5229 N.pl3     1 <0>         0.0000
     17 N5          2.2568   -1.0796   -2.2928 N.3       1 <0>         0.0000
     18 H1          0.4295    1.9661    1.0607 H         1 <0>         0.0000
     19 H2         -0.4819    3.2020    3.2975 H         1 <0>         0.0000
     20 H3          2.3571   -2.4555    4.5992 H         1 <0>         0.0000
     21 H4          2.9085   -2.5254   -0.0014 H         1 <0>         0.0000
     22 H5          3.9645   -1.2601    0.6495 H         1 <0>         0.0000
     23 H6         -0.0026   -0.0159    0.0249 H         1 <0>         0.0000
     24 H7          0.2976   -1.7065   -0.4115 H         1 <0>         0.0000
     25 H8          3.7988    0.0658   -1.3791 H         1 <0>         0.0000
     26 H9          4.2426   -1.5909   -1.8000 H         1 <0>         0.0000
     27 H10         0.2821   -0.3508   -2.4228 H         1 <0>         0.0000
     28 H11         1.4355    0.8059   -1.7515 H         1 <0>         0.0000
     29 H12        -1.0238    1.4241    5.8639 H         1 <0>         0.0000
     30 H13         0.7099    1.3958    6.3333 H         1 <0>         0.0000
     31 H14        -0.0254    2.9147    5.7612 H         1 <0>         0.0000
     32 H15         3.4162   -1.2904   -4.0375 H         1 <0>         0.0000
     33 H16         2.9111    0.3739   -3.6708 H         1 <0>         0.0000
     34 H17         1.7328   -0.7906   -4.3131 H         1 <0>         0.0000
@<TRIPOS>BOND
     1    1    2 2
     2    1    4 1
     3    1   18 1
     4    2   15 1
     5    2   19 1
     6    3   13 ar
     7    3   14 ar
     8    3   20 1
     9    4    5 ar
    10    4    6 ar
    11    5   13 ar
    12    5   15 1
    13    6   14 ar
    14    6   16 1
    15    7    9 1
    16    7   16 1
    17    7   21 1
    18    7   22 1
    19    8   10 1
    20    8   16 1
    21    8   23 1
    22    8   24 1
    23    9   17 1
    24    9   25 1
    25    9   26 1
    26   10   17 1
    27   10   27 1
    28   10   28 1
    29   11   15 1
    30   11   29 1
    31   11   30 1
    32   11   31 1
    33   12   17 1
    34   12   32 1
    35   12   33 1
    36   12   34 1
