@<TRIPOS>MOLECULE
*****
   67    70     0     0     0
SMALL
NO_CHARGES

@<TRIPOS>ATOM
      1 C1          2.5002    0.5990    0.4541 C.ar      1 <0>         0.0000
      2 C2          2.7849    2.9665   -0.1402 C.ar      1 <0>         0.0000
      3 C3          0.5883    1.9152   -0.0470 C.ar      1 <0>         0.0000
      4 C4          1.1200    0.6737    0.3071 C.ar      1 <0>         0.0000
      5 C5         -0.7732    2.2646   -0.2502 C.2       1 <0>         0.0000
      6 C6          3.3310    1.7361    0.2423 C.ar      1 <0>         0.0000
      7 C7          1.3924    3.0494   -0.2856 C.ar      1 <0>         0.0000
      8 C8         -0.8002    3.5943   -0.6187 C.2       1 <0>         0.0000
      9 C9          0.5614   -4.7866    0.3616 C.2       1 <0>         0.0000
     10 C10        -1.8168    1.2434    0.0736 C.3       1 <0>         0.0000
     11 C11         0.7327   -1.7690   -0.2194 C.3       1 <0>         0.0000
     12 C12        -1.5969   -2.6525    0.1757 C.3       1 <0>         0.0000
     13 C13         0.1446   -0.4915    0.4311 C.3       1 <0>         0.0000
     14 C14        -0.3513   -2.7512   -0.7052 C.3       1 <0>         0.0000
     15 C15        -1.2158   -0.1462   -0.2318 C.3       1 <0>         0.0000
     16 C16         4.8233    1.5952    0.4417 C.3       1 <0>         0.0000
     17 C17        -5.1282   -1.7326    2.6310 C.3       1 <0>         0.0000
     18 C18         3.0912   -6.3052    1.8390 C.3       1 <0>         0.0000
     19 C19         0.4517   -7.3593   -1.7252 C.3       1 <0>         0.0000
     20 C20        -2.4255    5.5285    0.5269 C.3       1 <0>         0.0000
     21 C21        -4.1641   -2.1289    1.5047 C.3       1 <0>         0.0000
     22 C22         1.6825   -6.6856    1.3801 C.3       1 <0>         0.0000
     23 C23         1.5862   -6.5216   -1.1249 C.3       1 <0>         0.0000
     24 C24        -3.1183   -1.0342    1.2956 C.3       1 <0>         0.0000
     25 N1          0.5222    4.0677   -0.6347 N.pl3     1 <0>         0.0000
     26 N2          0.0837   -4.1430   -0.7871 N.am      1 <0>         0.0000
     27 N3          1.2591   -5.9432    0.1811 N.am      1 <0>         0.0000
     28 N4         -2.2387   -1.2743    0.0818 N.4       1 <0>         0.0000
     29 O1          0.3153   -4.3118    1.4824 O.2       1 <0>         0.0000
     30 S1         -2.1651    4.6147   -1.0499 S.3       1 <0>         0.0000
     31 H1          2.9779   -0.3392    0.7272 H         1 <0>         0.0000
     32 H2          3.4314    3.8222   -0.3160 H         1 <0>         0.0000
     33 H3         -2.0655    1.3219    1.1372 H         1 <0>         0.0000
     34 H4         -2.7385    1.4024   -0.4979 H         1 <0>         0.0000
     35 H5          1.3609   -1.4839   -1.0678 H         1 <0>         0.0000
     36 H6          1.3651   -2.2758    0.5094 H         1 <0>         0.0000
     37 H7         -2.3441   -3.3859   -0.1260 H         1 <0>         0.0000
     38 H8         -1.3281   -2.8276    1.2144 H         1 <0>         0.0000
     39 H9         -0.0386   -0.6880    1.4962 H         1 <0>         0.0000
     40 H10        -0.6444   -2.4887   -1.7285 H         1 <0>         0.0000
     41 H11        -1.0805   -0.2042   -1.3158 H         1 <0>         0.0000
     42 H12         5.2182    0.7330   -0.1060 H         1 <0>         0.0000
     43 H13         5.3602    2.4838    0.1008 H         1 <0>         0.0000
     44 H14         5.0645    1.4459    1.5004 H         1 <0>         0.0000
     45 H15        -4.5951   -1.5866    3.5759 H         1 <0>         0.0000
     46 H16        -5.6636   -0.8073    2.3952 H         1 <0>         0.0000
     47 H17        -5.8709   -2.5186    2.7871 H         1 <0>         0.0000
     48 H18         3.8321   -6.4845    1.0525 H         1 <0>         0.0000
     49 H19         3.1265   -5.2480    2.1159 H         1 <0>         0.0000
     50 H20         3.3779   -6.8993    2.7127 H         1 <0>         0.0000
     51 H21         0.1842   -8.1802   -1.0532 H         1 <0>         0.0000
     52 H22        -0.4461   -6.7562   -1.8911 H         1 <0>         0.0000
     53 H23         0.7605   -7.7903   -2.6829 H         1 <0>         0.0000
     54 H24        -3.2725    6.1975    0.3574 H         1 <0>         0.0000
     55 H25        -1.5466    6.1218    0.7844 H         1 <0>         0.0000
     56 H26        -2.6636    4.8376    1.3378 H         1 <0>         0.0000
     57 H27        -4.7288   -2.2801    0.5749 H         1 <0>         0.0000
     58 H28        -3.6879   -3.0804    1.7531 H         1 <0>         0.0000
     59 H29         0.9605   -6.4851    2.1717 H         1 <0>         0.0000
     60 H30         1.6268   -7.7524    1.1412 H         1 <0>         0.0000
     61 H31         1.9037   -5.7340   -1.8187 H         1 <0>         0.0000
     62 H32         2.4727   -7.1453   -0.9844 H         1 <0>         0.0000
     63 H33        -3.6193   -0.0799    1.1433 H         1 <0>         0.0000
     64 H34        -2.4492   -0.9456    2.1542 H         1 <0>         0.0000
     65 H35         0.7787    4.9878   -0.9681 H         1 <0>         0.0000
     66 H36         0.4667   -4.4175   -1.6809 H         1 <0>         0.0000
     67 H37        -2.8726   -1.2905   -0.7220 H         1 <0>         0.0000
@<TRIPOS>BOND
     1    1    4 ar
     2    1    6 ar
     3    1   31 1
     4    2    6 ar
     5    2    7 ar
     6    2   32 1
     7    3    4 ar
     8    3    5 1
     9    3    7 ar
    10    4   13 1
    11    5    8 2
    12    5   10 1
    13    6   16 1
    14    7   25 1
    15    8   25 1
    16    8   30 1
    17    9   26 am
    18    9   27 am
    19    9   29 2
    20   10   15 1
    21   10   33 1
    22   10   34 1
    23   11   13 1
    24   11   14 1
    25   11   35 1
    26   11   36 1
    27   12   14 1
    28   12   28 1
    29   12   37 1
    30   12   38 1
    31   13   15 1
    32   13   39 1
    33   14   26 1
    34   14   40 1
    35   15   28 1
    36   15   41 1
    37   16   42 1
    38   16   43 1
    39   16   44 1
    40   17   21 1
    41   17   45 1
    42   17   46 1
    43   17   47 1
    44   18   22 1
    45   18   48 1
    46   18   49 1
    47   18   50 1
    48   19   23 1
    49   19   51 1
    50   19   52 1
    51   19   53 1
    52   20   30 1
    53   20   54 1
    54   20   55 1
    55   20   56 1
    56   21   24 1
    57   21   57 1
    58   21   58 1
    59   22   27 1
    60   22   59 1
    61   22   60 1
    62   23   27 1
    63   23   61 1
    64   23   62 1
    65   24   28 1
    66   24   63 1
    67   24   64 1
    68   25   65 1
    69   26   66 1
    70   28   67 1
