@<TRIPOS>MOLECULE
*****
   67    71     0     0     0
SMALL
NO_CHARGES

@<TRIPOS>ATOM
      1 C1          2.0488    1.4279    1.4408 C.1       1 <0>         0.0000
      2 C2          2.6511    2.4757    1.2924 C.1       1 <0>         0.0000
      3 C3         -3.1946   -6.6240    4.0287 C.ar      1 <0>         0.0000
      4 C4         -2.7201   -7.8409    3.5293 C.ar      1 <0>         0.0000
      5 C5          0.2798   -0.1454    0.7392 C.ar      1 <0>         0.0000
      6 C6         -2.4433   -5.4621    3.8307 C.ar      1 <0>         0.0000
      7 C7         -1.5179   -7.8809    2.8155 C.ar      1 <0>         0.0000
      8 C8         -0.4145   -1.3331    0.8877 C.ar      1 <0>         0.0000
      9 C9          1.6877   -0.6881    2.6402 C.ar      1 <0>         0.0000
     10 C10         1.3464    0.2001    1.6135 C.ar      1 <0>         0.0000
     11 C11         0.9894   -1.8943    2.7897 C.ar      1 <0>         0.0000
     12 C12        -1.2255   -5.5087    3.1407 C.ar      1 <0>         0.0000
     13 C13        -0.7584   -6.7218    2.5979 C.ar      1 <0>         0.0000
     14 C14        -0.0708   -2.2324    1.9166 C.ar      1 <0>         0.0000
     15 C15         1.3469   -2.8143    3.8666 C.2       1 <0>         0.0000
     16 C16        -0.4453   -4.2420    2.9732 C.2       1 <0>         0.0000
     17 C17        -0.2745   -3.9918    8.4831 C.3       1 <0>         0.0000
     18 C18         3.6719    4.1886   -0.3190 C.3       1 <0>         0.0000
     19 C19         2.6259    4.9087    0.4828 C.3       1 <0>         0.0000
     20 C20         0.6362   -4.0017    7.2520 C.3       1 <0>         0.0000
     21 C21        -0.5600   -5.4049    8.9828 C.3       1 <0>         0.0000
     22 C22        -0.2346   -6.3025    6.6766 C.3       1 <0>         0.0000
     23 C23         3.3547    3.7152    1.0999 C.3       1 <0>         0.0000
     24 C24         0.0451   -4.8930    6.1528 C.3       1 <0>         0.0000
     25 C25         0.4966   -6.7613    1.7585 C.3       1 <0>         0.0000
     26 C26        -0.5004   -8.5898    8.6271 C.3       1 <0>         0.0000
     27 C27        -2.6829   -8.1800    7.3821 C.3       1 <0>         0.0000
     28 C28         0.9432   -5.0002    4.9003 C.3       1 <0>         0.0000
     29 C29        -1.6536   -7.6258    8.3642 C.3       1 <0>         0.0000
     30 N1         -0.7888   -3.4135    2.0440 N.2       1 <0>         0.0000
     31 N2          0.6043   -4.0173    3.8694 N.am      1 <0>         0.0000
     32 N3         -1.1566   -6.2527    7.8753 N.4       1 <0>         0.0000
     33 O1          2.2028   -2.6132    4.7291 O.2       1 <0>         0.0000
     34 H1         -4.1541   -6.5748    4.5370 H         1 <0>         0.0000
     35 H2         -3.2993   -8.7509    3.6637 H         1 <0>         0.0000
     36 H3          0.0143    0.5445   -0.0562 H         1 <0>         0.0000
     37 H4         -2.8158   -4.5026    4.1816 H         1 <0>         0.0000
     38 H5         -1.1747   -8.8240    2.3974 H         1 <0>         0.0000
     39 H6         -1.2302   -1.5975    0.2218 H         1 <0>         0.0000
     40 H7          2.4950   -0.4571    3.3268 H         1 <0>         0.0000
     41 H8          0.1842   -3.4337    9.3046 H         1 <0>         0.0000
     42 H9         -1.2217   -3.4852    8.2556 H         1 <0>         0.0000
     43 H10         3.3447    3.5498   -1.1325 H         1 <0>         0.0000
     44 H11         4.6346    4.6675   -0.4681 H         1 <0>         0.0000
     45 H12         2.8637    5.8872    0.8884 H         1 <0>         0.0000
     46 H13         1.5847    4.7618    0.2161 H         1 <0>         0.0000
     47 H14         0.7856   -2.9900    6.8702 H         1 <0>         0.0000
     48 H15         1.6307   -4.3746    7.5267 H         1 <0>         0.0000
     49 H16         0.3548   -5.9069    9.3027 H         1 <0>         0.0000
     50 H17        -1.2726   -5.4134    9.8103 H         1 <0>         0.0000
     51 H18        -0.7219   -6.9112    5.9137 H         1 <0>         0.0000
     52 H19         0.6829   -6.7963    7.0027 H         1 <0>         0.0000
     53 H20         4.0972    3.9454    1.8594 H         1 <0>         0.0000
     54 H21        -0.9147   -4.4698    5.8346 H         1 <0>         0.0000
     55 H22         0.3580   -6.1762    0.8434 H         1 <0>         0.0000
     56 H23         1.3604   -6.3310    2.2769 H         1 <0>         0.0000
     57 H24         0.7512   -7.7843    1.4730 H         1 <0>         0.0000
     58 H25        -0.0230   -8.9180    7.7006 H         1 <0>         0.0000
     59 H26         0.2591   -8.1728    9.2930 H         1 <0>         0.0000
     60 H27        -0.9064   -9.4782    9.1173 H         1 <0>         0.0000
     61 H28        -2.2400   -8.4515    6.4215 H         1 <0>         0.0000
     62 H29        -3.4973   -7.4709    7.1999 H         1 <0>         0.0000
     63 H30        -3.1247   -9.0819    7.8134 H         1 <0>         0.0000
     64 H31         0.8673   -5.9959    4.4646 H         1 <0>         0.0000
     65 H32         1.9844   -4.8271    5.1731 H         1 <0>         0.0000
     66 H33        -2.1533   -7.3934    9.3089 H         1 <0>         0.0000
     67 H34        -1.9974   -5.7582    7.5568 H         1 <0>         0.0000
@<TRIPOS>BOND
     1    1    2 3
     2    1   10 1
     3    2   23 1
     4    3    4 ar
     5    3    6 ar
     6    3   34 1
     7    4    7 ar
     8    4   35 1
     9    5    8 ar
    10    5   10 ar
    11    5   36 1
    12    6   12 ar
    13    6   37 1
    14    7   13 ar
    15    7   38 1
    16    8   14 ar
    17    8   39 1
    18    9   10 ar
    19    9   11 ar
    20    9   40 1
    21   11   14 ar
    22   11   15 1
    23   12   13 ar
    24   12   16 1
    25   13   25 1
    26   14   30 1
    27   15   31 am
    28   15   33 2
    29   16   30 2
    30   16   31 1
    31   17   20 1
    32   17   21 1
    33   17   41 1
    34   17   42 1
    35   18   19 1
    36   18   23 1
    37   18   43 1
    38   18   44 1
    39   19   23 1
    40   19   45 1
    41   19   46 1
    42   20   24 1
    43   20   47 1
    44   20   48 1
    45   21   32 1
    46   21   49 1
    47   21   50 1
    48   22   24 1
    49   22   32 1
    50   22   51 1
    51   22   52 1
    52   23   53 1
    53   24   28 1
    54   24   54 1
    55   25   55 1
    56   25   56 1
    57   25   57 1
    58   26   29 1
    59   26   58 1
    60   26   59 1
    61   26   60 1
    62   27   29 1
    63   27   61 1
    64   27   62 1
    65   27   63 1
    66   28   31 1
    67   28   64 1
    68   28   65 1
    69   29   32 1
    70   29   66 1
    71   32   67 1
