@<TRIPOS>MOLECULE
*****
   53    56     0     0     0
SMALL
NO_CHARGES

@<TRIPOS>ATOM
      1 C1         -2.4335    2.1271   -0.0047 C.ar      1 <0>         0.0000
      2 C2         -3.6090    1.4404    0.3003 C.ar      1 <0>         0.0000
      3 C3          4.4348   -3.1128   -3.6209 C.ar      1 <0>         0.0000
      4 C4          3.7982   -5.0215   -2.2479 C.ar      1 <0>         0.0000
      5 C5          5.7499   -3.5719   -3.6546 C.ar      1 <0>         0.0000
      6 C6          5.1164   -5.4846   -2.2793 C.ar      1 <0>         0.0000
      7 C7         -2.4053   -0.6972    0.4461 C.ar      1 <0>         0.0000
      8 C8         -1.2123   -0.0147    0.1450 C.ar      1 <0>         0.0000
      9 C9          0.1569   -0.4282   -0.0038 C.2       1 <0>         0.0000
     10 C10        -1.2460    1.3926   -0.0838 C.ar      1 <0>         0.0000
     11 C11        -3.5668    0.0538    0.5156 C.ar      1 <0>         0.0000
     12 C12         3.4736   -3.8399   -2.9133 C.ar      1 <0>         0.0000
     13 C13         6.0778   -4.7541   -2.9801 C.ar      1 <0>         0.0000
     14 C14         0.8890    0.7018   -0.3061 C.2       1 <0>         0.0000
     15 C15         1.1487    5.3041    0.6641 C.2       1 <0>         0.0000
     16 C16         0.7662   -1.7981    0.1022 C.3       1 <0>         0.0000
     17 C17         2.3621    0.7354   -0.5778 C.3       1 <0>         0.0000
     18 C18         2.9930   -0.6171   -0.1917 C.3       1 <0>         0.0000
     19 C19         2.1259   -1.8120   -0.6207 C.3       1 <0>         0.0000
     20 C20         1.6852    7.3003    1.8133 C.3       1 <0>         0.0000
     21 C21         0.6823    3.8732    0.8229 C.3       1 <0>         0.0000
     22 C22         0.4662    3.1885   -0.5322 C.3       1 <0>         0.0000
     23 N1          0.0477    1.8070   -0.3806 N.pl3     1 <0>         0.0000
     24 N2          1.9800   -1.7783   -2.0961 N.pl3     1 <0>         0.0000
     25 O1          1.4218    5.8348   -0.3968 O.2       1 <0>         0.0000
     26 O2          1.3491   -2.8985   -4.2426 O.2       1 <0>         0.0000
     27 O3          1.0106   -4.2143   -2.0845 O.2       1 <0>         0.0000
     28 O4          1.2345    5.9278    1.8596 O.3       1 <0>         0.0000
     29 F1         -4.7395   -0.5775    0.8106 F         1 <0>         0.0000
     30 S1          1.7784   -3.2531   -2.8876 S.o2      1 <0>         0.0000
     31 Cl1         7.7317   -5.3286   -3.0187 Cl        1 <0>         0.0000
     32 H1         -2.4579    3.1994   -0.1774 H         1 <0>         0.0000
     33 H2         -4.5607    1.9569    0.3731 H         1 <0>         0.0000
     34 H3          4.1556   -2.2005   -4.1384 H         1 <0>         0.0000
     35 H4          3.0262   -5.5694   -1.7172 H         1 <0>         0.0000
     36 H5          6.5138   -3.0251   -4.1978 H         1 <0>         0.0000
     37 H6          5.3925   -6.4015   -1.7688 H         1 <0>         0.0000
     38 H7         -2.4346   -1.7685    0.6206 H         1 <0>         0.0000
     39 H8          0.9195   -2.0783    1.1531 H         1 <0>         0.0000
     40 H9          0.1178   -2.5639   -0.3335 H         1 <0>         0.0000
     41 H10         2.5488    0.9447   -1.6399 H         1 <0>         0.0000
     42 H11         2.8555    1.5401   -0.0195 H         1 <0>         0.0000
     43 H12         3.9852   -0.7054   -0.6432 H         1 <0>         0.0000
     44 H13         3.1151   -0.6643    0.8964 H         1 <0>         0.0000
     45 H14         2.6593   -2.7341   -0.3745 H         1 <0>         0.0000
     46 H15         1.6935    7.6370    2.8494 H         1 <0>         0.0000
     47 H16         0.9992    7.9049    1.2158 H         1 <0>         0.0000
     48 H17         2.6863    7.3570    1.3800 H         1 <0>         0.0000
     49 H18        -0.2353    3.8602    1.4192 H         1 <0>         0.0000
     50 H19         1.4300    3.3302    1.4119 H         1 <0>         0.0000
     51 H20        -0.2871    3.7271   -1.1123 H         1 <0>         0.0000
     52 H21         1.3842    3.2215   -1.1205 H         1 <0>         0.0000
     53 H22         1.2386   -1.1504   -2.4142 H         1 <0>         0.0000
@<TRIPOS>BOND
     1    1    2 ar
     2    1   10 ar
     3    1   32 1
     4    2   11 ar
     5    2   33 1
     6    3    5 ar
     7    3   12 ar
     8    3   34 1
     9    4    6 ar
    10    4   12 ar
    11    4   35 1
    12    5   13 ar
    13    5   36 1
    14    6   13 ar
    15    6   37 1
    16    7    8 ar
    17    7   11 ar
    18    7   38 1
    19    8    9 1
    20    8   10 ar
    21    9   14 2
    22    9   16 1
    23   10   23 1
    24   11   29 1
    25   12   30 1
    26   13   31 1
    27   14   17 1
    28   14   23 1
    29   15   21 1
    30   15   25 2
    31   15   28 1
    32   16   19 1
    33   16   39 1
    34   16   40 1
    35   17   18 1
    36   17   41 1
    37   17   42 1
    38   18   19 1
    39   18   43 1
    40   18   44 1
    41   19   24 1
    42   19   45 1
    43   20   28 1
    44   20   46 1
    45   20   47 1
    46   20   48 1
    47   21   22 1
    48   21   49 1
    49   21   50 1
    50   22   23 1
    51   22   51 1
    52   22   52 1
    53   24   30 1
    54   24   53 1
    55   26   30 2
    56   27   30 2
