@<TRIPOS>MOLECULE
*****
   58    61     0     0     0
SMALL
NO_CHARGES

@<TRIPOS>ATOM
      1 C1          3.2833  -10.8218    0.3368 C.ar      1 <0>         0.0000
      2 C2          2.5753  -11.8623   -1.7284 C.ar      1 <0>         0.0000
      3 C3          4.4041   -7.6226   -0.7324 C.ar      1 <0>         0.0000
      4 C4          1.9560  -10.6732    0.7264 C.ar      1 <0>         0.0000
      5 C5          1.2467  -11.7099   -1.3459 C.ar      1 <0>         0.0000
      6 C6          3.0882   -7.5270   -0.3035 C.ar      1 <0>         0.0000
      7 C7          4.1585   -8.9559   -4.1035 C.2       1 <0>         0.0000
      8 C8          2.2343   -8.3698   -2.4331 C.ar      1 <0>         0.0000
      9 C9          5.5215   -8.8612   -3.9599 C.2       1 <0>         0.0000
     10 C10         6.6933  -12.2261   -2.4751 C.2       1 <0>         0.0000
     11 C11         3.5657   -8.4857   -2.8801 C.ar      1 <0>         0.0000
     12 C12         3.6118  -11.4073   -0.8958 C.ar      1 <0>         0.0000
     13 C13         4.6319   -8.1167   -2.0229 C.ar      1 <0>         0.0000
     14 C14         0.9264  -11.0977   -0.1246 C.ar      1 <0>         0.0000
     15 C15         2.0109   -7.9141   -1.1380 C.ar      1 <0>         0.0000
     16 C16         7.1647  -11.6362   -1.3411 C.2       1 <0>         0.0000
     17 C17         5.0118  -11.5567   -1.2655 C.2       1 <0>         0.0000
     18 C18         7.4501   -6.6902   -1.7620 C.2       1 <0>         0.0000
     19 C19         8.8464  -12.3024    0.4140 C.3       1 <0>         0.0000
     20 C20         8.2803   -8.6789   -2.9951 C.3       1 <0>         0.0000
     21 C21         8.5717  -11.4758   -0.8537 C.3       1 <0>         0.0000
     22 C22        -1.4000   -8.7673   -0.1873 C.3       1 <0>         0.0000
     23 C23        -0.8797   -9.7866    0.8292 C.3       1 <0>         0.0000
     24 C24        -0.3550   -8.3836   -1.2271 C.3       1 <0>         0.0000
     25 C25         7.1448   -8.1629   -2.1045 C.3       1 <0>         0.0000
     26 N1          6.0742  -11.2044   -0.5856 N.2       1 <0>         0.0000
     27 N2          5.8308   -8.3350   -2.7077 N.pl3     1 <0>         0.0000
     28 O1          8.3139   -6.3909   -0.9691 O.2       1 <0>         0.0000
     29 O2          5.3156  -12.1843   -2.4429 O.3       1 <0>         0.0000
     30 O3          6.7479   -5.7517   -2.4355 O.3       1 <0>         0.0000
     31 O4         -0.4104  -10.9809    0.1738 O.3       1 <0>         0.0000
     32 O5          0.7723   -7.8301   -0.5442 O.3       1 <0>         0.0000
     33 H1          4.0829  -10.4808    0.9856 H         1 <0>         0.0000
     34 H2          2.8141  -12.3183   -2.6837 H         1 <0>         0.0000
     35 H3          5.2168   -7.3384   -0.0707 H         1 <0>         0.0000
     36 H4          1.7332  -10.2171    1.6844 H         1 <0>         0.0000
     37 H5          0.4374  -12.0436   -1.9887 H         1 <0>         0.0000
     38 H6          2.8566   -7.1761    0.6972 H         1 <0>         0.0000
     39 H7          3.6426   -9.3253   -4.9803 H         1 <0>         0.0000
     40 H8          1.4214   -8.6557   -3.0898 H         1 <0>         0.0000
     41 H9          6.3034   -9.1317   -4.6534 H         1 <0>         0.0000
     42 H10         7.1437  -12.6997   -3.3344 H         1 <0>         0.0000
     43 H11         8.1541  -12.0190    1.2116 H         1 <0>         0.0000
     44 H12         9.8690  -12.1378    0.7689 H         1 <0>         0.0000
     45 H13         8.7173  -13.3717    0.2180 H         1 <0>         0.0000
     46 H14         8.3375   -8.1225   -3.9357 H         1 <0>         0.0000
     47 H15         9.2254   -8.5485   -2.4656 H         1 <0>         0.0000
     48 H16         8.1407   -9.7393   -3.2127 H         1 <0>         0.0000
     49 H17         9.2646  -11.7656   -1.6511 H         1 <0>         0.0000
     50 H18         8.7602  -10.4180   -0.6372 H         1 <0>         0.0000
     51 H19        -2.2683   -9.1806   -0.7128 H         1 <0>         0.0000
     52 H20        -1.7360   -7.8770    0.3582 H         1 <0>         0.0000
     53 H21        -0.0934   -9.3386    1.4379 H         1 <0>         0.0000
     54 H22        -1.6872  -10.1078    1.4922 H         1 <0>         0.0000
     55 H23        -0.7548   -7.6486   -1.9381 H         1 <0>         0.0000
     56 H24        -0.0606   -9.2752   -1.7863 H         1 <0>         0.0000
     57 H25         7.1607   -8.7052   -1.1549 H         1 <0>         0.0000
     58 H26         6.0507   -6.1944   -2.9575 H         1 <0>         0.0000
@<TRIPOS>BOND
     1    1    4 ar
     2    1   12 ar
     3    1   33 1
     4    2    5 ar
     5    2   12 ar
     6    2   34 1
     7    3    6 ar
     8    3   13 ar
     9    3   35 1
    10    4   14 ar
    11    4   36 1
    12    5   14 ar
    13    5   37 1
    14    6   15 ar
    15    6   38 1
    16    7    9 2
    17    7   11 1
    18    7   39 1
    19    8   11 ar
    20    8   15 ar
    21    8   40 1
    22    9   27 1
    23    9   41 1
    24   10   16 2
    25   10   29 1
    26   10   42 1
    27   11   13 ar
    28   12   17 1
    29   13   27 1
    30   14   31 1
    31   15   32 1
    32   16   21 1
    33   16   26 1
    34   17   26 2
    35   17   29 1
    36   18   25 1
    37   18   28 2
    38   18   30 1
    39   19   21 1
    40   19   43 1
    41   19   44 1
    42   19   45 1
    43   20   25 1
    44   20   46 1
    45   20   47 1
    46   20   48 1
    47   21   49 1
    48   21   50 1
    49   22   23 1
    50   22   24 1
    51   22   51 1
    52   22   52 1
    53   23   31 1
    54   23   53 1
    55   23   54 1
    56   24   32 1
    57   24   55 1
    58   24   56 1
    59   25   27 1
    60   25   57 1
    61   30   58 1
