@<TRIPOS>MOLECULE
*****
   50    51     0     0     0
SMALL
NO_CHARGES

@<TRIPOS>ATOM
      1 C1          0.7548   -0.1469    1.4055 C.2       1 <0>         0.0000
      2 C2          0.8712   -0.3616   -1.5187 C.2       1 <0>         0.0000
      3 C3         -1.6837   -0.1098    0.4560 C.3       1 <0>         0.0000
      4 C4         -2.5107    0.2099    1.7003 C.3       1 <0>         0.0000
      5 C5         -1.4050    2.2519    2.0797 C.3       1 <0>         0.0000
      6 C6         -0.4033    2.0310    0.9564 C.3       1 <0>         0.0000
      7 C7         -0.2953    0.5522    0.5041 C.3       1 <0>         0.0000
      8 C8          1.5918   -1.2934    4.0980 C.3       1 <0>         0.0000
      9 C9          0.0906   -3.1622    3.3140 C.3       1 <0>         0.0000
     10 C10         2.2101   -2.6683    2.0422 C.3       1 <0>         0.0000
     11 C11         1.0305   -1.9732   -4.0577 C.3       1 <0>         0.0000
     12 C12         2.2983    0.0688   -4.8271 C.3       1 <0>         0.0000
     13 C13         3.2792   -1.3869   -3.0131 C.3       1 <0>         0.0000
     14 C14         1.0809   -2.0785    2.8889 C.3       1 <0>         0.0000
     15 C15         1.9941   -0.8578   -3.6510 C.3       1 <0>         0.0000
     16 N1          0.2691    0.6930   -0.8414 N.am      1 <0>         0.0000
     17 O1          1.8848    0.2857    1.5111 O.2       1 <0>         0.0000
     18 O2          0.9444   -1.4771   -1.0298 O.2       1 <0>         0.0000
     19 O3         -0.8236    2.2385   -2.6670 O.2       1 <0>         0.0000
     20 O4          1.3188    2.9744   -1.5513 O.2       1 <0>         0.0000
     21 O5         -2.6523    1.6227    1.8699 O.3       1 <0>         0.0000
     22 O6         -0.8366    2.7506   -0.2286 O.3       1 <0>         0.0000
     23 O7          0.2358   -1.1946    2.0420 O.3       1 <0>         0.0000
     24 O8          1.3142    0.0598   -2.7015 O.3       1 <0>         0.0000
     25 S1          0.0539    2.2653   -1.5151 S.o2      1 <0>         0.0000
     26 H1         -1.5702   -1.1874    0.3271 H         1 <0>         0.0000
     27 H2         -2.2095    0.2878   -0.4166 H         1 <0>         0.0000
     28 H3         -3.5243   -0.1819    1.5924 H         1 <0>         0.0000
     29 H4         -2.0602   -0.2324    2.5993 H         1 <0>         0.0000
     30 H5         -0.9346    1.8887    3.0088 H         1 <0>         0.0000
     31 H6         -1.5974    3.3215    2.1880 H         1 <0>         0.0000
     32 H7          0.5834    2.4018    1.2495 H         1 <0>         0.0000
     33 H8          2.2965   -0.5162    3.8004 H         1 <0>         0.0000
     34 H9          0.7572   -0.8335    4.6372 H         1 <0>         0.0000
     35 H10         2.0992   -1.9798    4.7834 H         1 <0>         0.0000
     36 H11        -0.3043   -3.6862    2.4390 H         1 <0>         0.0000
     37 H12        -0.7471   -2.7270    3.8674 H         1 <0>         0.0000
     38 H13         0.5902   -3.8903    3.9593 H         1 <0>         0.0000
     39 H14         1.8077   -3.1057    1.1249 H         1 <0>         0.0000
     40 H15         2.9471   -1.9117    1.7725 H         1 <0>         0.0000
     41 H16         2.7094   -3.4553    2.6168 H         1 <0>         0.0000
     42 H17         0.8083   -2.6349   -3.2193 H         1 <0>         0.0000
     43 H18         0.0959   -1.5486   -4.4364 H         1 <0>         0.0000
     44 H19         1.4852   -2.5654   -4.8582 H         1 <0>         0.0000
     45 H20         2.9413    0.8939   -4.5091 H         1 <0>         0.0000
     46 H21         1.3745    0.4891   -5.2336 H         1 <0>         0.0000
     47 H22         2.8083   -0.4908   -5.6165 H         1 <0>         0.0000
     48 H23         3.8997   -0.5563   -2.6640 H         1 <0>         0.0000
     49 H24         3.0653   -2.0478   -2.1722 H         1 <0>         0.0000
     50 H25         3.8469   -1.9468   -3.7631 H         1 <0>         0.0000
@<TRIPOS>BOND
     1    1    7 1
     2    1   17 2
     3    1   23 1
     4    2   16 am
     5    2   18 2
     6    2   24 1
     7    3    4 1
     8    3    7 1
     9    3   26 1
    10    3   27 1
    11    4   21 1
    12    4   28 1
    13    4   29 1
    14    5    6 1
    15    5   21 1
    16    5   30 1
    17    5   31 1
    18    6    7 1
    19    6   22 1
    20    6   32 1
    21    7   16 1
    22    8   14 1
    23    8   33 1
    24    8   34 1
    25    8   35 1
    26    9   14 1
    27    9   36 1
    28    9   37 1
    29    9   38 1
    30   10   14 1
    31   10   39 1
    32   10   40 1
    33   10   41 1
    34   11   15 1
    35   11   42 1
    36   11   43 1
    37   11   44 1
    38   12   15 1
    39   12   45 1
    40   12   46 1
    41   12   47 1
    42   13   15 1
    43   13   48 1
    44   13   49 1
    45   13   50 1
    46   14   23 1
    47   15   24 1
    48   16   25 1
    49   19   25 2
    50   20   25 2
    51   22   25 1
