@<TRIPOS>MOLECULE
*****
   64    68     0     0     0
SMALL
NO_CHARGES

@<TRIPOS>ATOM
      1 C1         -6.2609   -8.0542    9.1945 C.ar      1 <0>         0.0000
      2 C2         -6.6958   -6.8186    8.6512 C.ar      1 <0>         0.0000
      3 C3          6.4963    2.6889   -0.7343 C.ar      1 <0>         0.0000
      4 C4          7.2381    1.4920   -0.7467 C.ar      1 <0>         0.0000
      5 C5         -4.9913   -8.5233    8.9174 C.ar      1 <0>         0.0000
      6 C6         -5.8540   -6.0797    7.8423 C.ar      1 <0>         0.0000
      7 C7          5.1463    2.6815   -0.3706 C.ar      1 <0>         0.0000
      8 C8          2.0220    1.8114    0.7102 C.ar      1 <0>         0.0000
      9 C9          6.6516    0.2695   -0.4039 C.ar      1 <0>         0.0000
     10 C10         0.9233    1.1294    1.2275 C.ar      1 <0>         0.0000
     11 C11        -2.7964   -8.2415    7.7761 C.ar      1 <0>         0.0000
     12 C12        -3.6559   -5.7953    6.7125 C.ar      1 <0>         0.0000
     13 C13         2.1103   -1.0077    1.0773 C.ar      1 <0>         0.0000
     14 C14        -4.1049   -7.7842    8.0890 C.ar      1 <0>         0.0000
     15 C15        -4.5436   -6.5385    7.5389 C.ar      1 <0>         0.0000
     16 C16         4.5334    1.4718   -0.0218 C.ar      1 <0>         0.0000
     17 C17         3.2022    1.1067    0.4155 C.ar      1 <0>         0.0000
     18 C18         5.2971    0.2602   -0.0478 C.ar      1 <0>         0.0000
     19 C19         3.2185   -0.2990    0.6124 C.ar      1 <0>         0.0000
     20 C20         0.9837   -0.2704    1.4377 C.ar      1 <0>         0.0000
     21 C21        -1.9448   -7.5144    6.9747 C.ar      1 <0>         0.0000
     22 C22        -2.3809   -6.2526    6.4338 C.ar      1 <0>         0.0000
     23 C23         3.6404   -3.2602    2.5612 C.2       1 <0>         0.0000
     24 C24        -0.1349   -8.0360    5.4559 C.3       1 <0>         0.0000
     25 C25         4.9600   -2.6156    2.0140 C.3       1 <0>         0.0000
     26 C26        -0.9889   -2.5444    3.5174 C.3       1 <0>         0.0000
     27 C27        -0.6940   -3.8986    4.1771 C.3       1 <0>         0.0000
     28 C28         4.8996   -2.1913    0.5342 C.3       1 <0>         0.0000
     29 C29         0.1429   -2.1791    2.5723 C.3       1 <0>         0.0000
     30 C30        -1.8364   -4.3447    5.0726 C.3       1 <0>         0.0000
     31 N1          4.4810   -0.8007    0.3197 N.pl3     1 <0>         0.0000
     32 O1          3.3528   -3.0128    3.7612 O.co2     1 <0>         0.0000
     33 O2          2.9939   -3.9684    1.7296 O.co2     1 <0>         0.0000
     34 O3         -0.6768   -7.9954    6.7912 O.3       1 <0>         0.0000
     35 O4         -0.0992   -0.8560    2.0449 O.3       1 <0>         0.0000
     36 O5         -1.4649   -5.5932    5.6806 O.3       1 <0>         0.0000
     37 H1         -6.9294   -8.6294    9.8304 H         1 <0>         0.0000
     38 H2         -7.6956   -6.4537    8.8742 H         1 <0>         0.0000
     39 H3          6.9806    3.6244   -1.0049 H         1 <0>         0.0000
     40 H4          8.2896    1.5158   -1.0242 H         1 <0>         0.0000
     41 H5         -4.6531   -9.4702    9.3333 H         1 <0>         0.0000
     42 H6         -6.1880   -5.1314    7.4262 H         1 <0>         0.0000
     43 H7          4.5769    3.6087   -0.3545 H         1 <0>         0.0000
     44 H8          1.9714    2.8891    0.5692 H         1 <0>         0.0000
     45 H9          7.2403   -0.6432   -0.4100 H         1 <0>         0.0000
     46 H10         0.0168    1.6568    1.5114 H         1 <0>         0.0000
     47 H11        -2.4365   -9.1861    8.1755 H         1 <0>         0.0000
     48 H12        -3.9925   -4.8426    6.3191 H         1 <0>         0.0000
     49 H13         2.1630   -2.0821    1.2013 H         1 <0>         0.0000
     50 H14         0.6203   -8.8253    5.4725 H         1 <0>         0.0000
     51 H15         0.3223   -7.0844    5.1846 H         1 <0>         0.0000
     52 H16        -0.9129   -8.2918    4.7282 H         1 <0>         0.0000
     53 H17         5.7358   -3.3866    2.1107 H         1 <0>         0.0000
     54 H18         5.2575   -1.7746    2.6470 H         1 <0>         0.0000
     55 H19        -1.9410   -2.5765    2.9703 H         1 <0>         0.0000
     56 H20        -1.0823   -1.7631    4.2820 H         1 <0>         0.0000
     57 H21         0.2329   -3.8343    4.7558 H         1 <0>         0.0000
     58 H22        -0.5246   -4.6607    3.4082 H         1 <0>         0.0000
     59 H23         4.1965   -2.8580    0.0242 H         1 <0>         0.0000
     60 H24         5.8721   -2.2980    0.0470 H         1 <0>         0.0000
     61 H25         1.1015   -2.2058    3.1009 H         1 <0>         0.0000
     62 H26         0.2061   -2.9018    1.7504 H         1 <0>         0.0000
     63 H27        -2.7565   -4.4857    4.4894 H         1 <0>         0.0000
     64 H28        -2.0382   -3.6075    5.8619 H         1 <0>         0.0000
@<TRIPOS>BOND
     1    1    2 ar
     2    1    5 ar
     3    1   37 1
     4    2    6 ar
     5    2   38 1
     6    3    4 ar
     7    3    7 ar
     8    3   39 1
     9    4    9 ar
    10    4   40 1
    11    5   14 ar
    12    5   41 1
    13    6   15 ar
    14    6   42 1
    15    7   16 ar
    16    7   43 1
    17    8   10 ar
    18    8   17 ar
    19    8   44 1
    20    9   18 ar
    21    9   45 1
    22   10   20 ar
    23   10   46 1
    24   11   14 ar
    25   11   21 ar
    26   11   47 1
    27   12   15 ar
    28   12   22 ar
    29   12   48 1
    30   13   19 ar
    31   13   20 ar
    32   13   49 1
    33   14   15 ar
    34   16   17 1
    35   16   18 ar
    36   17   19 ar
    37   18   31 1
    38   19   31 1
    39   20   35 1
    40   21   22 ar
    41   21   34 1
    42   22   36 1
    43   23   25 1
    44   23   32 1
    45   23   33 2
    46   24   34 1
    47   24   50 1
    48   24   51 1
    49   24   52 1
    50   25   28 1
    51   25   53 1
    52   25   54 1
    53   26   27 1
    54   26   29 1
    55   26   55 1
    56   26   56 1
    57   27   30 1
    58   27   57 1
    59   27   58 1
    60   28   31 1
    61   28   59 1
    62   28   60 1
    63   29   35 1
    64   29   61 1
    65   29   62 1
    66   30   36 1
    67   30   63 1
    68   30   64 1
