@<TRIPOS>MOLECULE
*****
   47    49     0     0     0
SMALL
NO_CHARGES

@<TRIPOS>ATOM
      1 C1          2.9586    2.0698   -3.2736 C.ar      1 <0>         0.0000
      2 C2          2.3913    1.5192   -2.1254 C.ar      1 <0>         0.0000
      3 C3          0.4426    0.7514   -3.3972 C.ar      1 <0>         0.0000
      4 C4          2.2461    1.9604   -4.4675 C.ar      1 <0>         0.0000
      5 C5          1.0143    1.3171   -4.5311 C.ar      1 <0>         0.0000
      6 C6          1.1461    0.8725   -2.1937 C.ar      1 <0>         0.0000
      7 C7          2.5956    2.4520   -5.8209 C.2       1 <0>         0.0000
      8 C8          1.2935   -0.6059   -0.2084 C.2       1 <0>         0.0000
      9 C9         -0.6758    0.5970   -0.4654 C.2       1 <0>         0.0000
     10 C10         0.5294    1.3866   -5.9545 C.3       1 <0>         0.0000
     11 C11         0.3756   -0.9572    0.9632 C.3       1 <0>         0.0000
     12 C12         1.0460   -0.5122    2.2738 C.3       1 <0>         0.0000
     13 C13         0.0866   -2.4647    0.9615 C.3       1 <0>         0.0000
     14 C14        -4.4214   -0.8908    1.7699 C.3       1 <0>         0.0000
     15 C15        -3.1461   -1.0145    0.9304 C.3       1 <0>         0.0000
     16 C16        -5.5559   -1.7798    1.2488 C.3       1 <0>         0.0000
     17 C17        -2.0170   -0.1359    1.4809 C.3       1 <0>         0.0000
     18 C18        -6.8340   -1.6354    2.0627 C.3       1 <0>         0.0000
     19 N1          0.6035    0.3062   -1.0009 N.am      1 <0>         0.0000
     20 N2         -0.8146   -0.1537    0.6526 N.pl3     1 <0>         0.0000
     21 O1          3.5717    3.0557   -6.1996 O.2       1 <0>         0.0000
     22 O2          2.4131   -1.0393   -0.4019 O.2       1 <0>         0.0000
     23 O3          1.5654    2.0954   -6.6681 O.3       1 <0>         0.0000
     24 O4         -7.8153   -2.5185    1.5072 O.3       1 <0>         0.0000
     25 S1         -1.7658    1.6814   -1.0926 S.2       1 <0>         0.0000
     26 H1          3.9201    2.5736   -3.2464 H         1 <0>         0.0000
     27 H2          2.9057    1.5782   -1.1725 H         1 <0>         0.0000
     28 H3         -0.5165    0.2461   -3.4224 H         1 <0>         0.0000
     29 H4          0.4072    0.4016   -6.4164 H         1 <0>         0.0000
     30 H5         -0.4051    1.9474   -6.0578 H         1 <0>         0.0000
     31 H6          0.4297   -0.7809    3.1364 H         1 <0>         0.0000
     32 H7          1.2059    0.5697    2.2817 H         1 <0>         0.0000
     33 H8          2.0132   -1.0116    2.3704 H         1 <0>         0.0000
     34 H9         -0.5576   -2.7318    1.8042 H         1 <0>         0.0000
     35 H10         1.0279   -3.0121    1.0539 H         1 <0>         0.0000
     36 H11        -0.4060   -2.7684    0.0340 H         1 <0>         0.0000
     37 H12        -4.2020   -1.1504    2.8153 H         1 <0>         0.0000
     38 H13        -4.7466    0.1581    1.7733 H         1 <0>         0.0000
     39 H14        -3.3514   -0.7100   -0.1006 H         1 <0>         0.0000
     40 H15        -2.8184   -2.0599    0.9005 H         1 <0>         0.0000
     41 H16        -5.7770   -1.5316    0.2041 H         1 <0>         0.0000
     42 H17        -5.2487   -2.8325    1.2666 H         1 <0>         0.0000
     43 H18        -2.3556    0.9013    1.5548 H         1 <0>         0.0000
     44 H19        -1.7317   -0.4638    2.4844 H         1 <0>         0.0000
     45 H20        -7.1842   -0.5924    2.0265 H         1 <0>         0.0000
     46 H21        -6.6381   -1.8871    3.1167 H         1 <0>         0.0000
     47 H22        -8.6388   -2.4133    2.0080 H         1 <0>         0.0000
@<TRIPOS>BOND
     1    1    2 ar
     2    1    4 ar
     3    1   26 1
     4    2    6 ar
     5    2   27 1
     6    3    5 ar
     7    3    6 ar
     8    3   28 1
     9    4    5 ar
    10    4    7 1
    11    5   10 1
    12    6   19 1
    13    7   21 2
    14    7   23 1
    15    8   11 1
    16    8   19 am
    17    8   22 2
    18    9   19 1
    19    9   20 1
    20    9   25 2
    21   10   23 1
    22   10   29 1
    23   10   30 1
    24   11   12 1
    25   11   13 1
    26   11   20 1
    27   12   31 1
    28   12   32 1
    29   12   33 1
    30   13   34 1
    31   13   35 1
    32   13   36 1
    33   14   15 1
    34   14   16 1
    35   14   37 1
    36   14   38 1
    37   15   17 1
    38   15   39 1
    39   15   40 1
    40   16   18 1
    41   16   41 1
    42   16   42 1
    43   17   20 1
    44   17   43 1
    45   17   44 1
    46   18   24 1
    47   18   45 1
    48   18   46 1
    49   24   47 1
