@<TRIPOS>MOLECULE
*****
   64    66     0     0     0
SMALL
NO_CHARGES

@<TRIPOS>ATOM
      1 C1         -0.1378    5.1802   -2.4380 C.ar      1 <0>         0.0000
      2 C2          1.2127    6.6856   -1.1110 C.ar      1 <0>         0.0000
      3 C3         -0.9601    6.2423   -2.8202 C.ar      1 <0>         0.0000
      4 C4          0.4030    7.7595   -1.4891 C.ar      1 <0>         0.0000
      5 C5          0.9546    5.3869   -1.5803 C.ar      1 <0>         0.0000
      6 C6          1.8374    4.2529   -1.1765 C.ar      1 <0>         0.0000
      7 C7          2.5612    3.5291   -2.1480 C.ar      1 <0>         0.0000
      8 C8          1.9725    3.9068    0.1817 C.ar      1 <0>         0.0000
      9 C9         -0.6722    7.5146   -2.3373 C.ar      1 <0>         0.0000
     10 C10         3.3733    2.4685   -1.7073 C.ar      1 <0>         0.0000
     11 C11         2.8714    2.8774    0.5221 C.ar      1 <0>         0.0000
     12 C12        -0.1054    3.5199   -8.2845 C.3       1 <0>         0.0000
     13 C13         0.7213    4.6667   -7.6875 C.3       1 <0>         0.0000
     14 C14         0.4601    2.1556   -7.8660 C.3       1 <0>         0.0000
     15 C15         0.8335    4.5449   -6.1614 C.3       1 <0>         0.0000
     16 C16         0.5789    2.0453   -6.3399 C.3       1 <0>         0.0000
     17 C17         1.4144    3.1854   -5.7441 C.3       1 <0>         0.0000
     18 C18         3.7356    0.0966   -2.4544 C.3       1 <0>         0.0000
     19 C19         5.6679    1.7429   -2.4351 C.3       1 <0>         0.0000
     20 C20         4.6554    2.3576    2.2245 C.3       1 <0>         0.0000
     21 C21         2.4305    1.1369    2.2717 C.3       1 <0>         0.0000
     22 C22         2.4627    3.8759   -3.6173 C.3       1 <0>         0.0000
     23 C23         1.1559    4.5942    1.2472 C.3       1 <0>         0.0000
     24 C24         4.1552    1.5639   -2.6517 C.3       1 <0>         0.0000
     25 C25         3.1448    2.4654    1.9617 C.3       1 <0>         0.0000
     26 N1          3.5272    2.1776   -0.4085 N.ar      1 <0>         0.0000
     27 N2          1.4421    3.0498   -4.2813 N.3       1 <0>         0.0000
     28 O1          1.9569    5.6238    1.8625 O.3       1 <0>         0.0000
     29 F1         -1.4664    8.5542   -2.7087 F         1 <0>         0.0000
     30 H1         -0.3211    4.1862   -2.8330 H         1 <0>         0.0000
     31 H2          2.0485    6.8522   -0.4388 H         1 <0>         0.0000
     32 H3         -1.8060    6.0949   -3.4849 H         1 <0>         0.0000
     33 H4          0.5959    8.7687   -1.1378 H         1 <0>         0.0000
     34 H5         -0.1344    3.5994   -9.3776 H         1 <0>         0.0000
     35 H6         -1.1436    3.6031   -7.9343 H         1 <0>         0.0000
     36 H7          1.7277    4.6546   -8.1285 H         1 <0>         0.0000
     37 H8          0.2779    5.6338   -7.9510 H         1 <0>         0.0000
     38 H9         -0.1715    1.3461   -8.2497 H         1 <0>         0.0000
     39 H10         1.4517    2.0206   -8.3192 H         1 <0>         0.0000
     40 H11         1.4480    5.3616   -5.7684 H         1 <0>         0.0000
     41 H12        -0.1577    4.6480   -5.7014 H         1 <0>         0.0000
     42 H13        -0.4200    2.0768   -5.8850 H         1 <0>         0.0000
     43 H14         1.0233    1.0791   -6.0650 H         1 <0>         0.0000
     44 H15         2.4378    3.1132   -6.1634 H         1 <0>         0.0000
     45 H16         3.9465   -0.2238   -1.4307 H         1 <0>         0.0000
     46 H17         4.2822   -0.5545   -3.1454 H         1 <0>         0.0000
     47 H18         2.6629   -0.0391   -2.6348 H         1 <0>         0.0000
     48 H19         5.9344    1.4848   -1.4063 H         1 <0>         0.0000
     49 H20         5.9727    2.7796   -2.6146 H         1 <0>         0.0000
     50 H21         6.2342    1.0973   -3.1156 H         1 <0>         0.0000
     51 H22         5.1057    1.5957    1.5833 H         1 <0>         0.0000
     52 H23         4.8381    2.0887    3.2708 H         1 <0>         0.0000
     53 H24         5.1558    3.3107    2.0245 H         1 <0>         0.0000
     54 H25         2.8026    0.3455    1.6134 H         1 <0>         0.0000
     55 H26         1.3479    1.2189    2.1214 H         1 <0>         0.0000
     56 H27         2.6079    0.8348    3.3099 H         1 <0>         0.0000
     57 H28         2.1799    4.9244   -3.7210 H         1 <0>         0.0000
     58 H29         3.4507    3.7748   -4.0962 H         1 <0>         0.0000
     59 H30         0.2545    5.0291    0.8033 H         1 <0>         0.0000
     60 H31         0.8362    3.8655    2.0026 H         1 <0>         0.0000
     61 H32         3.9291    1.8388   -3.6852 H         1 <0>         0.0000
     62 H33         2.7545    3.2392    2.6264 H         1 <0>         0.0000
     63 H34         1.6195    2.0738   -4.0474 H         1 <0>         0.0000
     64 H35         1.4092    6.0626    2.5333 H         1 <0>         0.0000
@<TRIPOS>BOND
     1    1    3 ar
     2    1    5 ar
     3    1   30 1
     4    2    4 ar
     5    2    5 ar
     6    2   31 1
     7    3    9 ar
     8    3   32 1
     9    4    9 ar
    10    4   33 1
    11    5    6 1
    12    6    7 ar
    13    6    8 ar
    14    7   10 ar
    15    7   22 1
    16    8   11 ar
    17    8   23 1
    18    9   29 1
    19   10   24 1
    20   10   26 ar
    21   11   25 1
    22   11   26 ar
    23   12   14 1
    24   12   13 1
    25   12   34 1
    26   12   35 1
    27   13   15 1
    28   13   36 1
    29   13   37 1
    30   14   16 1
    31   14   38 1
    32   14   39 1
    33   15   17 1
    34   15   40 1
    35   15   41 1
    36   16   17 1
    37   16   42 1
    38   16   43 1
    39   17   27 1
    40   17   44 1
    41   18   24 1
    42   18   45 1
    43   18   46 1
    44   18   47 1
    45   19   24 1
    46   19   48 1
    47   19   49 1
    48   19   50 1
    49   20   25 1
    50   20   51 1
    51   20   52 1
    52   20   53 1
    53   21   25 1
    54   21   54 1
    55   21   55 1
    56   21   56 1
    57   22   27 1
    58   22   57 1
    59   22   58 1
    60   23   28 1
    61   23   59 1
    62   23   60 1
    63   24   61 1
    64   25   62 1
    65   27   63 1
    66   28   64 1
