@<TRIPOS>MOLECULE
*****
   46    50     0     0     0
SMALL
NO_CHARGES

@<TRIPOS>ATOM
      1 C1         -3.9272   -1.6768    3.7570 C.ar      1 <0>         0.0000
      2 C2          2.7445   -0.2498    0.2019 C.ar      1 <0>         0.0000
      3 C3         -3.5478   -0.6601    2.8781 C.ar      1 <0>         0.0000
      4 C4          1.5914    0.3925    0.6508 C.ar      1 <0>         0.0000
      5 C5         -3.7176   -1.5420    5.1329 C.ar      1 <0>         0.0000
      6 C6          1.0334   -1.6404    1.8451 C.ar      1 <0>         0.0000
      7 C7          4.3063   -3.3549   -0.7633 C.ar      1 <0>         0.0000
      8 C8         -2.7207    0.6442    4.7378 C.ar      1 <0>         0.0000
      9 C9          5.5148   -1.4272   -0.0125 C.ar      1 <0>         0.0000
     10 C10         6.6446   -2.9763   -1.2673 C.ar      1 <0>         0.0000
     11 C11         3.0725   -1.5735    0.5416 C.ar      1 <0>         0.0000
     12 C12         2.1980   -2.2915    1.4007 C.ar      1 <0>         0.0000
     13 C13         4.3055   -2.1405   -0.0625 C.ar      1 <0>         0.0000
     14 C14        -2.9374    0.5092    3.3590 C.ar      1 <0>         0.0000
     15 C15         0.7220   -0.3291    1.4816 C.ar      1 <0>         0.0000
     16 C16         5.4892   -3.7488   -1.3620 C.ar      1 <0>         0.0000
     17 C17        -3.1193   -0.3730    5.6049 C.ar      1 <0>         0.0000
     18 C18         2.4176   -3.6571    1.8911 C.2       1 <0>         0.0000
     19 C19        -1.1149    1.3732    1.7204 C.2       1 <0>         0.0000
     20 C20        -3.4903    2.2905    1.5486 C.3       1 <0>         0.0000
     21 C21        -2.8210    3.0183    2.6796 C.3       1 <0>         0.0000
     22 C22        -2.4604    1.5666    2.4090 C.3       1 <0>         0.0000
     23 N1          3.5732   -4.3522    1.8447 N.2       1 <0>         0.0000
     24 N2          6.6584   -1.8205   -0.5929 N.ar      1 <0>         0.0000
     25 N3          1.4388   -4.3653    2.5019 N.2       1 <0>         0.0000
     26 N4          3.2929   -5.5209    2.4425 N.2       1 <0>         0.0000
     27 N5          2.0153   -5.5285    2.8320 N.2       1 <0>         0.0000
     28 N6         -0.4889    0.1963    2.0032 N.am      1 <0>         0.0000
     29 O1         -0.6722    2.2426    0.9641 O.2       1 <0>         0.0000
     30 F1          5.5341   -4.9120   -2.0720 F         1 <0>         0.0000
     31 Cl1        -2.8530   -0.1794    7.3338 Cl        1 <0>         0.0000
     32 H1         -4.3800   -2.5870    3.3737 H         1 <0>         0.0000
     33 H2          3.4074    0.2893   -0.4703 H         1 <0>         0.0000
     34 H3         -3.7080   -0.7741    1.8092 H         1 <0>         0.0000
     35 H4          1.3591    1.4069    0.3579 H         1 <0>         0.0000
     36 H5         -4.0032   -2.3292    5.8231 H         1 <0>         0.0000
     37 H6          0.3744   -2.2056    2.4997 H         1 <0>         0.0000
     38 H7          3.4197   -3.9742   -0.8310 H         1 <0>         0.0000
     39 H8         -2.2369    1.5347    5.1267 H         1 <0>         0.0000
     40 H9          5.5603   -0.4933    0.5448 H         1 <0>         0.0000
     41 H10         7.5673   -3.3058   -1.7424 H         1 <0>         0.0000
     42 H11        -4.5257    1.9878    1.6739 H         1 <0>         0.0000
     43 H12        -3.1789    2.5400    0.5399 H         1 <0>         0.0000
     44 H13        -2.0649    3.7517    2.4210 H         1 <0>         0.0000
     45 H14        -3.4039    3.2205    3.5731 H         1 <0>         0.0000
     46 H15        -0.9744   -0.4326    2.6306 H         1 <0>         0.0000
@<TRIPOS>BOND
     1    1    3 ar
     2    1    5 ar
     3    1   32 1
     4    2    4 ar
     5    2   11 ar
     6    2   33 1
     7    3   14 ar
     8    3   34 1
     9    4   15 ar
    10    4   35 1
    11    5   17 ar
    12    5   36 1
    13    6   12 ar
    14    6   15 ar
    15    6   37 1
    16    7   13 ar
    17    7   16 ar
    18    7   38 1
    19    8   14 ar
    20    8   17 ar
    21    8   39 1
    22    9   13 ar
    23    9   24 ar
    24    9   40 1
    25   10   16 ar
    26   10   24 ar
    27   10   41 1
    28   11   12 ar
    29   11   13 1
    30   12   18 1
    31   14   22 1
    32   15   28 1
    33   16   30 1
    34   17   31 1
    35   18   23 1
    36   18   25 2
    37   19   22 1
    38   19   28 am
    39   19   29 2
    40   20   21 1
    41   20   22 1
    42   20   42 1
    43   20   43 1
    44   21   22 1
    45   21   44 1
    46   21   45 1
    47   23   26 1
    48   25   27 1
    49   26   27 2
    50   28   46 1
