@<TRIPOS>MOLECULE
*****
   35    36     0     0     0
SMALL
NO_CHARGES

@<TRIPOS>ATOM
      1 C1          9.4805   -1.5782   -0.7030 C.2       1 <0>         0.0000
      2 C2          7.8723   -0.3259    0.4575 C.2       1 <0>         0.0000
      3 C3         10.5323   -2.5349   -1.1817 C.2       1 <0>         0.0000
      4 C4         13.3252   -3.0735   -2.7654 C.3       1 <0>         0.0000
      5 C5         12.8401   -2.5269   -4.0914 C.3       1 <0>         0.0000
      6 C6         11.8657   -3.1701   -3.1344 C.3       1 <0>         0.0000
      7 C7          0.1450   -0.5259    1.2436 C.3       1 <0>         0.0000
      8 C8          1.4393    0.0281    1.8491 C.3       1 <0>         0.0000
      9 C9          2.6857   -0.3592    1.0442 C.3       1 <0>         0.0000
     10 C10         3.9816    0.1944    1.6526 C.3       1 <0>         0.0000
     11 C11         5.2054   -0.2085    0.8346 C.3       1 <0>         0.0000
     12 N1          8.9423   -0.6456   -1.4500 N.2       1 <0>         0.0000
     13 N2          8.0092    0.0917   -0.7715 N.2       1 <0>         0.0000
     14 N3         10.9247   -2.3159   -2.4646 N.am      1 <0>         0.0000
     15 O1         10.9663   -3.4120   -0.4379 O.2       1 <0>         0.0000
     16 O2          6.9200   -0.3646    2.9350 O.2       1 <0>         0.0000
     17 S1          8.8859   -1.6575    0.9296 S.3       1 <0>         0.0000
     18 S2          6.7349    0.4309    1.6579 S.o       1 <0>         0.0000
     19 H1         13.8983   -3.9949   -2.7558 H         1 <0>         0.0000
     20 H2         13.5863   -2.3614   -1.9900 H         1 <0>         0.0000
     21 H3         12.7934   -1.4471   -4.2010 H         1 <0>         0.0000
     22 H4         13.0807   -3.0669   -5.0019 H         1 <0>         0.0000
     23 H5         11.4841   -4.1574   -3.3849 H         1 <0>         0.0000
     24 H6         -0.0062   -0.1533    0.2239 H         1 <0>         0.0000
     25 H7          0.1674   -1.6207    1.1967 H         1 <0>         0.0000
     26 H8         -0.7280   -0.2356    1.8375 H         1 <0>         0.0000
     27 H9          1.5485   -0.3345    2.8792 H         1 <0>         0.0000
     28 H10         1.3759    1.1220    1.9139 H         1 <0>         0.0000
     29 H11         2.5798    0.0017    0.0122 H         1 <0>         0.0000
     30 H12         2.7525   -1.4536    0.9829 H         1 <0>         0.0000
     31 H13         4.0966   -0.1772    2.6767 H         1 <0>         0.0000
     32 H14         3.9208    1.2885    1.7125 H         1 <0>         0.0000
     33 H15         5.2006    0.2148   -0.1747 H         1 <0>         0.0000
     34 H16         5.3181   -1.2956    0.7771 H         1 <0>         0.0000
     35 H17        10.4219   -1.6058   -2.9870 H         1 <0>         0.0000
@<TRIPOS>BOND
     1    1    3 1
     2    1   12 2
     3    1   17 1
     4    2   13 2
     5    2   17 1
     6    2   18 1
     7    3   14 am
     8    3   15 2
     9    4    5 1
    10    4    6 1
    11    4   19 1
    12    4   20 1
    13    5    6 1
    14    5   21 1
    15    5   22 1
    16    6   14 1
    17    6   23 1
    18    7    8 1
    19    7   24 1
    20    7   25 1
    21    7   26 1
    22    8    9 1
    23    8   27 1
    24    8   28 1
    25    9   10 1
    26    9   29 1
    27    9   30 1
    28   10   11 1
    29   10   31 1
    30   10   32 1
    31   11   18 1
    32   11   33 1
    33   11   34 1
    34   12   13 1
    35   14   35 1
    36   16   18 2
