@<TRIPOS>MOLECULE
*****
   64    69     0     0     0
SMALL
NO_CHARGES

@<TRIPOS>ATOM
      1 C1         -2.5934   -6.9251   -1.7336 C.ar      1 <0>         0.0000
      2 C2         -0.3498   -7.7903   -1.9734 C.ar      1 <0>         0.0000
      3 C3         -1.8381   -3.0840    2.3850 C.ar      1 <0>         0.0000
      4 C4         -2.0781   -5.7181   -1.2667 C.ar      1 <0>         0.0000
      5 C5          0.1584   -6.5911   -1.4752 C.ar      1 <0>         0.0000
      6 C6         -1.5191   -3.9586    1.3421 C.ar      1 <0>         0.0000
      7 C7         -1.7381   -7.9834   -2.0974 C.ar      1 <0>         0.0000
      8 C8         -1.1815   -1.8629    2.5086 C.ar      1 <0>         0.0000
      9 C9         -0.6937   -5.5356   -1.1170 C.ar      1 <0>         0.0000
     10 C10        -0.1558   -1.5786    1.5686 C.ar      1 <0>         0.0000
     11 C11        -0.5352   -3.5568    0.4252 C.ar      1 <0>         0.0000
     12 C12        -0.7159    0.1824    3.7411 C.2       1 <0>         0.0000
     13 C13         1.4392    1.5847    0.4611 C.3       1 <0>         0.0000
     14 C14         2.8640   -0.4580    0.7233 C.3       1 <0>         0.0000
     15 C15        -1.5530  -10.1080   -3.4619 C.3       1 <0>         0.0000
     16 C16        -3.5298   -9.3382   -3.2666 C.3       1 <0>         0.0000
     17 C17         2.3147    1.9503   -0.7427 C.3       1 <0>         0.0000
     18 C18         3.6573    0.0212   -0.4950 C.3       1 <0>         0.0000
     19 C19        -3.4598  -11.9696   -3.8041 C.3       1 <0>         0.0000
     20 C20        -3.1802  -10.8180   -5.5114 C.3       1 <0>         0.0000
     21 C21         0.6548    0.1239    3.0688 C.3       1 <0>         0.0000
     22 C22         1.4196    0.0600    0.6271 C.3       1 <0>         0.0000
     23 C23        -2.9255  -10.5427   -4.0228 C.3       1 <0>         0.0000
     24 C24         1.6113   -0.6913    3.9647 C.3       1 <0>         0.0000
     25 C25        -2.8330   -0.9710    4.1399 C.3       1 <0>         0.0000
     26 N1          0.1421   -2.3997    0.5588 N.ar      1 <0>         0.0000
     27 N2         -1.5459   -0.8766    3.4581 N.am      1 <0>         0.0000
     28 N3         -2.2548   -9.1967   -2.5416 N.pl3     1 <0>         0.0000
     29 N4          0.5263   -0.3844    1.7016 N.pl3     1 <0>         0.0000
     30 N5         -0.1490   -4.3114   -0.6729 N.pl3     1 <0>         0.0000
     31 O1         -1.0119    1.0895    4.5181 O.2       1 <0>         0.0000
     32 O2          3.6417    1.4438   -0.6131 O.3       1 <0>         0.0000
     33 O3         -3.6741  -12.1541   -5.2294 O.3       1 <0>         0.0000
     34 H1         -3.6692   -7.0438   -1.8293 H         1 <0>         0.0000
     35 H2          0.3342   -8.5904   -2.2424 H         1 <0>         0.0000
     36 H3         -2.6151   -3.3635    3.0891 H         1 <0>         0.0000
     37 H4         -2.7540   -4.9018   -1.0316 H         1 <0>         0.0000
     38 H5          1.2331   -6.4706   -1.3595 H         1 <0>         0.0000
     39 H6         -2.0096   -4.9197    1.2573 H         1 <0>         0.0000
     40 H7          1.8562    2.0744    1.3477 H         1 <0>         0.0000
     41 H8          0.4217    1.9649    0.3144 H         1 <0>         0.0000
     42 H9          2.8651   -1.5516    0.7705 H         1 <0>         0.0000
     43 H10         3.3474   -0.0726    1.6271 H         1 <0>         0.0000
     44 H11        -0.9505  -10.8832   -2.9739 H         1 <0>         0.0000
     45 H12        -0.9331   -9.5817   -4.2047 H         1 <0>         0.0000
     46 H13        -3.7510   -8.4846   -3.9263 H         1 <0>         0.0000
     47 H14        -4.4013   -9.5396   -2.6327 H         1 <0>         0.0000
     48 H15         1.8590    1.5632   -1.6692 H         1 <0>         0.0000
     49 H16         2.4131    3.0345   -0.8400 H         1 <0>         0.0000
     50 H17         4.7101   -0.2634   -0.4203 H         1 <0>         0.0000
     51 H18         3.2447   -0.4312   -1.4124 H         1 <0>         0.0000
     52 H19        -2.7340  -12.6897   -3.4066 H         1 <0>         0.0000
     53 H20        -4.3980  -12.0415   -3.2403 H         1 <0>         0.0000
     54 H21        -3.9481  -10.1910   -5.9819 H         1 <0>         0.0000
     55 H22        -2.2851  -10.8404   -6.1461 H         1 <0>         0.0000
     56 H23         0.9948    1.1568    3.0238 H         1 <0>         0.0000
     57 H24         0.9880   -0.3672   -0.2825 H         1 <0>         0.0000
     58 H25         1.2999   -1.7393    4.0104 H         1 <0>         0.0000
     59 H26         1.6054   -0.2809    4.9789 H         1 <0>         0.0000
     60 H27         2.6331   -0.6544    3.5819 H         1 <0>         0.0000
     61 H28        -2.8416   -1.8050    4.8510 H         1 <0>         0.0000
     62 H29        -3.6344   -1.1161    3.4090 H         1 <0>         0.0000
     63 H30        -2.9915   -0.0416    4.6845 H         1 <0>         0.0000
     64 H31         0.7182   -3.9996   -1.0911 H         1 <0>         0.0000
@<TRIPOS>BOND
     1    1    4 ar
     2    1    7 ar
     3    1   34 1
     4    2    5 ar
     5    2    7 ar
     6    2   35 1
     7    3    6 ar
     8    3    8 ar
     9    3   36 1
    10    4    9 ar
    11    4   37 1
    12    5    9 ar
    13    5   38 1
    14    6   11 ar
    15    6   39 1
    16    7   28 1
    17    8   10 ar
    18    8   27 1
    19    9   30 1
    20   10   26 ar
    21   10   29 1
    22   11   26 ar
    23   11   30 1
    24   12   21 1
    25   12   27 am
    26   12   31 2
    27   13   17 1
    28   13   22 1
    29   13   40 1
    30   13   41 1
    31   14   18 1
    32   14   22 1
    33   14   42 1
    34   14   43 1
    35   15   23 1
    36   15   28 1
    37   15   44 1
    38   15   45 1
    39   16   23 1
    40   16   28 1
    41   16   46 1
    42   16   47 1
    43   17   32 1
    44   17   48 1
    45   17   49 1
    46   18   32 1
    47   18   50 1
    48   18   51 1
    49   19   23 1
    50   19   33 1
    51   19   52 1
    52   19   53 1
    53   20   23 1
    54   20   33 1
    55   20   54 1
    56   20   55 1
    57   21   24 1
    58   21   29 1
    59   21   56 1
    60   22   29 1
    61   22   57 1
    62   24   58 1
    63   24   59 1
    64   24   60 1
    65   25   27 1
    66   25   61 1
    67   25   62 1
    68   25   63 1
    69   30   64 1
