@<TRIPOS>MOLECULE
*****
   40    42     0     0     0
SMALL
NO_CHARGES

@<TRIPOS>ATOM
      1 C1          2.0196   -3.5547    0.5114 C.ar      1 <0>         0.0000
      2 C2          3.4308   -0.3008    1.2128 C.2       1 <0>         0.0000
      3 C3          2.0711   -4.1798    1.7519 C.ar      1 <0>         0.0000
      4 C4          3.1866   -0.2542   -0.1224 C.2       1 <0>         0.0000
      5 C5          2.9693   -1.5969    1.6659 C.ar      1 <0>         0.0000
      6 C6          2.4940   -2.2415    0.5165 C.ar      1 <0>         0.0000
      7 C7          2.9164   -2.3271    2.8907 C.ar      1 <0>         0.0000
      8 C8         -0.2445    1.1863    1.5077 C.3       1 <0>         0.0000
      9 C9         -0.6147   -0.2463    1.0283 C.3       1 <0>         0.0000
     10 C10         0.0072    1.0326    3.0192 C.3       1 <0>         0.0000
     11 C11        -0.5210   -1.1117    2.2979 C.3       1 <0>         0.0000
     12 C12         3.4851   -2.7331    5.2185 C.3       1 <0>         0.0000
     13 C13         1.6977   -0.2909    5.2705 C.3       1 <0>         0.0000
     14 C14         0.4944   -0.8717    4.5182 C.3       1 <0>         0.0000
     15 C15         3.0145   -0.4271    4.4839 C.3       1 <0>         0.0000
     16 N1          2.4863   -3.5975    2.8963 N.ar      1 <0>         0.0000
     17 N2          0.3990   -0.3678    3.1586 N.3       1 <0>         0.0000
     18 N3          3.3482   -1.8025    4.1019 N.pl3     1 <0>         0.0000
     19 O1          2.6077   -1.4239   -0.5766 O.3       1 <0>         0.0000
     20 H1          1.6629   -4.0529   -0.3829 H         1 <0>         0.0000
     21 H2          3.8982    0.4872    1.7848 H         1 <0>         0.0000
     22 H3          1.7459   -5.2142    1.8490 H         1 <0>         0.0000
     23 H4          3.3583    0.4997   -0.8775 H         1 <0>         0.0000
     24 H5          0.6651    1.5287    1.0077 H         1 <0>         0.0000
     25 H6         -1.0320    1.9176    1.3047 H         1 <0>         0.0000
     26 H7         -1.6133   -0.2936    0.5851 H         1 <0>         0.0000
     27 H8          0.0966   -0.5939    0.2760 H         1 <0>         0.0000
     28 H9          0.7916    1.7023    3.3872 H         1 <0>         0.0000
     29 H10        -0.9148    1.2533    3.5941 H         1 <0>         0.0000
     30 H11        -1.5183   -1.2146    2.7692 H         1 <0>         0.0000
     31 H12        -0.1346   -2.1172    2.1081 H         1 <0>         0.0000
     32 H13         4.0270   -2.2232    6.0211 H         1 <0>         0.0000
     33 H14         4.0537   -3.6082    4.9019 H         1 <0>         0.0000
     34 H15         2.5222   -3.0889    5.6078 H         1 <0>         0.0000
     35 H16         1.7763   -0.7870    6.2443 H         1 <0>         0.0000
     36 H17         1.5431    0.7744    5.4828 H         1 <0>         0.0000
     37 H18         0.6050   -1.9594    4.4573 H         1 <0>         0.0000
     38 H19        -0.4309   -0.6769    5.0961 H         1 <0>         0.0000
     39 H20         3.8410   -0.0246    5.0829 H         1 <0>         0.0000
     40 H21         2.9354    0.1764    3.5848 H         1 <0>         0.0000
@<TRIPOS>BOND
     1    1    3 ar
     2    1    6 ar
     3    1   20 1
     4    2    4 2
     5    2    5 1
     6    2   21 1
     7    3   16 ar
     8    3   22 1
     9    4   19 1
    10    4   23 1
    11    5    6 ar
    12    5    7 ar
    13    6   19 1
    14    7   16 ar
    15    7   18 1
    16    8    9 1
    17    8   10 1
    18    8   24 1
    19    8   25 1
    20    9   11 1
    21    9   26 1
    22    9   27 1
    23   10   17 1
    24   10   28 1
    25   10   29 1
    26   11   17 1
    27   11   30 1
    28   11   31 1
    29   12   18 1
    30   12   32 1
    31   12   33 1
    32   12   34 1
    33   13   14 1
    34   13   15 1
    35   13   35 1
    36   13   36 1
    37   14   17 1
    38   14   37 1
    39   14   38 1
    40   15   18 1
    41   15   39 1
    42   15   40 1
