@<TRIPOS>MOLECULE
*****
   22    22     0     0     0
SMALL
NO_CHARGES

@<TRIPOS>ATOM
      1 C1          1.9030   -1.1739   -0.0128 C.ar      1 <0>         0.0000
      2 C2          2.9395   -1.7441    0.7311 C.ar      1 <0>         0.0000
      3 C3          0.8217   -0.5797    0.6411 C.ar      1 <0>         0.0000
      4 C4          2.9049   -1.7402    2.1315 C.ar      1 <0>         0.0000
      5 C5          0.7507   -0.5558    2.0410 C.ar      1 <0>         0.0000
      6 C6          1.7972   -1.1510    2.7648 C.ar      1 <0>         0.0000
      7 C7          4.0271   -2.3347    2.9490 C.3       1 <0>         0.0000
      8 C8         -0.4084    0.0995    2.7543 C.3       1 <0>         0.0000
      9 C9          1.0844   -2.2004    4.7618 C.3       1 <0>         0.0000
     10 O1          1.7739   -1.1049    4.1546 O.3       1 <0>         0.0000
     11 H1          1.9455   -1.1804   -1.0989 H         1 <0>         0.0000
     12 H2          3.7904   -2.1912    0.2219 H         1 <0>         0.0000
     13 H3          0.0243   -0.1188    0.0619 H         1 <0>         0.0000
     14 H4          4.3251   -1.6597    3.7560 H         1 <0>         0.0000
     15 H5          3.7286   -3.2801    3.4171 H         1 <0>         0.0000
     16 H6          4.8987   -2.5381    2.3210 H         1 <0>         0.0000
     17 H7         -1.1693   -0.6357    3.0439 H         1 <0>         0.0000
     18 H8         -0.0757    0.5994    3.6674 H         1 <0>         0.0000
     19 H9         -0.8956    0.8351    2.1082 H         1 <0>         0.0000
     20 H10         1.1617   -2.0581    5.8421 H         1 <0>         0.0000
     21 H11         1.5415   -3.1592    4.4871 H         1 <0>         0.0000
     22 H12         0.0264   -2.2162    4.4722 H         1 <0>         0.0000
@<TRIPOS>BOND
     1    1    3 ar
     2    1    2 ar
     3    1   11 1
     4    2    4 ar
     5    2   12 1
     6    3    5 ar
     7    3   13 1
     8    4    6 ar
     9    4    7 1
    10    5    6 ar
    11    5    8 1
    12    6   10 1
    13    7   14 1
    14    7   15 1
    15    7   16 1
    16    8   17 1
    17    8   18 1
    18    8   19 1
    19    9   10 1
    20    9   20 1
    21    9   21 1
    22    9   22 1
