@<TRIPOS>MOLECULE
*****
   49    51     0     0     0
SMALL
NO_CHARGES

@<TRIPOS>ATOM
      1 C1          0.1864    0.3740    0.0578 C.1       1 <0>         0.0000
      2 C2          2.4126   -7.6577    1.0093 C.ar      1 <0>         0.0000
      3 C3          2.4200   -6.6488    0.0484 C.ar      1 <0>         0.0000
      4 C4         -0.5632   -1.8043   -0.7998 C.ar      1 <0>         0.0000
      5 C5          1.7158   -1.5434    0.0131 C.ar      1 <0>         0.0000
      6 C6          0.4463   -1.0044   -0.2516 C.ar      1 <0>         0.0000
      7 C7          0.0439   -6.2923    0.4350 C.ar      1 <0>         0.0000
      8 C8         -0.3132   -3.1442   -1.1090 C.ar      1 <0>         0.0000
      9 C9          1.2465   -7.9989    1.7069 C.ar      1 <0>         0.0000
     10 C10         1.2394   -5.9680   -0.2319 C.ar      1 <0>         0.0000
     11 C11         0.9578   -3.6816   -0.8553 C.ar      1 <0>         0.0000
     12 C12         1.9679   -2.8815   -0.2822 C.ar      1 <0>         0.0000
     13 C13         0.0655   -7.3070    1.4138 C.ar      1 <0>         0.0000
     14 C14        -1.1832   -5.5114    0.1223 C.2       1 <0>         0.0000
     15 C15        -1.4332   -3.9964   -1.6744 C.3       1 <0>         0.0000
     16 C16        -0.2764   -7.9256    5.3449 C.3       1 <0>         0.0000
     17 C17         1.8870   -6.7502    5.9078 C.3       1 <0>         0.0000
     18 C18        -2.0556   -8.3730    1.3648 C.3       1 <0>         0.0000
     19 C19         1.8750   -8.5022    4.1006 C.3       1 <0>         0.0000
     20 C20         1.2925   -9.0579    2.7875 C.3       1 <0>         0.0000
     21 C21         1.0553   -7.3979    4.7911 C.3       1 <0>         0.0000
     22 N1         -0.0169    1.4942    0.3066 N.1       1 <0>         0.0000
     23 O1         -1.9531   -5.0213    0.9173 O.2       1 <0>         0.0000
     24 O2          1.2902   -4.9753   -1.2138 O.3       1 <0>         0.0000
     25 O3         -1.3063   -5.3585   -1.2405 O.3       1 <0>         0.0000
     26 O4          3.1754   -3.4775   -0.0558 O.3       1 <0>         0.0000
     27 O5          2.1194  -10.1267    2.2890 O.3       1 <0>         0.0000
     28 O6         -1.0808   -7.6248    2.1055 O.3       1 <0>         0.0000
     29 H1          3.3237   -8.2067    1.2255 H         1 <0>         0.0000
     30 H2          3.3250   -6.3628   -0.4763 H         1 <0>         0.0000
     31 H3         -1.5504   -1.3843   -0.9656 H         1 <0>         0.0000
     32 H4          2.4917   -0.9166    0.4456 H         1 <0>         0.0000
     33 H5         -2.4017   -3.5823   -1.3797 H         1 <0>         0.0000
     34 H6         -1.3821   -4.0468   -2.7646 H         1 <0>         0.0000
     35 H7         -0.1027   -8.7203    6.0820 H         1 <0>         0.0000
     36 H8         -0.8311   -7.1241    5.8445 H         1 <0>         0.0000
     37 H9         -0.9165   -8.3185    4.5517 H         1 <0>         0.0000
     38 H10         2.1537   -7.4862    6.6768 H         1 <0>         0.0000
     39 H11         2.8173   -6.3227    5.5172 H         1 <0>         0.0000
     40 H12         1.3270   -5.9466    6.3981 H         1 <0>         0.0000
     41 H13        -2.8863   -8.5494    2.0499 H         1 <0>         0.0000
     42 H14        -1.6339   -9.3292    1.0318 H         1 <0>         0.0000
     43 H15        -2.4195   -7.8126    0.4974 H         1 <0>         0.0000
     44 H16         2.8840   -8.1329    3.8797 H         1 <0>         0.0000
     45 H17         1.9928   -9.3403    4.8052 H         1 <0>         0.0000
     46 H18         0.2790   -9.4310    2.9641 H         1 <0>         0.0000
     47 H19         0.8304   -6.6229    4.0481 H         1 <0>         0.0000
     48 H20         3.7733   -2.8387    0.3648 H         1 <0>         0.0000
     49 H21         2.2538  -10.7542    3.0168 H         1 <0>         0.0000
@<TRIPOS>BOND
     1    1    6 1
     2    1   22 3
     3    2    3 ar
     4    2    9 ar
     5    2   29 1
     6    3   10 ar
     7    3   30 1
     8    4    6 ar
     9    4    8 ar
    10    4   31 1
    11    5    6 ar
    12    5   12 ar
    13    5   32 1
    14    7   10 ar
    15    7   13 ar
    16    7   14 1
    17    8   11 ar
    18    8   15 1
    19    9   13 ar
    20    9   20 1
    21   10   24 1
    22   11   12 ar
    23   11   24 1
    24   12   26 1
    25   13   28 1
    26   14   23 2
    27   14   25 1
    28   15   25 1
    29   15   33 1
    30   15   34 1
    31   16   21 1
    32   16   35 1
    33   16   36 1
    34   16   37 1
    35   17   21 1
    36   17   38 1
    37   17   39 1
    38   17   40 1
    39   18   28 1
    40   18   41 1
    41   18   42 1
    42   18   43 1
    43   19   20 1
    44   19   21 1
    45   19   44 1
    46   19   45 1
    47   20   27 1
    48   20   46 1
    49   21   47 1
    50   26   48 1
    51   27   49 1
