@<TRIPOS>MOLECULE
*****
   39    41     0     0     0
SMALL
NO_CHARGES

@<TRIPOS>ATOM
      1 C1         -0.2624    1.9790   -0.7259 C.1       1 <0>         0.0000
      2 C2          1.6509   -3.4124   -4.9483 C.ar      1 <0>         0.0000
      3 C3          0.8600   -4.1027   -4.0238 C.ar      1 <0>         0.0000
      4 C4          1.6633   -2.0134   -4.9366 C.ar      1 <0>         0.0000
      5 C5          0.0893   -3.3966   -3.0949 C.ar      1 <0>         0.0000
      6 C6          0.8909   -1.3128   -4.0057 C.ar      1 <0>         0.0000
      7 C7          1.2855   -3.1157    2.7065 C.2       1 <0>         0.0000
      8 C8          2.3692   -1.4286    2.0703 C.2       1 <0>         0.0000
      9 C9          0.0936   -1.9944   -3.0741 C.ar      1 <0>         0.0000
     10 C10        -2.6452    1.1460   -0.5889 C.3       1 <0>         0.0000
     11 C11        -2.3045    1.7369    0.7465 C.3       1 <0>         0.0000
     12 C12        -1.2050    1.0866   -0.0919 C.3       1 <0>         0.0000
     13 C13        -0.6950   -1.2311   -2.0344 C.3       1 <0>         0.0000
     14 C14         0.1605   -0.9558   -0.7868 C.3       1 <0>         0.0000
     15 C15         0.3653    0.0510    1.5331 C.3       1 <0>         0.0000
     16 C16        -0.5960   -0.2555    0.3581 C.3       1 <0>         0.0000
     17 N1          0.5183    2.6831   -1.2282 N.1       1 <0>         0.0000
     18 N2          2.5563   -2.6663    2.5153 N.2       1 <0>         0.0000
     19 N3          0.3340   -2.2322    2.4140 N.2       1 <0>         0.0000
     20 N4          1.0500   -1.1430    2.0075 N.pl3     1 <0>         0.0000
     21 O1         -1.6852   -1.0521    0.8163 O.3       1 <0>         0.0000
     22 H1          2.2491   -3.9591   -5.6728 H         1 <0>         0.0000
     23 H2          0.8413   -5.1898   -4.0282 H         1 <0>         0.0000
     24 H3          2.2722   -1.4685   -5.6539 H         1 <0>         0.0000
     25 H4         -0.5259   -3.9395   -2.3797 H         1 <0>         0.0000
     26 H5          0.9045   -0.2244   -4.0015 H         1 <0>         0.0000
     27 H6          1.0485   -4.1075    3.0689 H         1 <0>         0.0000
     28 H7          3.1397   -0.7216    1.7904 H         1 <0>         0.0000
     29 H8         -3.1703    0.1987   -0.5973 H         1 <0>         0.0000
     30 H9         -2.8491    1.8143   -1.4188 H         1 <0>         0.0000
     31 H10        -2.2762    2.8164    0.8506 H         1 <0>         0.0000
     32 H11        -2.6085    1.1792    1.6255 H         1 <0>         0.0000
     33 H12        -1.0405   -0.2846   -2.4606 H         1 <0>         0.0000
     34 H13        -1.5828   -1.7968   -1.7365 H         1 <0>         0.0000
     35 H14         1.0321   -0.3562   -1.0725 H         1 <0>         0.0000
     36 H15         0.5467   -1.9080   -0.4084 H         1 <0>         0.0000
     37 H16        -0.2060    0.4829    2.3589 H         1 <0>         0.0000
     38 H17         1.1318    0.7648    1.2242 H         1 <0>         0.0000
     39 H18        -1.3126   -1.7465    1.3997 H         1 <0>         0.0000
@<TRIPOS>BOND
     1    1   12 1
     2    1   17 3
     3    2    4 ar
     4    2    3 ar
     5    2   22 1
     6    3    5 ar
     7    3   23 1
     8    4    6 ar
     9    4   24 1
    10    5    9 ar
    11    5   25 1
    12    6    9 ar
    13    6   26 1
    14    7   18 1
    15    7   19 2
    16    7   27 1
    17    8   18 2
    18    8   20 1
    19    8   28 1
    20    9   13 1
    21   10   11 1
    22   10   12 1
    23   10   29 1
    24   10   30 1
    25   11   12 1
    26   11   31 1
    27   11   32 1
    28   12   16 1
    29   13   14 1
    30   13   33 1
    31   13   34 1
    32   14   16 1
    33   14   35 1
    34   14   36 1
    35   15   16 1
    36   15   20 1
    37   15   37 1
    38   15   38 1
    39   16   21 1
    40   19   20 1
    41   21   39 1
