@<TRIPOS>MOLECULE
*****
   17    17     0     0     0
SMALL
NO_CHARGES

@<TRIPOS>ATOM
      1 C1          0.2265   -0.4197    0.9733 C.ar      1 <0>         0.0000
      2 C2         -0.6317   -1.3224    1.5803 C.ar      1 <0>         0.0000
      3 C3          1.3879   -0.0684    1.6522 C.ar      1 <0>         0.0000
      4 C4          1.6520   -0.6227    2.8997 C.ar      1 <0>         0.0000
      5 C5          0.7299   -1.5161    3.4206 C.ar      1 <0>         0.0000
      6 C6          2.2943    0.8798    1.0162 C.2       1 <0>         0.0000
      7 C7          0.9440   -2.1563    4.7544 C.3       1 <0>         0.0000
      8 N1         -0.4092   -1.8816    2.7908 N.ar      1 <0>         0.0000
      9 O1          3.4693    0.6523    0.7182 O.2       1 <0>         0.0000
     10 O2          1.7008    2.0791    0.7734 O.3       1 <0>         0.0000
     11 F1          2.1024   -1.7703    5.3636 F         1 <0>         0.0000
     12 F2         -0.0440   -1.8806    5.6542 F         1 <0>         0.0000
     13 F3          1.0035   -3.5164    4.6766 F         1 <0>         0.0000
     14 Cl1         3.0843   -0.2101    3.7715 Cl        1 <0>         0.0000
     15 H1         -0.0114   -0.0068   -0.0015 H         1 <0>         0.0000
     16 H2         -1.5510   -1.6288    1.0921 H         1 <0>         0.0000
     17 H3          2.3026    2.7243    0.3444 H         1 <0>         0.0000
@<TRIPOS>BOND
     1    1    2 ar
     2    1    3 ar
     3    1   15 1
     4    2    8 ar
     5    2   16 1
     6    3    4 ar
     7    3    6 1
     8    4    5 ar
     9    4   14 1
    10    5    7 1
    11    5    8 ar
    12    6    9 2
    13    6   10 1
    14    7   11 1
    15    7   12 1
    16    7   13 1
    17   10   17 1
