@<TRIPOS>MOLECULE
*****
   74    78     0     0     0
SMALL
NO_CHARGES

@<TRIPOS>ATOM
      1 C1          4.3545   -0.5824   -3.2647 C.ar      1 <0>         0.0000
      2 C2          4.3945   -1.2195   -2.0188 C.ar      1 <0>         0.0000
      3 C3          3.3112    0.3054   -3.5472 C.ar      1 <0>         0.0000
      4 C4          2.4093  -16.8596   -7.0124 C.ar      1 <0>         0.0000
      5 C5          1.2002  -17.3814   -7.4795 C.ar      1 <0>         0.0000
      6 C6          3.3985   -0.9783   -1.0724 C.ar      1 <0>         0.0000
      7 C7          2.3202    0.5522   -2.5935 C.ar      1 <0>         0.0000
      8 C8          0.9234   -3.2307    0.9894 C.ar      1 <0>         0.0000
      9 C9          0.6487   -2.6991   -1.3380 C.ar      1 <0>         0.0000
     10 C10        -1.5053   -1.0993    1.6169 C.ar      1 <0>         0.0000
     11 C11         1.0451   -4.5794    0.6751 C.ar      1 <0>         0.0000
     12 C12         0.7601   -4.0515   -1.6720 C.ar      1 <0>         0.0000
     13 C13        -2.3683   -0.7992    2.6701 C.ar      1 <0>         0.0000
     14 C14         2.4901  -15.4929   -6.7500 C.ar      1 <0>         0.0000
     15 C15        -0.7099    0.7320    3.5504 C.ar      1 <0>         0.0000
     16 C16         0.1288  -16.5034   -7.6625 C.ar      1 <0>         0.0000
     17 C17         0.7415   -2.2568   -0.0117 C.ar      1 <0>         0.0000
     18 C18         2.3377   -0.0944   -1.3448 C.ar      1 <0>         0.0000
     19 C19        -0.2498   -0.4845    1.4936 C.ar      1 <0>         0.0000
     20 C20         0.1538    0.4364    2.4933 C.ar      1 <0>         0.0000
     21 C21         0.9692   -5.0010   -0.6621 C.ar      1 <0>         0.0000
     22 C22        -1.9675    0.1267    3.6404 C.ar      1 <0>         0.0000
     23 C23         1.3565  -14.6923   -6.9616 C.ar      1 <0>         0.0000
     24 C24         0.6365   -0.8177    0.3464 C.2       1 <0>         0.0000
     25 C25         1.2877    0.1704   -0.3280 C.2       1 <0>         0.0000
     26 C26         1.5252    1.0693    2.4312 C.3       1 <0>         0.0000
     27 C27         0.9885    1.6230   -0.0022 C.3       1 <0>         0.0000
     28 C28         1.6746    2.1002    1.2936 C.3       1 <0>         0.0000
     29 C29         1.3837  -13.2176   -6.6710 C.3       1 <0>         0.0000
     30 C30         1.2624   -8.9483   -3.5880 C.3       1 <0>         0.0000
     31 C31         1.2642   -8.3331   -2.1841 C.3       1 <0>         0.0000
     32 C32         1.4566  -10.4698   -3.5589 C.3       1 <0>         0.0000
     33 C33         1.0605   -6.8257   -2.2202 C.3       1 <0>         0.0000
     34 C34         1.4632  -11.0749   -4.9609 C.3       1 <0>         0.0000
     35 N1          0.1935  -15.1888   -7.4117 N.ar      1 <0>         0.0000
     36 O1          0.3089  -13.3732   -4.1625 O.2       1 <0>         0.0000
     37 O2         -2.7613    0.4705    4.7096 O.3       1 <0>         0.0000
     38 O3          1.1005   -6.3474   -0.8742 O.3       1 <0>         0.0000
     39 S1          1.5846  -12.9140   -4.8424 S.o       1 <0>         0.0000
     40 H1          5.1292   -0.7714   -4.0035 H         1 <0>         0.0000
     41 H2          5.2056   -1.9043   -1.7833 H         1 <0>         0.0000
     42 H3          3.2678    0.8059   -4.5116 H         1 <0>         0.0000
     43 H4          3.2702  -17.5043   -6.8550 H         1 <0>         0.0000
     44 H5          1.0857  -18.4394   -7.6971 H         1 <0>         0.0000
     45 H6          3.4333   -1.4806   -0.1105 H         1 <0>         0.0000
     46 H7          1.5087    1.2351   -2.8325 H         1 <0>         0.0000
     47 H8          0.9778   -2.9201    2.0294 H         1 <0>         0.0000
     48 H9          0.4894   -1.9737   -2.1296 H         1 <0>         0.0000
     49 H10        -1.8125   -1.8248    0.8690 H         1 <0>         0.0000
     50 H11         1.1987   -5.3263    1.4488 H         1 <0>         0.0000
     51 H12         0.6804   -4.3465   -2.7121 H         1 <0>         0.0000
     52 H13        -3.3417   -1.2831    2.7374 H         1 <0>         0.0000
     53 H14         3.4111  -15.0498   -6.3797 H         1 <0>         0.0000
     54 H15        -0.4127    1.4301    4.3286 H         1 <0>         0.0000
     55 H16        -0.8293  -16.8714   -8.0264 H         1 <0>         0.0000
     56 H17         1.7652    1.5384    3.3904 H         1 <0>         0.0000
     57 H18         2.2630    0.2752    2.2703 H         1 <0>         0.0000
     58 H19         1.3010    2.2698   -0.8264 H         1 <0>         0.0000
     59 H20        -0.0931    1.7483    0.1153 H         1 <0>         0.0000
     60 H21         1.2304    3.0585    1.5889 H         1 <0>         0.0000
     61 H22         2.7418    2.2793    1.1179 H         1 <0>         0.0000
     62 H23         2.2294  -12.7194   -7.1570 H         1 <0>         0.0000
     63 H24         0.4400  -12.7630   -6.9796 H         1 <0>         0.0000
     64 H25         0.3143   -8.7162   -4.0911 H         1 <0>         0.0000
     65 H26         2.0550   -8.4871   -4.1929 H         1 <0>         0.0000
     66 H27         0.4721   -8.7836   -1.5752 H         1 <0>         0.0000
     67 H28         2.2135   -8.5477   -1.6798 H         1 <0>         0.0000
     68 H29         2.3975  -10.7103   -3.0481 H         1 <0>         0.0000
     69 H30         0.6520  -10.9351   -2.9796 H         1 <0>         0.0000
     70 H31         0.0926   -6.5765   -2.6771 H         1 <0>         0.0000
     71 H32         1.8507   -6.3413   -2.8109 H         1 <0>         0.0000
     72 H33         0.5309  -10.8539   -5.4917 H         1 <0>         0.0000
     73 H34         2.3133  -10.7212   -5.5557 H         1 <0>         0.0000
     74 H35        -3.5955   -0.0217    4.6524 H         1 <0>         0.0000
@<TRIPOS>BOND
     1    1    3 ar
     2    1    2 ar
     3    1   40 1
     4    2    6 ar
     5    2   41 1
     6    3    7 ar
     7    3   42 1
     8    4    5 ar
     9    4   14 ar
    10    4   43 1
    11    5   16 ar
    12    5   44 1
    13    6   18 ar
    14    6   45 1
    15    7   18 ar
    16    7   46 1
    17    8   11 ar
    18    8   17 ar
    19    8   47 1
    20    9   12 ar
    21    9   17 ar
    22    9   48 1
    23   10   13 ar
    24   10   19 ar
    25   10   49 1
    26   11   21 ar
    27   11   50 1
    28   12   21 ar
    29   12   51 1
    30   13   22 ar
    31   13   52 1
    32   14   23 ar
    33   14   53 1
    34   15   20 ar
    35   15   22 ar
    36   15   54 1
    37   16   35 ar
    38   16   55 1
    39   17   24 1
    40   18   25 1
    41   19   20 ar
    42   19   24 1
    43   20   26 1
    44   21   38 1
    45   22   37 1
    46   23   29 1
    47   23   35 ar
    48   24   25 2
    49   25   27 1
    50   26   28 1
    51   26   56 1
    52   26   57 1
    53   27   28 1
    54   27   58 1
    55   27   59 1
    56   28   60 1
    57   28   61 1
    58   29   39 1
    59   29   62 1
    60   29   63 1
    61   30   31 1
    62   30   32 1
    63   30   64 1
    64   30   65 1
    65   31   33 1
    66   31   66 1
    67   31   67 1
    68   32   34 1
    69   32   68 1
    70   32   69 1
    71   33   38 1
    72   33   70 1
    73   33   71 1
    74   34   39 1
    75   34   72 1
    76   34   73 1
    77   36   39 2
    78   37   74 1
