@<TRIPOS>MOLECULE
*****
   50    52     0     0     0
SMALL
NO_CHARGES

@<TRIPOS>ATOM
      1 C1          1.5270    6.9627   -1.0461 C.ar      1 <0>         0.0000
      2 C2         -0.5307    6.2355   -0.0424 C.ar      1 <0>         0.0000
      3 C3          2.0181    7.3484    0.2033 C.ar      1 <0>         0.0000
      4 C4         -0.0601    6.6162    1.2159 C.ar      1 <0>         0.0000
      5 C5          0.2515    6.3979   -1.1974 C.ar      1 <0>         0.0000
      6 C6          1.2156    7.1703    1.3303 C.ar      1 <0>         0.0000
      7 C7         -3.4069    2.1847   -8.3191 C.3       1 <0>         0.0000
      8 C8         -1.8320    1.5358   -6.4770 C.3       1 <0>         0.0000
      9 C9         -3.0688    3.5961   -6.2703 C.3       1 <0>         0.0000
     10 C10        -1.6801    6.2393   -2.9305 C.3       1 <0>         0.0000
     11 C11        -0.2049    5.9586   -2.5692 C.3       1 <0>         0.0000
     12 C12        -2.1058    1.4455   -7.9821 C.3       1 <0>         0.0000
     13 C13        -3.4058    3.6145   -7.7645 C.3       1 <0>         0.0000
     14 C14        -0.0664    4.4456   -2.9035 C.3       1 <0>         0.0000
     15 C15        -0.9442    4.3876   -4.1670 C.3       1 <0>         0.0000
     16 C16        -2.1390   -0.0132   -8.4484 C.3       1 <0>         0.0000
     17 C17        -4.7398    4.3246   -8.0150 C.3       1 <0>         0.0000
     18 C18        -0.5302    3.5051   -1.7867 C.3       1 <0>         0.0000
     19 C19        -1.3873    2.9967   -4.6109 C.3       1 <0>         0.0000
     20 N1         -1.7877    2.9253   -6.0153 N.3       1 <0>         0.0000
     21 O1         -2.0851    5.2119   -3.8461 O.3       1 <0>         0.0000
     22 Cl1         1.8150    7.6528    2.9104 Cl        1 <0>         0.0000
     23 H1          2.1544    7.1061   -1.9231 H         1 <0>         0.0000
     24 H2         -1.5230    5.8009   -0.1100 H         1 <0>         0.0000
     25 H3          3.0073    7.7848    0.3005 H         1 <0>         0.0000
     26 H4         -0.6770    6.4840    2.0993 H         1 <0>         0.0000
     27 H5         -3.5641    2.1970   -9.4053 H         1 <0>         0.0000
     28 H6         -4.2549    1.6331   -7.8855 H         1 <0>         0.0000
     29 H7         -2.6077    0.9555   -5.9344 H         1 <0>         0.0000
     30 H8         -0.8669    1.0660   -6.2532 H         1 <0>         0.0000
     31 H9         -3.0134    4.6155   -5.8851 H         1 <0>         0.0000
     32 H10        -3.8895    3.0914   -5.7189 H         1 <0>         0.0000
     33 H11        -2.3445    6.1992   -2.0616 H         1 <0>         0.0000
     34 H12        -1.7950    7.2239   -3.3989 H         1 <0>         0.0000
     35 H13         0.4167    6.4868   -3.3004 H         1 <0>         0.0000
     36 H14        -1.2795    1.9601   -8.4905 H         1 <0>         0.0000
     37 H15        -2.6080    4.1761   -8.2692 H         1 <0>         0.0000
     38 H16         0.9749    4.2164   -3.1563 H         1 <0>         0.0000
     39 H17        -0.3968    4.8441   -5.0058 H         1 <0>         0.0000
     40 H18        -2.9442   -0.5676   -7.9513 H         1 <0>         0.0000
     41 H19        -1.1952   -0.5264   -8.2301 H         1 <0>         0.0000
     42 H20        -2.3114   -0.0758   -9.5286 H         1 <0>         0.0000
     43 H21        -5.5639    3.8020   -7.5146 H         1 <0>         0.0000
     44 H22        -4.9713    4.3613   -9.0855 H         1 <0>         0.0000
     45 H23        -4.7210    5.3541   -7.6397 H         1 <0>         0.0000
     46 H24        -1.5845    3.6608   -1.5376 H         1 <0>         0.0000
     47 H25         0.0591    3.6571   -0.8786 H         1 <0>         0.0000
     48 H26        -0.4125    2.4593   -2.0854 H         1 <0>         0.0000
     49 H27        -2.1799    2.6359   -3.9305 H         1 <0>         0.0000
     50 H28        -0.5271    2.3286   -4.4870 H         1 <0>         0.0000
@<TRIPOS>BOND
     1    1    3 ar
     2    1    5 ar
     3    1   23 1
     4    2    4 ar
     5    2    5 ar
     6    2   24 1
     7    3    6 ar
     8    3   25 1
     9    4    6 ar
    10    4   26 1
    11    5   11 1
    12    6   22 1
    13    7   12 1
    14    7   13 1
    15    7   27 1
    16    7   28 1
    17    8   12 1
    18    8   20 1
    19    8   29 1
    20    8   30 1
    21    9   13 1
    22    9   20 1
    23    9   31 1
    24    9   32 1
    25   10   11 1
    26   10   21 1
    27   10   33 1
    28   10   34 1
    29   11   14 1
    30   11   35 1
    31   12   16 1
    32   12   36 1
    33   13   17 1
    34   13   37 1
    35   14   15 1
    36   14   18 1
    37   14   38 1
    38   15   19 1
    39   15   21 1
    40   15   39 1
    41   16   40 1
    42   16   41 1
    43   16   42 1
    44   17   43 1
    45   17   44 1
    46   17   45 1
    47   18   46 1
    48   18   47 1
    49   18   48 1
    50   19   20 1
    51   19   49 1
    52   19   50 1
