@<TRIPOS>MOLECULE
*****
   28    29     0     0     0
SMALL
NO_CHARGES

@<TRIPOS>ATOM
      1 C1         -3.0938    2.0305    4.6593 C.ar      1 <0>         0.0000
      2 C2         -4.0381    2.4450    3.7169 C.ar      1 <0>         0.0000
      3 C3         -1.8275    1.6235    4.2370 C.ar      1 <0>         0.0000
      4 C4         -3.7074    2.4422    2.3604 C.ar      1 <0>         0.0000
      5 C5         -1.4560    1.6253    2.8837 C.ar      1 <0>         0.0000
      6 C6         -2.4322    2.0349    1.9634 C.ar      1 <0>         0.0000
      7 C7         -0.3739   -1.1966    2.1328 C.2       1 <0>         0.0000
      8 C8         -0.8015   -2.9578    3.3853 C.3       1 <0>         0.0000
      9 C9         -1.0177   -3.3360    1.8959 C.3       1 <0>         0.0000
     10 C10         0.8271    2.3149    1.9592 C.3       1 <0>         0.0000
     11 C11        -0.0397    1.1817    2.5210 C.3       1 <0>         0.0000
     12 N1         -0.4961   -1.5209    3.3681 N.2       1 <0>         0.0000
     13 N2          0.0007    0.0199    1.6292 N.pl3     1 <0>         0.0000
     14 O1         -0.5871   -2.1526    1.1701 O.3       1 <0>         0.0000
     15 Cl1        -2.1106    2.0423    0.2202 Cl        1 <0>         0.0000
     16 H1         -3.3446    2.0131    5.7163 H         1 <0>         0.0000
     17 H2         -5.0301    2.7618    4.0274 H         1 <0>         0.0000
     18 H3         -1.1028    1.2730    4.9665 H         1 <0>         0.0000
     19 H4         -4.4295    2.7514    1.6113 H         1 <0>         0.0000
     20 H5         -1.6929   -3.1542    3.9901 H         1 <0>         0.0000
     21 H6          0.0306   -3.5159    3.8328 H         1 <0>         0.0000
     22 H7         -0.4117   -4.1780    1.5543 H         1 <0>         0.0000
     23 H8         -2.0674   -3.5178    1.6461 H         1 <0>         0.0000
     24 H9          0.4597    2.6762    0.9960 H         1 <0>         0.0000
     25 H10         0.8324    3.1583    2.6557 H         1 <0>         0.0000
     26 H11         1.8534    1.9596    1.8284 H         1 <0>         0.0000
     27 H12         0.4173    0.8402    3.4512 H         1 <0>         0.0000
     28 H13        -0.2886    0.1767    0.6707 H         1 <0>         0.0000
@<TRIPOS>BOND
     1    1    2 ar
     2    1    3 ar
     3    1   16 1
     4    2    4 ar
     5    2   17 1
     6    3    5 ar
     7    3   18 1
     8    4    6 ar
     9    4   19 1
    10    5    6 ar
    11    5   11 1
    12    6   15 1
    13    7   12 2
    14    7   13 1
    15    7   14 1
    16    8    9 1
    17    8   12 1
    18    8   20 1
    19    8   21 1
    20    9   14 1
    21    9   22 1
    22    9   23 1
    23   10   11 1
    24   10   24 1
    25   10   25 1
    26   10   26 1
    27   11   13 1
    28   11   27 1
    29   13   28 1
