@<TRIPOS>MOLECULE
*****
   29    30     0     0     0
SMALL
NO_CHARGES

@<TRIPOS>ATOM
      1 C1          0.0240    5.9784    3.5814 C.ar      1 <0>         0.0000
      2 C2          0.3934    6.0415    2.2354 C.ar      1 <0>         0.0000
      3 C3          0.1461    4.7708    4.2788 C.ar      1 <0>         0.0000
      4 C4          0.8756    4.9025    1.5822 C.ar      1 <0>         0.0000
      5 C5          0.6329    3.6374    3.6262 C.ar      1 <0>         0.0000
      6 C6          0.9965    3.6907    2.2715 C.ar      1 <0>         0.0000
      7 C7         -0.7465    1.5427    0.9520 C.cat     1 <0>         0.0000
      8 C8         -2.9664    1.2897    0.3503 C.3       1 <0>         0.0000
      9 C9         -2.3480    2.5316   -0.3173 C.3       1 <0>         0.0000
     10 C10         2.1755    2.5885    0.2385 C.3       1 <0>         0.0000
     11 C11         1.5154    2.4237    1.6071 C.3       1 <0>         0.0000
     12 N1         -1.7570    0.6593    0.9112 N.pl3     1 <0>         0.0000
     13 N2          0.4224    1.3826    1.5400 N.pl3     1 <0>         0.0000
     14 O1         -1.0190    2.6575    0.3040 O.3       1 <0>         0.0000
     15 H1         -0.3450    6.8656    4.0882 H         1 <0>         0.0000
     16 H2          0.3127    6.9791    1.6925 H         1 <0>         0.0000
     17 H3         -0.1225    4.7180    5.3300 H         1 <0>         0.0000
     18 H4          1.1568    4.9732    0.5366 H         1 <0>         0.0000
     19 H5          0.7440    2.7078    4.1823 H         1 <0>         0.0000
     20 H6         -3.6714    1.5469    1.1457 H         1 <0>         0.0000
     21 H7         -3.4505    0.6295   -0.3704 H         1 <0>         0.0000
     22 H8         -2.1833    2.4060   -1.3880 H         1 <0>         0.0000
     23 H9         -2.8803    3.4592   -0.1173 H         1 <0>         0.0000
     24 H10         1.4819    2.9840   -0.5063 H         1 <0>         0.0000
     25 H11         2.5551    1.6273   -0.1177 H         1 <0>         0.0000
     26 H12         3.0194    3.2775    0.3228 H         1 <0>         0.0000
     27 H13         2.2400    1.9616    2.2826 H         1 <0>         0.0000
     28 H14        -1.7933   -0.1617    1.5040 H         1 <0>         0.0000
     29 H15         0.5797    0.5032    2.0188 H         1 <0>         0.0000
@<TRIPOS>BOND
     1    1    3 ar
     2    1    2 ar
     3    1   15 1
     4    2    4 ar
     5    2   16 1
     6    3    5 ar
     7    3   17 1
     8    4    6 ar
     9    4   18 1
    10    5    6 ar
    11    5   19 1
    12    6   11 1
    13    7   12 1
    14    7   13 2
    15    7   14 1
    16    8    9 1
    17    8   12 1
    18    8   20 1
    19    8   21 1
    20    9   14 1
    21    9   22 1
    22    9   23 1
    23   10   11 1
    24   10   24 1
    25   10   25 1
    26   10   26 1
    27   11   13 1
    28   11   27 1
    29   12   28 1
    30   13   29 1
