@<TRIPOS>MOLECULE
*****
   41    41     0     0     0
SMALL
NO_CHARGES

@<TRIPOS>ATOM
      1 C1          4.5830   -2.7848   -0.8807 C.3       1 <0>         0.0000
      2 C2          3.4623   -3.7110   -1.4278 C.3       1 <0>         0.0000
      3 C3          4.5936   -3.0572    0.6349 C.3       1 <0>         0.0000
      4 C4          2.8539   -4.3895   -0.1784 C.3       1 <0>         0.0000
      5 C5          1.3445   -4.6169   -0.2739 C.3       1 <0>         0.0000
      6 C6          0.6993   -5.1769    1.0029 C.3       1 <0>         0.0000
      7 C7          1.2610  -10.7601    4.7510 C.3       1 <0>         0.0000
      8 C8          0.7345   -9.3364    4.5308 C.3       1 <0>         0.0000
      9 C9          0.8013  -11.3194    6.1021 C.3       1 <0>         0.0000
     10 C10         1.2023   -6.5809    1.3502 C.3       1 <0>         0.0000
     11 C11         1.1898   -8.7785    3.1822 C.3       1 <0>         0.0000
     12 C12         1.3059  -12.7202    6.3668 C.3       1 <0>         0.0000
     13 N1          3.2064   -3.4581    0.9042 N.3       1 <0>         0.0000
     14 O1         -0.9197   -7.1673    2.8821 O.2       1 <0>         0.0000
     15 O2          1.1849   -6.2340    3.9937 O.2       1 <0>         0.0000
     16 F1          0.8774  -13.1838    7.5674 F         1 <0>         0.0000
     17 F2          2.6639  -12.7806    6.3791 F         1 <0>         0.0000
     18 F3          0.8810  -13.6033    5.4249 F         1 <0>         0.0000
     19 S1          0.5505   -7.0870    2.9687 S.o2      1 <0>         0.0000
     20 H1          5.5570   -2.9848   -1.3354 H         1 <0>         0.0000
     21 H2          4.3374   -1.7371   -1.0725 H         1 <0>         0.0000
     22 H3          2.6976   -3.1265   -1.9481 H         1 <0>         0.0000
     23 H4          3.8397   -4.4563   -2.1335 H         1 <0>         0.0000
     24 H5          5.3168   -3.8596    0.8668 H         1 <0>         0.0000
     25 H6          4.8649   -2.1777    1.2270 H         1 <0>         0.0000
     26 H7          3.3627   -5.3638   -0.0442 H         1 <0>         0.0000
     27 H8          0.8722   -3.6536   -0.4963 H         1 <0>         0.0000
     28 H9          1.1357   -5.2822   -1.1223 H         1 <0>         0.0000
     29 H10        -0.3870   -5.2157    0.8807 H         1 <0>         0.0000
     30 H11         0.8973   -4.4990    1.8384 H         1 <0>         0.0000
     31 H12         2.3557  -10.7623    4.7098 H         1 <0>         0.0000
     32 H13         0.9089  -11.4159    3.9472 H         1 <0>         0.0000
     33 H14        -0.3596   -9.3308    4.5691 H         1 <0>         0.0000
     34 H15         1.0906   -8.6774    5.3292 H         1 <0>         0.0000
     35 H16         1.1535  -10.6905    6.9253 H         1 <0>         0.0000
     36 H17        -0.2908  -11.3551    6.1588 H         1 <0>         0.0000
     37 H18         0.8686   -7.3237    0.6193 H         1 <0>         0.0000
     38 H19         2.2906   -6.6243    1.4418 H         1 <0>         0.0000
     39 H20         2.2802   -8.7164    3.1162 H         1 <0>         0.0000
     40 H21         0.8038   -9.3704    2.3470 H         1 <0>         0.0000
     41 H22         3.1138   -3.8863    1.8229 H         1 <0>         0.0000
@<TRIPOS>BOND
     1    1    2 1
     2    1    3 1
     3    1   20 1
     4    1   21 1
     5    2    4 1
     6    2   22 1
     7    2   23 1
     8    3   13 1
     9    3   24 1
    10    3   25 1
    11    4    5 1
    12    4   13 1
    13    4   26 1
    14    5    6 1
    15    5   27 1
    16    5   28 1
    17    6   10 1
    18    6   29 1
    19    6   30 1
    20    7    8 1
    21    7    9 1
    22    7   31 1
    23    7   32 1
    24    8   11 1
    25    8   33 1
    26    8   34 1
    27    9   12 1
    28    9   35 1
    29    9   36 1
    30   10   19 1
    31   10   37 1
    32   10   38 1
    33   11   19 1
    34   11   39 1
    35   11   40 1
    36   12   16 1
    37   12   17 1
    38   12   18 1
    39   13   41 1
    40   14   19 2
    41   15   19 2
