@<TRIPOS>MOLECULE
*****
   51    54     0     0     0
SMALL
NO_CHARGES

@<TRIPOS>ATOM
      1 C1          2.2631   -1.3910    7.0619 C.ar      1 <0>         0.0000
      2 C2          1.1811   -1.4943    6.1792 C.ar      1 <0>         0.0000
      3 C3          3.5463   -1.1651    6.5559 C.ar      1 <0>         0.0000
      4 C4          1.3823   -1.3768    4.8020 C.ar      1 <0>         0.0000
      5 C5          3.7444   -1.0448    5.1757 C.ar      1 <0>         0.0000
      6 C6          1.8520    2.3298    0.4296 C.ar      1 <0>         0.0000
      7 C7          0.0602    3.4058   -0.7955 C.ar      1 <0>         0.0000
      8 C8          1.2902    1.0722    0.1647 C.ar      1 <0>         0.0000
      9 C9          2.6684   -1.1542    4.2858 C.ar      1 <0>         0.0000
     10 C10        -0.5145    2.1673   -1.0783 C.ar      1 <0>         0.0000
     11 C11         0.1113    1.0004   -0.5889 C.ar      1 <0>         0.0000
     12 C12         1.2368    3.4811   -0.0434 C.ar      1 <0>         0.0000
     13 C13        -2.8792   -2.5514    0.0746 C.3       1 <0>         0.0000
     14 C14        -2.4350   -1.3685    0.9436 C.3       1 <0>         0.0000
     15 C15        -2.1305   -2.5554   -1.2644 C.3       1 <0>         0.0000
     16 C16        -0.9155   -1.3542    1.1546 C.3       1 <0>         0.0000
     17 C17        -0.6109   -2.5396   -1.0536 C.3       1 <0>         0.0000
     18 C18         1.3830   -1.4222   -0.0018 C.3       1 <0>         0.0000
     19 C19         1.9722   -0.1785    0.6798 C.3       1 <0>         0.0000
     20 C20        -0.1388   -1.3734   -0.1747 C.3       1 <0>         0.0000
     21 C21        -1.7796    2.0484   -1.8897 C.3       1 <0>         0.0000
     22 C22         2.8877   -1.0599    2.7905 C.3       1 <0>         0.0000
     23 N1          1.8492   -0.2533    2.1477 N.3       1 <0>         0.0000
     24 O1         -0.4867   -0.1776   -0.9346 O.3       1 <0>         0.0000
     25 Cl1         1.9492    5.0560    0.2960 Cl        1 <0>         0.0000
     26 H1          2.1057   -1.4805    8.1337 H         1 <0>         0.0000
     27 H2          0.1795   -1.6651    6.5665 H         1 <0>         0.0000
     28 H3          4.3917   -1.0760    7.2336 H         1 <0>         0.0000
     29 H4          0.5447   -1.4435    4.1139 H         1 <0>         0.0000
     30 H5          4.7451   -0.8617    4.7891 H         1 <0>         0.0000
     31 H6          2.7797    2.4010    0.9921 H         1 <0>         0.0000
     32 H7         -0.4070    4.3158   -1.1602 H         1 <0>         0.0000
     33 H8         -3.9616   -2.5153   -0.0959 H         1 <0>         0.0000
     34 H9         -2.6754   -3.4907    0.6084 H         1 <0>         0.0000
     35 H10        -2.7393   -0.4304    0.4642 H         1 <0>         0.0000
     36 H11        -2.9355   -1.4003    1.9184 H         1 <0>         0.0000
     37 H12        -2.4074   -3.4351   -1.8569 H         1 <0>         0.0000
     38 H13        -2.4196   -1.6740   -1.8479 H         1 <0>         0.0000
     39 H14        -0.6119   -0.4900    1.7472 H         1 <0>         0.0000
     40 H15        -0.6097   -2.2372    1.7306 H         1 <0>         0.0000
     41 H16        -0.2970   -3.4722   -0.5671 H         1 <0>         0.0000
     42 H17        -0.0914   -2.4871   -2.0168 H         1 <0>         0.0000
     43 H18         1.8302   -1.5181   -0.9983 H         1 <0>         0.0000
     44 H19         1.6518   -2.3226    0.5576 H         1 <0>         0.0000
     45 H20         3.0373   -0.1147    0.3927 H         1 <0>         0.0000
     46 H21        -1.6081    1.4665   -2.8016 H         1 <0>         0.0000
     47 H22        -2.5582    1.5238   -1.3261 H         1 <0>         0.0000
     48 H23        -2.1578    3.0341   -2.1724 H         1 <0>         0.0000
     49 H24         3.9057   -0.6816    2.5882 H         1 <0>         0.0000
     50 H25         2.8485   -2.0685    2.3608 H         1 <0>         0.0000
     51 H26         1.8689    0.6859    2.5390 H         1 <0>         0.0000
@<TRIPOS>BOND
     1    1    3 ar
     2    1    2 ar
     3    1   26 1
     4    2    4 ar
     5    2   27 1
     6    3    5 ar
     7    3   28 1
     8    4    9 ar
     9    4   29 1
    10    5    9 ar
    11    5   30 1
    12    6    8 ar
    13    6   12 ar
    14    6   31 1
    15    7   10 ar
    16    7   12 ar
    17    7   32 1
    18    8   11 ar
    19    8   19 1
    20    9   22 1
    21   10   11 ar
    22   10   21 1
    23   11   24 1
    24   12   25 1
    25   13   15 1
    26   13   14 1
    27   13   33 1
    28   13   34 1
    29   14   16 1
    30   14   35 1
    31   14   36 1
    32   15   17 1
    33   15   37 1
    34   15   38 1
    35   16   20 1
    36   16   39 1
    37   16   40 1
    38   17   20 1
    39   17   41 1
    40   17   42 1
    41   18   19 1
    42   18   20 1
    43   18   43 1
    44   18   44 1
    45   19   23 1
    46   19   45 1
    47   20   24 1
    48   21   46 1
    49   21   47 1
    50   21   48 1
    51   22   23 1
    52   22   49 1
    53   22   50 1
    54   23   51 1
