@<TRIPOS>MOLECULE
*****
   38    39     0     0     0
SMALL
NO_CHARGES

@<TRIPOS>ATOM
      1 C1          5.3957    0.4165    5.6781 C.ar      1 <0>         0.0000
      2 C2          5.0577    1.0894    4.5047 C.ar      1 <0>         0.0000
      3 C3          3.1932   -0.5834    5.7225 C.ar      1 <0>         0.0000
      4 C4          4.4621   -0.4261    6.3036 C.ar      1 <0>         0.0000
      5 C5          3.7960    0.9238    3.9243 C.ar      1 <0>         0.0000
      6 C6          2.8551    0.0677    4.5397 C.ar      1 <0>         0.0000
      7 C7          4.7506   -1.1694    7.5698 C.2       1 <0>         0.0000
      8 C8          0.2498   -0.7656    1.4228 C.3       1 <0>         0.0000
      9 C9          1.7375   -1.1584    1.1753 C.3       1 <0>         0.0000
     10 C10        -0.0972   -1.2912    2.8378 C.3       1 <0>         0.0000
     11 C11         2.1820   -1.9310    2.4385 C.3       1 <0>         0.0000
     12 C12         1.2508   -1.4235    3.5420 C.3       1 <0>         0.0000
     13 C13         6.0432    0.3481    9.1238 C.3       1 <0>         0.0000
     14 C14         2.4447    2.4744    2.7105 C.3       1 <0>         0.0000
     15 C15         6.0752   -0.9446    8.2850 C.3       1 <0>         0.0000
     16 O1          3.9132   -1.9263    8.0550 O.2       1 <0>         0.0000
     17 O2          1.6188   -0.0777    3.9571 O.3       1 <0>         0.0000
     18 O3          3.5477    1.5504    2.7301 O.3       1 <0>         0.0000
     19 H1          6.3857    0.5589    6.0979 H         1 <0>         0.0000
     20 H2          5.7665    1.7440    4.0060 H         1 <0>         0.0000
     21 H3          2.4780   -1.2352    6.2138 H         1 <0>         0.0000
     22 H4          0.1311    0.3206    1.3820 H         1 <0>         0.0000
     23 H5         -0.4200   -1.1873    0.6677 H         1 <0>         0.0000
     24 H6          1.8600   -1.7643    0.2729 H         1 <0>         0.0000
     25 H7          2.3536   -0.2648    1.0530 H         1 <0>         0.0000
     26 H8         -0.7790   -0.6405    3.3916 H         1 <0>         0.0000
     27 H9         -0.5548   -2.2852    2.7825 H         1 <0>         0.0000
     28 H10         2.0127   -3.0081    2.3214 H         1 <0>         0.0000
     29 H11         3.2386   -1.7929    2.6830 H         1 <0>         0.0000
     30 H12         1.2197   -2.0742    4.4222 H         1 <0>         0.0000
     31 H13         5.8870    1.2326    8.4990 H         1 <0>         0.0000
     32 H14         5.2336    0.3070    9.8588 H         1 <0>         0.0000
     33 H15         6.9867    0.4754    9.6637 H         1 <0>         0.0000
     34 H16         2.4390    2.9072    1.7084 H         1 <0>         0.0000
     35 H17         2.6054    3.2680    3.4503 H         1 <0>         0.0000
     36 H18         1.4988    1.9665    2.9078 H         1 <0>         0.0000
     37 H19         6.2298   -1.8061    8.9391 H         1 <0>         0.0000
     38 H20         6.9062   -0.9099    7.5735 H         1 <0>         0.0000
@<TRIPOS>BOND
     1    1    2 ar
     2    1    4 ar
     3    1   19 1
     4    2    5 ar
     5    2   20 1
     6    3    4 ar
     7    3    6 ar
     8    3   21 1
     9    4    7 1
    10    5    6 ar
    11    5   18 1
    12    6   17 1
    13    7   15 1
    14    7   16 2
    15    8    9 1
    16    8   10 1
    17    8   22 1
    18    8   23 1
    19    9   11 1
    20    9   24 1
    21    9   25 1
    22   10   12 1
    23   10   26 1
    24   10   27 1
    25   11   12 1
    26   11   28 1
    27   11   29 1
    28   12   17 1
    29   12   30 1
    30   13   15 1
    31   13   31 1
    32   13   32 1
    33   13   33 1
    34   14   18 1
    35   14   34 1
    36   14   35 1
    37   14   36 1
    38   15   37 1
    39   15   38 1
