@<TRIPOS>MOLECULE
*****
   24    24     0     0     0
SMALL
NO_CHARGES

@<TRIPOS>ATOM
      1 C1          2.0572   -0.9139   -0.1055 C.ar      1 <0>         0.0000
      2 C2          0.9287   -0.3479    0.4756 C.ar      1 <0>         0.0000
      3 C3          1.7890   -0.9478    2.6718 C.ar      1 <0>         0.0000
      4 C4          3.0969   -1.4732    0.6622 C.ar      1 <0>         0.0000
      5 C5          0.8082   -0.3709    1.8693 C.ar      1 <0>         0.0000
      6 C6          2.9283   -1.4769    2.0600 C.ar      1 <0>         0.0000
      7 C7          4.3274   -1.9832   -0.1363 C.2       1 <0>         0.0000
      8 N1         -0.1357    2.0316    2.6780 N.pl3     1 <0>         0.0000
      9 N2          5.4203   -1.2130    2.9995 N.pl3     1 <0>         0.0000
     10 O1          5.4628   -1.6743    0.3370 O.co2     1 <0>         0.0000
     11 O2          4.0464   -2.5764   -1.1958 O.co2     1 <0>         0.0000
     12 O3         -1.7579    0.3686    1.7182 O.2       1 <0>         0.0000
     13 O4         -0.7371   -0.1257    4.0055 O.2       1 <0>         0.0000
     14 O5          3.6091   -2.0401    4.5797 O.2       1 <0>         0.0000
     15 O6          4.3746   -3.6200    2.7728 O.2       1 <0>         0.0000
     16 S1         -0.6095    0.3862    2.6342 S.o2      1 <0>         0.0000
     17 S2          4.1085   -2.2404    3.2067 S.o2      1 <0>         0.0000
     18 H1          2.1657   -0.9533   -1.1845 H         1 <0>         0.0000
     19 H2          0.1414    0.0908   -0.1300 H         1 <0>         0.0000
     20 H3          1.6792   -0.9978    3.7502 H         1 <0>         0.0000
     21 H4         -0.9902    2.5902    2.6973 H         1 <0>         0.0000
     22 H5          0.4074    2.2009    3.5255 H         1 <0>         0.0000
     23 H6          6.1786   -1.5628    3.5890 H         1 <0>         0.0000
     24 H7          5.6657   -1.2894    1.9788 H         1 <0>         0.0000
@<TRIPOS>BOND
     1    1    2 ar
     2    1    4 ar
     3    1   18 1
     4    2    5 ar
     5    2   19 1
     6    3    5 ar
     7    3    6 ar
     8    3   20 1
     9    4    6 ar
    10    4    7 1
    11    5   16 1
    12    6   17 1
    13    7   10 1
    14    7   11 2
    15    8   16 1
    16    8   21 1
    17    8   22 1
    18    9   17 1
    19    9   23 1
    20    9   24 1
    21   12   16 2
    22   13   16 2
    23   14   17 2
    24   15   17 2
