@<TRIPOS>MOLECULE
*****
   40    40     0     0     0
SMALL
NO_CHARGES

@<TRIPOS>ATOM
      1 C1          8.7194   -1.2091   -1.2491 C.2       1 <0>         0.0000
      2 C2          7.2113   -0.7449    0.5099 C.2       1 <0>         0.0000
      3 C3          9.7757   -1.2726   -2.3259 C.2       1 <0>         0.0000
      4 C4          7.2977   -1.7441    8.2151 C.3       1 <0>         0.0000
      5 C5          9.0053   -0.0380   -5.9500 C.3       1 <0>         0.0000
      6 C6         11.3910   -0.6409   -6.5545 C.3       1 <0>         0.0000
      7 C7          6.6044   -0.9990    7.0693 C.3       1 <0>         0.0000
      8 C8          7.1575   -1.3811    5.6910 C.3       1 <0>         0.0000
      9 C9          6.4662   -0.6303    4.5446 C.3       1 <0>         0.0000
     10 C10        10.8339   -0.0488   -4.1828 C.3       1 <0>         0.0000
     11 C11         7.0367   -1.0285    3.1862 C.3       1 <0>         0.0000
     12 C12        10.3048   -0.6987   -5.4732 C.3       1 <0>         0.0000
     13 N1          7.9593   -2.2330   -0.9580 N.2       1 <0>         0.0000
     14 N2          7.0795   -1.9563    0.0560 N.2       1 <0>         0.0000
     15 N3          9.9066   -0.1233   -3.0540 N.am      1 <0>         0.0000
     16 O1         10.4633   -2.2728   -2.4845 O.2       1 <0>         0.0000
     17 O2          6.7037    1.3914    1.9973 O.2       1 <0>         0.0000
     18 S1          8.4314    0.2193   -0.2733 S.3       1 <0>         0.0000
     19 S2          6.2152   -0.0378    1.8568 S.o       1 <0>         0.0000
     20 H1          7.1767   -2.8286    8.1125 H         1 <0>         0.0000
     21 H2          8.3726   -1.5307    8.2323 H         1 <0>         0.0000
     22 H3          6.8844   -1.4529    9.1864 H         1 <0>         0.0000
     23 H4          9.1601    1.0270   -6.1666 H         1 <0>         0.0000
     24 H5          8.6414   -0.5118   -6.8674 H         1 <0>         0.0000
     25 H6          8.2077   -0.1228   -5.2038 H         1 <0>         0.0000
     26 H7         11.6418    0.3969   -6.8078 H         1 <0>         0.0000
     27 H8         11.0540   -1.1331   -7.4725 H         1 <0>         0.0000
     28 H9         12.3093   -1.1393   -6.2254 H         1 <0>         0.0000
     29 H10         6.7140    0.0833    7.2143 H         1 <0>         0.0000
     30 H11         5.5264   -1.2046    7.0963 H         1 <0>         0.0000
     31 H12         7.0477   -2.4636    5.5414 H         1 <0>         0.0000
     32 H13         8.2355   -1.1737    5.6622 H         1 <0>         0.0000
     33 H14         6.5893    0.4494    4.6836 H         1 <0>         0.0000
     34 H15         5.3886   -0.8368    4.5676 H         1 <0>         0.0000
     35 H16        11.7584   -0.5415   -3.8729 H         1 <0>         0.0000
     36 H17        11.0576    1.0099   -4.3562 H         1 <0>         0.0000
     37 H18         6.8556   -2.0796    2.9403 H         1 <0>         0.0000
     38 H19         8.1073   -0.8135    3.1133 H         1 <0>         0.0000
     39 H20        10.1001   -1.7504   -5.2421 H         1 <0>         0.0000
     40 H21         9.1729    0.5707   -2.9918 H         1 <0>         0.0000
@<TRIPOS>BOND
     1    1    3 1
     2    1   13 2
     3    1   18 1
     4    2   14 2
     5    2   18 1
     6    2   19 1
     7    3   15 am
     8    3   16 2
     9    4    7 1
    10    4   20 1
    11    4   21 1
    12    4   22 1
    13    5   12 1
    14    5   23 1
    15    5   24 1
    16    5   25 1
    17    6   12 1
    18    6   26 1
    19    6   27 1
    20    6   28 1
    21    7    8 1
    22    7   29 1
    23    7   30 1
    24    8    9 1
    25    8   31 1
    26    8   32 1
    27    9   11 1
    28    9   33 1
    29    9   34 1
    30   10   12 1
    31   10   15 1
    32   10   35 1
    33   10   36 1
    34   11   19 1
    35   11   37 1
    36   11   38 1
    37   12   39 1
    38   13   14 1
    39   15   40 1
    40   17   19 2
