@<TRIPOS>MOLECULE
*****
   15    15     0     0     0
SMALL
NO_CHARGES

@<TRIPOS>ATOM
      1 C1          1.3879   -0.0684    1.6522 C.ar      1 <0>         0.0000
      2 C2          1.6520   -0.6227    2.8997 C.ar      1 <0>         0.0000
      3 C3          0.2265   -0.4197    0.9733 C.ar      1 <0>         0.0000
      4 C4         -0.6317   -1.3224    1.5803 C.ar      1 <0>         0.0000
      5 C5          0.7299   -1.5161    3.4206 C.ar      1 <0>         0.0000
      6 C6         -0.0529    0.1763   -0.3634 C.3       1 <0>         0.0000
      7 N1         -0.4092   -1.8816    2.7908 N.ar      1 <0>         0.0000
      8 O1          0.1929   -0.7933   -1.3752 O.3       1 <0>         0.0000
      9 Cl1        -2.0979   -1.8357    0.8426 Cl        1 <0>         0.0000
     10 Br1         1.0695   -2.2852    5.1235 Br        1 <0>         0.0000
     11 H1          2.0923    0.6356    1.2181 H         1 <0>         0.0000
     12 H2          2.5571   -0.3515    3.4333 H         1 <0>         0.0000
     13 H3         -1.0970    0.5100   -0.4448 H         1 <0>         0.0000
     14 H4          0.5861    1.0506   -0.5510 H         1 <0>         0.0000
     15 H5         -0.0005   -0.3651   -2.2244 H         1 <0>         0.0000
@<TRIPOS>BOND
     1    1    2 ar
     2    1    3 ar
     3    1   11 1
     4    2    5 ar
     5    2   12 1
     6    3    4 ar
     7    3    6 1
     8    4    7 ar
     9    4    9 1
    10    5    7 ar
    11    5   10 1
    12    6    8 1
    13    6   13 1
    14    6   14 1
    15    8   15 1
