@<TRIPOS>MOLECULE
*****
   67    71     0     0     0
SMALL
NO_CHARGES

@<TRIPOS>ATOM
      1 C1         -4.5656    2.1376   -4.1747 C.ar      1 <0>         0.0000
      2 C2         -2.5663    3.3120   -4.8513 C.ar      1 <0>         0.0000
      3 C3         -4.8185    1.7935   -5.5035 C.ar      1 <0>         0.0000
      4 C4         -2.8186    2.9795   -6.1809 C.ar      1 <0>         0.0000
      5 C5         -4.5091    2.5124   -0.3601 C.ar      1 <0>         0.0000
      6 C6         -5.6391    2.7334    0.4612 C.ar      1 <0>         0.0000
      7 C7         -3.4422    2.9012   -3.8368 C.ar      1 <0>         0.0000
      8 C8         -3.9451    2.2157   -6.5078 C.ar      1 <0>         0.0000
      9 C9         -4.3275    3.3606   -1.4752 C.ar      1 <0>         0.0000
     10 C10        -6.5722    3.7044    0.0637 C.ar      1 <0>         0.0000
     11 C11        -5.2815    4.3665   -1.7392 C.ar      1 <0>         0.0000
     12 C12        -7.8837    3.9073    0.7893 C.3       1 <0>         0.0000
     13 C13        -2.1189   -0.4412   -0.7457 C.3       1 <0>         0.0000
     14 C14        -1.1842    0.7363   -0.4084 C.3       1 <0>         0.0000
     15 C15       -10.3159    2.0257    1.0932 C.3       1 <0>         0.0000
     16 C16        -3.4503    0.2410   -1.1000 C.3       1 <0>         0.0000
     17 C17        -2.0849    1.7755    0.3050 C.3       1 <0>         0.0000
     18 C18        -8.8884    1.5396    0.7210 C.3       1 <0>         0.0000
     19 C19        -9.6985    2.8463    2.2604 C.3       1 <0>         0.0000
     20 C20        -7.1264    2.3323    2.5112 C.3       1 <0>         0.0000
     21 C21        -3.5578    1.3701   -0.0405 C.3       1 <0>         0.0000
     22 C22        -5.8767    1.9172    1.7246 C.3       1 <0>         0.0000
     23 C23        -8.2958    2.6843    1.6055 C.3       1 <0>         0.0000
     24 C24        -4.9738    6.7946   -2.2446 C.3       1 <0>         0.0000
     25 C25        -6.3729    5.3415   -3.7918 C.3       1 <0>         0.0000
     26 C26        -3.1289    3.2197   -2.3862 C.3       1 <0>         0.0000
     27 C27        -5.1540    5.3932   -2.8566 C.3       1 <0>         0.0000
     28 C28        -4.2346    1.9031   -7.9507 C.3       1 <0>         0.0000
     29 N1         -6.3868    4.4954   -0.9990 N.ar      1 <0>         0.0000
     30 O1         -4.7086    2.0497    2.5663 O.3       1 <0>         0.0000
     31 F1         -2.3433    4.4026   -2.3296 F         1 <0>         0.0000
     32 F2         -5.0597    0.8368   -8.0918 F         1 <0>         0.0000
     33 F3         -4.8355    2.9482   -8.5838 F         1 <0>         0.0000
     34 F4         -3.1034    1.6308   -8.6500 F         1 <0>         0.0000
     35 H1         -5.2573    1.8225   -3.3999 H         1 <0>         0.0000
     36 H2         -1.6977    3.9101   -4.5965 H         1 <0>         0.0000
     37 H3         -5.6938    1.2034   -5.7553 H         1 <0>         0.0000
     38 H4         -2.1385    3.3066   -6.9618 H         1 <0>         0.0000
     39 H5         -7.7917    4.7741    1.4586 H         1 <0>         0.0000
     40 H6         -8.6381    4.1757    0.0434 H         1 <0>         0.0000
     41 H7         -1.7364   -1.0751   -1.5518 H         1 <0>         0.0000
     42 H8         -2.2529   -1.0775    0.1380 H         1 <0>         0.0000
     43 H9         -0.3278    0.4342    0.2021 H         1 <0>         0.0000
     44 H10        -0.7765    1.1558   -1.3364 H         1 <0>         0.0000
     45 H11       -11.0476    1.2583    1.3591 H         1 <0>         0.0000
     46 H12       -10.7511    2.6654    0.3207 H         1 <0>         0.0000
     47 H13        -3.4151    0.6186   -2.1250 H         1 <0>         0.0000
     48 H14        -4.3081   -0.4378   -1.0463 H         1 <0>         0.0000
     49 H15        -1.9607    1.7368    1.3902 H         1 <0>         0.0000
     50 H16        -1.8471    2.7994    0.0079 H         1 <0>         0.0000
     51 H17        -8.6724    0.5497    1.1374 H         1 <0>         0.0000
     52 H18        -8.6115    1.5403   -0.3378 H         1 <0>         0.0000
     53 H19       -10.0569    3.8709    2.4025 H         1 <0>         0.0000
     54 H20        -9.7652    2.3170    3.2169 H         1 <0>         0.0000
     55 H21        -7.3981    1.5215    3.2004 H         1 <0>         0.0000
     56 H22        -6.8675    3.2067    3.1216 H         1 <0>         0.0000
     57 H23        -3.9309    0.8845    0.8551 H         1 <0>         0.0000
     58 H24        -5.9853    0.8603    1.4351 H         1 <0>         0.0000
     59 H25        -5.8415    7.0594   -1.6333 H         1 <0>         0.0000
     60 H26        -4.8649    7.5423   -3.0378 H         1 <0>         0.0000
     61 H27        -4.0800    6.8330   -1.6139 H         1 <0>         0.0000
     62 H28        -7.2920    5.5473   -3.2370 H         1 <0>         0.0000
     63 H29        -6.4673    4.3577   -4.2631 H         1 <0>         0.0000
     64 H30        -6.2690    6.0870   -4.5876 H         1 <0>         0.0000
     65 H31        -2.4618    2.4466   -2.0178 H         1 <0>         0.0000
     66 H32        -4.2651    5.1814   -3.4483 H         1 <0>         0.0000
     67 H33        -4.8980    1.5860    3.3984 H         1 <0>         0.0000
@<TRIPOS>BOND
     1    1    3 ar
     2    1    7 ar
     3    1   35 1
     4    2    4 ar
     5    2    7 ar
     6    2   36 1
     7    3    8 ar
     8    3   37 1
     9    4    8 ar
    10    4   38 1
    11    5    6 ar
    12    5    9 ar
    13    5   21 1
    14    6   10 ar
    15    6   22 1
    16    7   26 1
    17    8   28 1
    18    9   11 ar
    19    9   26 1
    20   10   12 1
    21   10   29 ar
    22   11   27 1
    23   11   29 ar
    24   12   23 1
    25   12   39 1
    26   12   40 1
    27   13   14 1
    28   13   16 1
    29   13   41 1
    30   13   42 1
    31   14   17 1
    32   14   43 1
    33   14   44 1
    34   15   19 1
    35   15   18 1
    36   15   45 1
    37   15   46 1
    38   16   21 1
    39   16   47 1
    40   16   48 1
    41   17   21 1
    42   17   49 1
    43   17   50 1
    44   18   23 1
    45   18   51 1
    46   18   52 1
    47   19   23 1
    48   19   53 1
    49   19   54 1
    50   20   22 1
    51   20   23 1
    52   20   55 1
    53   20   56 1
    54   21   57 1
    55   22   30 1
    56   22   58 1
    57   24   27 1
    58   24   59 1
    59   24   60 1
    60   24   61 1
    61   25   27 1
    62   25   62 1
    63   25   63 1
    64   25   64 1
    65   26   31 1
    66   26   65 1
    67   27   66 1
    68   28   32 1
    69   28   33 1
    70   28   34 1
    71   30   67 1
