@<TRIPOS>MOLECULE
*****
   39    40     0     0     0
SMALL
NO_CHARGES

@<TRIPOS>ATOM
      1 C1         -2.3289    1.4293    3.5978 C.ar      1 <0>         0.0000
      2 C2         -2.7595    2.3086    4.5931 C.ar      1 <0>         0.0000
      3 C3         -0.7046    1.9596    5.7931 C.ar      1 <0>         0.0000
      4 C4         -1.0746    0.8102    3.6772 C.ar      1 <0>         0.0000
      5 C5         -1.9590    2.5903    5.7089 C.ar      1 <0>         0.0000
      6 C6         -0.2722    1.0982    4.7947 C.ar      1 <0>         0.0000
      7 C7         -0.6110   -0.0344    2.5242 C.2       1 <0>         0.0000
      8 C8         -2.1109    3.2964    8.2273 C.3       1 <0>         0.0000
      9 C9         -1.4795    4.4455    7.4936 C.3       1 <0>         0.0000
     10 C10        -2.4433    3.5234    6.7577 C.3       1 <0>         0.0000
     11 C11         4.2958    1.5470    2.7803 C.3       1 <0>         0.0000
     12 C12         4.2068    2.0256    5.2455 C.3       1 <0>         0.0000
     13 C13         4.3134   -0.3663    4.4166 C.3       1 <0>         0.0000
     14 C14         3.7802    1.0500    4.1397 C.3       1 <0>         0.0000
     15 N1          2.2834    1.0861    4.0017 N.pl3     1 <0>         0.0000
     16 O1          0.4354    0.1374    1.9330 O.2       1 <0>         0.0000
     17 O2          1.7523    0.5639    6.4342 O.2       1 <0>         0.0000
     18 O3          1.0870   -1.1514    4.6911 O.2       1 <0>         0.0000
     19 O4         -1.4844   -0.9803    2.1010 O.3       1 <0>         0.0000
     20 S1          1.3020    0.2512    5.0730 S.o2      1 <0>         0.0000
     21 H1         -2.9613    1.2528    2.7311 H         1 <0>         0.0000
     22 H2         -3.7324    2.7840    4.4975 H         1 <0>         0.0000
     23 H3         -0.0522    2.1130    6.6470 H         1 <0>         0.0000
     24 H4         -1.4928    2.4372    8.4694 H         1 <0>         0.0000
     25 H5         -2.8927    3.5085    8.9501 H         1 <0>         0.0000
     26 H6         -1.8238    5.4524    7.7094 H         1 <0>         0.0000
     27 H7         -0.4282    4.3742    7.2316 H         1 <0>         0.0000
     28 H8         -3.4278    3.9373    6.5592 H         1 <0>         0.0000
     29 H9          4.0165    0.8591    1.9744 H         1 <0>         0.0000
     30 H10         3.8902    2.5369    2.5493 H         1 <0>         0.0000
     31 H11         5.3872    1.6174    2.8013 H         1 <0>         0.0000
     32 H12         3.8332    1.7057    6.2191 H         1 <0>         0.0000
     33 H13         3.8182    3.0269    5.0362 H         1 <0>         0.0000
     34 H14         5.2998    2.0779    5.2893 H         1 <0>         0.0000
     35 H15         3.9889   -0.7304    5.3948 H         1 <0>         0.0000
     36 H16         3.9642   -1.0720    3.6572 H         1 <0>         0.0000
     37 H17         5.4084   -0.3575    4.4064 H         1 <0>         0.0000
     38 H18         1.9690    0.8355    3.0591 H         1 <0>         0.0000
     39 H19        -2.1854   -1.0947    2.7660 H         1 <0>         0.0000
@<TRIPOS>BOND
     1    1    2 ar
     2    1    4 ar
     3    1   21 1
     4    2    5 ar
     5    2   22 1
     6    3    5 ar
     7    3    6 ar
     8    3   23 1
     9    4    6 ar
    10    4    7 1
    11    5   10 1
    12    6   20 1
    13    7   16 2
    14    7   19 1
    15    8    9 1
    16    8   10 1
    17    8   24 1
    18    8   25 1
    19    9   10 1
    20    9   26 1
    21    9   27 1
    22   10   28 1
    23   11   14 1
    24   11   29 1
    25   11   30 1
    26   11   31 1
    27   12   14 1
    28   12   32 1
    29   12   33 1
    30   12   34 1
    31   13   14 1
    32   13   35 1
    33   13   36 1
    34   13   37 1
    35   14   15 1
    36   15   20 1
    37   15   38 1
    38   17   20 2
    39   18   20 2
    40   19   39 1
