@<TRIPOS>MOLECULE
*****
   49    49     0     0     0
SMALL
NO_CHARGES

@<TRIPOS>ATOM
      1 C1         -1.7797   -1.3878   -0.5978 C.2       1 <0>         0.0000
      2 C2         -4.4815   -3.4311   -0.0987 C.2       1 <0>         0.0000
      3 C3         -0.5374   -1.2566    0.2729 C.3       1 <0>         0.0000
      4 C4         -0.9616   -1.8480    1.6254 C.3       1 <0>         0.0000
      5 C5         -2.5031   -1.7101    1.6420 C.3       1 <0>         0.0000
      6 C6         -9.0092   -8.4836    1.5457 C.3       1 <0>         0.0000
      7 C7         -9.3471   -6.4886    0.0889 C.3       1 <0>         0.0000
      8 C8         -6.3156   -7.2387    3.4860 C.3       1 <0>         0.0000
      9 C9         -4.8218   -7.7062    1.4833 C.3       1 <0>         0.0000
     10 C10        -4.1565   -1.9399   -0.2906 C.3       1 <0>         0.0000
     11 C11        -6.1935   -5.1782   -0.4384 C.3       1 <0>         0.0000
     12 C12        -6.7122   -5.4832    0.9758 C.3       1 <0>         0.0000
     13 C13        -8.5884   -7.0270    1.3126 C.3       1 <0>         0.0000
     14 C14        -6.2637   -7.6723    2.0078 C.3       1 <0>         0.0000
     15 C15        -2.9661   -0.4854    2.4311 C.3       1 <0>         0.0000
     16 N1         -2.8602   -1.5966    0.2389 N.am      1 <0>         0.0000
     17 N2         -5.7040   -3.8040   -0.5612 N.am      1 <0>         0.0000
     18 N3         -7.1322   -6.8822    1.1077 N.3       1 <0>         0.0000
     19 O1         -1.8464   -1.3160   -1.8168 O.2       1 <0>         0.0000
     20 O2         -3.6935   -4.2147    0.4334 O.2       1 <0>         0.0000
     21 F1         -2.6523   -0.6130    3.7436 F         1 <0>         0.0000
     22 F2         -2.4039    0.6650    1.9890 F         1 <0>         0.0000
     23 F3         -4.3146   -0.3228    2.3576 F         1 <0>         0.0000
     24 H1          0.2966   -1.7805   -0.1964 H         1 <0>         0.0000
     25 H2         -0.2743   -0.1965    0.3420 H         1 <0>         0.0000
     26 H3         -0.7224   -2.9127    1.6648 H         1 <0>         0.0000
     27 H4         -0.4946   -1.3623    2.4836 H         1 <0>         0.0000
     28 H5         -2.9824   -2.5796    2.0967 H         1 <0>         0.0000
     29 H6         -8.6304   -9.1285    0.7449 H         1 <0>         0.0000
     30 H7         -8.6633   -8.8795    2.5038 H         1 <0>         0.0000
     31 H8        -10.1017   -8.5486    1.5441 H         1 <0>         0.0000
     32 H9         -9.0754   -7.0625   -0.8037 H         1 <0>         0.0000
     33 H10        -9.1350   -5.4338   -0.1062 H         1 <0>         0.0000
     34 H11       -10.4272   -6.5776    0.2452 H         1 <0>         0.0000
     35 H12        -5.9018   -6.2349    3.6306 H         1 <0>         0.0000
     36 H13        -7.3420   -7.2366    3.8677 H         1 <0>         0.0000
     37 H14        -5.7304   -7.9265    4.1062 H         1 <0>         0.0000
     38 H15        -4.3411   -6.7234    1.4946 H         1 <0>         0.0000
     39 H16        -4.8018   -8.0821    0.4556 H         1 <0>         0.0000
     40 H17        -4.2183   -8.3766    2.1047 H         1 <0>         0.0000
     41 H18        -4.1257   -1.7090   -1.3598 H         1 <0>         0.0000
     42 H19        -4.9403   -1.3274    0.1668 H         1 <0>         0.0000
     43 H20        -6.9800   -5.3324   -1.1804 H         1 <0>         0.0000
     44 H21        -5.3730   -5.8572   -0.6749 H         1 <0>         0.0000
     45 H22        -5.9102   -5.2425    1.6778 H         1 <0>         0.0000
     46 H23        -7.5340   -4.7981    1.2198 H         1 <0>         0.0000
     47 H24        -8.9154   -6.4402    2.1927 H         1 <0>         0.0000
     48 H25        -6.6271   -8.7003    1.9533 H         1 <0>         0.0000
     49 H26        -6.3078   -3.0991   -0.9635 H         1 <0>         0.0000
@<TRIPOS>BOND
     1    1    3 1
     2    1   16 am
     3    1   19 2
     4    2   10 1
     5    2   17 am
     6    2   20 2
     7    3    4 1
     8    3   24 1
     9    3   25 1
    10    4    5 1
    11    4   26 1
    12    4   27 1
    13    5   15 1
    14    5   16 1
    15    5   28 1
    16    6   13 1
    17    6   29 1
    18    6   30 1
    19    6   31 1
    20    7   13 1
    21    7   32 1
    22    7   33 1
    23    7   34 1
    24    8   14 1
    25    8   35 1
    26    8   36 1
    27    8   37 1
    28    9   14 1
    29    9   38 1
    30    9   39 1
    31    9   40 1
    32   10   16 1
    33   10   41 1
    34   10   42 1
    35   11   12 1
    36   11   17 1
    37   11   43 1
    38   11   44 1
    39   12   18 1
    40   12   45 1
    41   12   46 1
    42   13   18 1
    43   13   47 1
    44   14   18 1
    45   14   48 1
    46   15   21 1
    47   15   22 1
    48   15   23 1
    49   17   49 1
