@<TRIPOS>MOLECULE
*****
   75    79     0     0     0
SMALL
NO_CHARGES

@<TRIPOS>ATOM
      1 C1          3.6976   -3.5322   -3.5013 C.ar      1 <0>         0.0000
      2 C2         -5.1522  -17.7543    1.1518 C.ar      1 <0>         0.0000
      3 C3          3.8778   -3.5619   -2.1133 C.ar      1 <0>         0.0000
      4 C4          3.0036   -2.4647   -4.0802 C.ar      1 <0>         0.0000
      5 C5         -6.1614  -16.8229    0.8867 C.ar      1 <0>         0.0000
      6 C6         -3.8104  -17.3840    1.0082 C.ar      1 <0>         0.0000
      7 C7          3.3614   -2.5413   -1.3149 C.ar      1 <0>         0.0000
      8 C8          2.4957   -1.4390   -3.2786 C.ar      1 <0>         0.0000
      9 C9          0.9908   -2.4012    1.8085 C.ar      1 <0>         0.0000
     10 C10         0.2333   -2.7775   -0.4409 C.ar      1 <0>         0.0000
     11 C11        -0.2350    0.6469    1.5458 C.ar      1 <0>         0.0000
     12 C12        -5.8272  -15.5288    0.4777 C.ar      1 <0>         0.0000
     13 C13        -3.4764  -16.0919    0.5962 C.ar      1 <0>         0.0000
     14 C14         0.5301   -3.6584    2.1821 C.ar      1 <0>         0.0000
     15 C15        -0.2444   -4.0407   -0.0815 C.ar      1 <0>         0.0000
     16 C16        -0.5842    1.6965    2.3945 C.ar      1 <0>         0.0000
     17 C17         1.6876    2.5263    2.2517 C.ar      1 <0>         0.0000
     18 C18         0.8700   -1.9390    0.4836 C.ar      1 <0>         0.0000
     19 C19         2.6531   -1.4651   -1.8813 C.ar      1 <0>         0.0000
     20 C20         1.0598    0.5241    1.0187 C.ar      1 <0>         0.0000
     21 C21         2.0378    1.4783    1.3973 C.ar      1 <0>         0.0000
     22 C22        -4.4846  -15.1534    0.3223 C.ar      1 <0>         0.0000
     23 C23        -0.0887   -4.4919    1.2366 C.ar      1 <0>         0.0000
     24 C24         0.3842    2.6445    2.7451 C.ar      1 <0>         0.0000
     25 C25         1.3903   -0.5996    0.1018 C.2       1 <0>         0.0000
     26 C26         2.1168   -0.3739   -1.0279 C.2       1 <0>         0.0000
     27 C27         3.4602    1.3416    0.9042 C.3       1 <0>         0.0000
     28 C28         2.4596    1.0507   -1.4263 C.3       1 <0>         0.0000
     29 C29         3.6200    1.6415   -0.6004 C.3       1 <0>         0.0000
     30 C30        -4.1223  -13.7569   -0.0885 C.3       1 <0>         0.0000
     31 C31        -2.1864   -8.9017    0.6187 C.3       1 <0>         0.0000
     32 C32        -1.4892   -7.8781    1.5218 C.3       1 <0>         0.0000
     33 C33        -2.5313  -10.1985    1.3624 C.3       1 <0>         0.0000
     34 C34        -1.1388   -6.6008    0.7730 C.3       1 <0>         0.0000
     35 C35        -3.2310  -11.2109    0.4581 C.3       1 <0>         0.0000
     36 O1         -2.1247  -13.3314    1.6934 O.2       1 <0>         0.0000
     37 O2          0.1162    3.7044    3.5797 O.3       1 <0>         0.0000
     38 O3         -0.5103   -5.7106    1.6973 O.3       1 <0>         0.0000
     39 S1         -3.5110  -12.7853    1.3819 S.o       1 <0>         0.0000
     40 H1          4.0978   -4.3283   -4.1240 H         1 <0>         0.0000
     41 H2         -5.4097  -18.7616    1.4691 H         1 <0>         0.0000
     42 H3          4.4239   -4.3814   -1.6525 H         1 <0>         0.0000
     43 H4          2.8562   -2.4306   -5.1570 H         1 <0>         0.0000
     44 H5         -7.2058  -17.1033    0.9967 H         1 <0>         0.0000
     45 H6         -3.0225  -18.1020    1.2209 H         1 <0>         0.0000
     46 H7          3.5002   -2.5741   -0.2386 H         1 <0>         0.0000
     47 H8          1.9473   -0.6223   -3.7416 H         1 <0>         0.0000
     48 H9          1.4617   -1.7644    2.5528 H         1 <0>         0.0000
     49 H10         0.1101   -2.4409   -1.4655 H         1 <0>         0.0000
     50 H11        -0.9842   -0.0940    1.2811 H         1 <0>         0.0000
     51 H12        -6.6156  -14.8072    0.2730 H         1 <0>         0.0000
     52 H13        -2.4354  -15.7956    0.5071 H         1 <0>         0.0000
     53 H14         0.6376   -4.0174    3.2018 H         1 <0>         0.0000
     54 H15        -0.7305   -4.6542   -0.8315 H         1 <0>         0.0000
     55 H16        -1.5990    1.7748    2.7822 H         1 <0>         0.0000
     56 H17         2.4272    3.2618    2.5571 H         1 <0>         0.0000
     57 H18         4.1220    1.9923    1.4841 H         1 <0>         0.0000
     58 H19         3.7881    0.3114    1.0829 H         1 <0>         0.0000
     59 H20         2.7215    1.0966   -2.4867 H         1 <0>         0.0000
     60 H21         1.5781    1.6846   -1.2828 H         1 <0>         0.0000
     61 H22         3.6509    2.7245   -0.7706 H         1 <0>         0.0000
     62 H23         4.5787    1.2334   -0.9413 H         1 <0>         0.0000
     63 H24        -3.2913  -13.7376   -0.8000 H         1 <0>         0.0000
     64 H25        -4.9780  -13.2172   -0.5051 H         1 <0>         0.0000
     65 H26        -3.1025   -8.4613    0.2019 H         1 <0>         0.0000
     66 H27        -1.5399   -9.1385   -0.2369 H         1 <0>         0.0000
     67 H28        -2.1340   -7.6236    2.3710 H         1 <0>         0.0000
     68 H29        -0.5709   -8.3078    1.9379 H         1 <0>         0.0000
     69 H30        -1.6171  -10.6541    1.7575 H         1 <0>         0.0000
     70 H31        -3.1709   -9.9691    2.2239 H         1 <0>         0.0000
     71 H32        -2.0439   -6.1325    0.3610 H         1 <0>         0.0000
     72 H33        -0.4567   -6.8152   -0.0613 H         1 <0>         0.0000
     73 H34        -4.2081  -10.8489    0.1174 H         1 <0>         0.0000
     74 H35        -2.6122  -11.4582   -0.4116 H         1 <0>         0.0000
     75 H36        -0.8148    3.6636    3.8498 H         1 <0>         0.0000
@<TRIPOS>BOND
     1    1    4 ar
     2    1    3 ar
     3    1   40 1
     4    2    6 ar
     5    2    5 ar
     6    2   41 1
     7    3    7 ar
     8    3   42 1
     9    4    8 ar
    10    4   43 1
    11    5   12 ar
    12    5   44 1
    13    6   13 ar
    14    6   45 1
    15    7   19 ar
    16    7   46 1
    17    8   19 ar
    18    8   47 1
    19    9   14 ar
    20    9   18 ar
    21    9   48 1
    22   10   15 ar
    23   10   18 ar
    24   10   49 1
    25   11   16 ar
    26   11   20 ar
    27   11   50 1
    28   12   22 ar
    29   12   51 1
    30   13   22 ar
    31   13   52 1
    32   14   23 ar
    33   14   53 1
    34   15   23 ar
    35   15   54 1
    36   16   24 ar
    37   16   55 1
    38   17   21 ar
    39   17   24 ar
    40   17   56 1
    41   18   25 1
    42   19   26 1
    43   20   21 ar
    44   20   25 1
    45   21   27 1
    46   22   30 1
    47   23   38 1
    48   24   37 1
    49   25   26 2
    50   26   28 1
    51   27   29 1
    52   27   57 1
    53   27   58 1
    54   28   29 1
    55   28   59 1
    56   28   60 1
    57   29   61 1
    58   29   62 1
    59   30   39 1
    60   30   63 1
    61   30   64 1
    62   31   32 1
    63   31   33 1
    64   31   65 1
    65   31   66 1
    66   32   34 1
    67   32   67 1
    68   32   68 1
    69   33   35 1
    70   33   69 1
    71   33   70 1
    72   34   38 1
    73   34   71 1
    74   34   72 1
    75   35   39 1
    76   35   73 1
    77   35   74 1
    78   36   39 2
    79   37   75 1
