@<TRIPOS>MOLECULE
*****
   47    50     0     0     0
SMALL
NO_CHARGES

@<TRIPOS>ATOM
      1 C1         -2.4750   -2.3898   -4.4622 C.ar      1 <0>         0.0000
      2 C2         -1.9467   -2.2203   -5.7360 C.ar      1 <0>         0.0000
      3 C3         -0.6394    1.7598   -0.4850 C.ar      1 <0>         0.0000
      4 C4         -1.8984   -1.7524   -3.3583 C.ar      1 <0>         0.0000
      5 C5         -0.8546    2.7820    0.4375 C.ar      1 <0>         0.0000
      6 C6          0.9633    0.0450   -5.0567 C.2       1 <0>         0.0000
      7 C7          1.4175    0.1748   -6.3168 C.2       1 <0>         0.0000
      8 C8         -0.8194   -1.4027   -5.8943 C.ar      1 <0>         0.0000
      9 C9         -0.2073   -0.7634   -4.7898 C.ar      1 <0>         0.0000
     10 C10        -0.4627    0.4475   -0.0457 C.ar      1 <0>         0.0000
     11 C11        -0.5193    0.1176    1.3242 C.ar      1 <0>         0.0000
     12 C12        -0.7658   -0.9386   -3.4906 C.ar      1 <0>         0.0000
     13 C13        -0.7473    1.1486    2.2539 C.ar      1 <0>         0.0000
     14 C14        -0.9036    2.4686    1.7893 C.ar      1 <0>         0.0000
     15 C15        -0.2897   -1.2262   -7.2597 C.2       1 <0>         0.0000
     16 C16         0.9882   -1.7801    0.9109 C.3       1 <0>         0.0000
     17 C17        -0.2930   -1.3544    1.6580 C.3       1 <0>         0.0000
     18 C18        -0.2847   -0.6959   -1.0327 C.3       1 <0>         0.0000
     19 C19         0.8643   -1.6910   -0.6234 C.3       1 <0>         0.0000
     20 C20        -0.1858   -1.7690    3.1307 C.3       1 <0>         0.0000
     21 C21         2.2316   -1.2834   -1.2066 C.3       1 <0>         0.0000
     22 N1         -0.2275   -0.2389   -2.4063 N.pl3     1 <0>         0.0000
     23 O1         -0.7483   -1.7206   -8.2674 O.2       1 <0>         0.0000
     24 O2          0.8326   -0.4134   -7.3974 O.3       1 <0>         0.0000
     25 O3         -0.8214    0.8639    3.5878 O.3       1 <0>         0.0000
     26 O4          0.6056   -2.9607   -1.2209 O.3       1 <0>         0.0000
     27 F1          3.2440   -1.9708   -0.6366 F         1 <0>         0.0000
     28 F2          2.3216   -1.4782   -2.5365 F         1 <0>         0.0000
     29 F3          2.4646    0.0416   -0.9800 F         1 <0>         0.0000
     30 Cl1        -1.1811    3.7493    2.9720 Cl        1 <0>         0.0000
     31 H1         -3.3526   -3.0131   -4.3140 H         1 <0>         0.0000
     32 H2         -2.3815   -2.6952   -6.6082 H         1 <0>         0.0000
     33 H3         -0.6340    1.9806   -1.5457 H         1 <0>         0.0000
     34 H4         -2.3590   -1.8889   -2.3859 H         1 <0>         0.0000
     35 H5         -0.9914    3.8092    0.1153 H         1 <0>         0.0000
     36 H6          1.5262    0.5458   -4.2789 H         1 <0>         0.0000
     37 H7          2.2902    0.7511   -6.6023 H         1 <0>         0.0000
     38 H8          1.8004   -1.1401    1.2652 H         1 <0>         0.0000
     39 H9          1.2693   -2.8066    1.1664 H         1 <0>         0.0000
     40 H10        -1.1428   -1.9142    1.2351 H         1 <0>         0.0000
     41 H11        -1.1765   -1.3188   -0.9384 H         1 <0>         0.0000
     42 H12         0.6468   -1.2685    3.6312 H         1 <0>         0.0000
     43 H13        -0.0142   -2.8499    3.1814 H         1 <0>         0.0000
     44 H14        -1.0947   -1.5395    3.6867 H         1 <0>         0.0000
     45 H15         0.6119    0.2791   -2.6202 H         1 <0>         0.0000
     46 H16        -0.9798    1.6946    4.0721 H         1 <0>         0.0000
     47 H17         0.0432   -3.4721   -0.6188 H         1 <0>         0.0000
@<TRIPOS>BOND
     1    1    2 ar
     2    1    4 ar
     3    1   31 1
     4    2    8 ar
     5    2   32 1
     6    3    5 ar
     7    3   10 ar
     8    3   33 1
     9    4   12 ar
    10    4   34 1
    11    5   14 ar
    12    5   35 1
    13    6    9 1
    14    6    7 2
    15    6   36 1
    16    7   24 1
    17    7   37 1
    18    8    9 ar
    19    8   15 1
    20    9   12 ar
    21   10   11 ar
    22   10   18 1
    23   11   13 ar
    24   11   17 1
    25   12   22 1
    26   13   14 ar
    27   13   25 1
    28   14   30 1
    29   15   23 2
    30   15   24 1
    31   16   17 1
    32   16   19 1
    33   16   38 1
    34   16   39 1
    35   17   20 1
    36   17   40 1
    37   18   19 1
    38   18   22 1
    39   18   41 1
    40   19   21 1
    41   19   26 1
    42   20   42 1
    43   20   43 1
    44   20   44 1
    45   21   27 1
    46   21   28 1
    47   21   29 1
    48   22   45 1
    49   25   46 1
    50   26   47 1
