@<TRIPOS>MOLECULE
*****
   25    26     0     0     0
SMALL
NO_CHARGES

@<TRIPOS>ATOM
      1 C1          1.4530    1.0986    0.8544 C.ar      1 <0>         0.0000
      2 C2          0.0932    0.9635    0.5571 C.ar      1 <0>         0.0000
      3 C3          1.8695    1.8012    2.0021 C.ar      1 <0>         0.0000
      4 C4         -0.7962    1.5567    1.4551 C.ar      1 <0>         0.0000
      5 C5         -0.2490    2.2388    2.5702 C.ar      1 <0>         0.0000
      6 C6         -2.4761    2.3282    2.5667 C.2       1 <0>         0.0000
      7 C7         -3.8715    2.6617    3.0407 C.3       1 <0>         0.0000
      8 C8         -5.2262    2.3347   -0.2658 C.3       1 <0>         0.0000
      9 C9         -5.0163    3.1753    0.9855 C.3       1 <0>         0.0000
     10 N1          1.0341    2.3840    2.8797 N.ar      1 <0>         0.0000
     11 N2         -2.1856    1.6293    1.4899 N.2       1 <0>         0.0000
     12 N3         -1.3513    2.7264    3.2619 N.pl3     1 <0>         0.0000
     13 O1         -4.0379    1.7294   -0.7453 O.3       1 <0>         0.0000
     14 O2         -4.8589    2.2941    2.1154 O.3       1 <0>         0.0000
     15 H1          2.2049    0.6639    0.2026 H         1 <0>         0.0000
     16 H2         -0.2567    0.4299   -0.3220 H         1 <0>         0.0000
     17 H3          2.9306    1.8984    2.2216 H         1 <0>         0.0000
     18 H4         -4.0784    2.0978    3.9583 H         1 <0>         0.0000
     19 H5         -3.9214    3.7320    3.3000 H         1 <0>         0.0000
     20 H6         -5.6048    2.9831   -1.0647 H         1 <0>         0.0000
     21 H7         -6.0009    1.5831   -0.0472 H         1 <0>         0.0000
     22 H8         -5.8871    3.8202    1.1688 H         1 <0>         0.0000
     23 H9         -4.1282    3.8066    0.8592 H         1 <0>         0.0000
     24 H10        -1.3153    3.2684    4.1162 H         1 <0>         0.0000
     25 H11        -3.4851    1.4752    0.0256 H         1 <0>         0.0000
@<TRIPOS>BOND
     1    1    2 ar
     2    1    3 ar
     3    1   15 1
     4    2    4 ar
     5    2   16 1
     6    3   10 ar
     7    3   17 1
     8    4    5 ar
     9    4   11 1
    10    5   10 ar
    11    5   12 1
    12    6    7 1
    13    6   11 2
    14    6   12 1
    15    7   14 1
    16    7   18 1
    17    7   19 1
    18    8    9 1
    19    8   13 1
    20    8   20 1
    21    8   21 1
    22    9   14 1
    23    9   22 1
    24    9   23 1
    25   12   24 1
    26   13   25 1
