@<TRIPOS>MOLECULE
*****
   31    32     0     0     0
SMALL
NO_CHARGES

@<TRIPOS>ATOM
      1 C1         -4.5344   -6.0280    3.4519 C.1       1 <0>         0.0000
      2 C2         -3.3622   -4.4810    1.9375 C.ar      1 <0>         0.0000
      3 C3         -2.2188   -3.7495    1.6325 C.ar      1 <0>         0.0000
      4 C4         -0.8876    0.2025    0.9344 C.2       1 <0>         0.0000
      5 C5         -1.2231   -4.6237    3.6251 C.ar      1 <0>         0.0000
      6 C6         -0.8681   -0.7339    1.9455 C.2       1 <0>         0.0000
      7 C7          0.2171   -1.4693    0.1655 C.2       1 <0>         0.0000
      8 C8         -3.3591   -5.2588    3.1045 C.ar      1 <0>         0.0000
      9 C9         -1.1089   -3.8115    2.4857 C.ar      1 <0>         0.0000
     10 C10         3.2888   -1.7710    4.1535 C.3       1 <0>         0.0000
     11 C11         2.3527   -1.9809    2.9588 C.3       1 <0>         0.0000
     12 C12         1.0997   -2.7768    3.3398 C.3       1 <0>         0.0000
     13 C13         0.1692   -3.0484    2.1447 C.3       1 <0>         0.0000
     14 N1         -5.4991   -6.6328    3.6946 N.1       1 <0>         0.0000
     15 N2         -0.2079   -0.2661   -0.1719 N.2       1 <0>         0.0000
     16 N3         -2.3120   -5.3329    3.9402 N.ar      1 <0>         0.0000
     17 N4         -0.1564   -1.8089    1.4406 N.pl3     1 <0>         0.0000
     18 H1         -4.2399   -4.4543    1.2996 H         1 <0>         0.0000
     19 H2         -2.1928   -3.1250    0.7445 H         1 <0>         0.0000
     20 H3         -1.3517    1.1804    0.9416 H         1 <0>         0.0000
     21 H4         -0.4017   -4.7112    4.3305 H         1 <0>         0.0000
     22 H5         -1.2918   -0.7416    2.9395 H         1 <0>         0.0000
     23 H6          0.7986   -2.1379   -0.4577 H         1 <0>         0.0000
     24 H7          2.7856   -1.2213    4.9569 H         1 <0>         0.0000
     25 H8          3.6302   -2.7267    4.5673 H         1 <0>         0.0000
     26 H9          4.1744   -1.1975    3.8627 H         1 <0>         0.0000
     27 H10         2.8884   -2.5099    2.1596 H         1 <0>         0.0000
     28 H11         2.0601   -1.0107    2.5446 H         1 <0>         0.0000
     29 H12         0.5438   -2.2480    4.1235 H         1 <0>         0.0000
     30 H13         1.4069   -3.7376    3.7666 H         1 <0>         0.0000
     31 H14         0.7281   -3.6530    1.4200 H         1 <0>         0.0000
@<TRIPOS>BOND
     1    1    8 1
     2    1   14 3
     3    2    3 ar
     4    2    8 ar
     5    2   18 1
     6    3    9 ar
     7    3   19 1
     8    4    6 2
     9    4   15 1
    10    4   20 1
    11    5    9 ar
    12    5   16 ar
    13    5   21 1
    14    6   17 1
    15    6   22 1
    16    7   15 2
    17    7   17 1
    18    7   23 1
    19    8   16 ar
    20    9   13 1
    21   10   11 1
    22   10   24 1
    23   10   25 1
    24   10   26 1
    25   11   12 1
    26   11   27 1
    27   11   28 1
    28   12   13 1
    29   12   29 1
    30   12   30 1
    31   13   17 1
    32   13   31 1
