@<TRIPOS>MOLECULE
*****
   31    32     0     0     0
SMALL
NO_CHARGES

@<TRIPOS>ATOM
      1 C1         -4.7354   -6.4578    3.0016 C.1       1 <0>         0.0000
      2 C2         -2.5621   -5.6200    3.7866 C.ar      1 <0>         0.0000
      3 C3         -1.4218   -4.8481    3.5570 C.ar      1 <0>         0.0000
      4 C4         -1.3829    0.0023    1.1900 C.2       1 <0>         0.0000
      5 C5         -2.3634   -4.2494    1.4393 C.ar      1 <0>         0.0000
      6 C6         -1.3066   -1.0540    2.0717 C.2       1 <0>         0.0000
      7 C7         -0.1733   -1.4836    0.2225 C.2       1 <0>         0.0000
      8 C8         -3.5471   -5.6593    2.7940 C.ar      1 <0>         0.0000
      9 C9         -1.3023   -4.1409    2.3591 C.ar      1 <0>         0.0000
     10 C10         3.1202   -2.0577    3.8893 C.3       1 <0>         0.0000
     11 C11         2.1119   -2.2109    2.7459 C.3       1 <0>         0.0000
     12 C12         0.9125   -3.0771    3.1446 C.3       1 <0>         0.0000
     13 C13        -0.0905   -3.2874    1.9992 C.3       1 <0>         0.0000
     14 N1         -5.6750   -7.1131    3.2091 N.1       1 <0>         0.0000
     15 N2         -0.6722   -0.2758    0.0398 N.2       1 <0>         0.0000
     16 N3         -3.4567   -4.9855    1.6325 N.ar      1 <0>         0.0000
     17 N4         -0.5298   -2.0093    1.4382 N.pl3     1 <0>         0.0000
     18 H1         -2.6911   -6.1798    4.7075 H         1 <0>         0.0000
     19 H2         -0.6468   -4.8056    4.3146 H         1 <0>         0.0000
     20 H3         -1.9118    0.9382    1.3164 H         1 <0>         0.0000
     21 H4         -2.3233   -3.6995    0.5007 H         1 <0>         0.0000
     22 H5         -1.7358   -1.2194    3.0494 H         1 <0>         0.0000
     23 H6          0.4492   -2.0289   -0.4766 H         1 <0>         0.0000
     24 H7          2.6566   -1.5865    4.7635 H         1 <0>         0.0000
     25 H8          3.5174   -3.0291    4.2055 H         1 <0>         0.0000
     26 H9          3.9667   -1.4338    3.5860 H         1 <0>         0.0000
     27 H10         2.6085   -2.6577    1.8745 H         1 <0>         0.0000
     28 H11         1.7607   -1.2236    2.4292 H         1 <0>         0.0000
     29 H12         0.3995   -2.6231    4.0013 H         1 <0>         0.0000
     30 H13         1.2730   -4.0591    3.4729 H         1 <0>         0.0000
     31 H14         0.4381   -3.7950    1.1832 H         1 <0>         0.0000
@<TRIPOS>BOND
     1    1    8 1
     2    1   14 3
     3    2    3 ar
     4    2    8 ar
     5    2   18 1
     6    3    9 ar
     7    3   19 1
     8    4    6 2
     9    4   15 1
    10    4   20 1
    11    5    9 ar
    12    5   16 ar
    13    5   21 1
    14    6   17 1
    15    6   22 1
    16    7   15 2
    17    7   17 1
    18    7   23 1
    19    8   16 ar
    20    9   13 1
    21   10   11 1
    22   10   24 1
    23   10   25 1
    24   10   26 1
    25   11   12 1
    26   11   27 1
    27   11   28 1
    28   12   13 1
    29   12   29 1
    30   12   30 1
    31   13   17 1
    32   13   31 1
