@<TRIPOS>MOLECULE
*****
   32    33     0     0     0
SMALL
NO_CHARGES

@<TRIPOS>ATOM
      1 C1         -0.1564   -5.3530   -0.1255 C.2       1 <0>         0.0000
      2 C2          0.3003   -1.2810   -1.7652 C.2       1 <0>         0.0000
      3 C3         -0.4739   -6.3090   -1.1473 C.2       1 <0>         0.0000
      4 C4         -0.3133   -1.1600   -0.4846 C.2       1 <0>         0.0000
      5 C5          0.9348   -2.5318   -1.8043 C.2       1 <0>         0.0000
      6 C6         -1.1693   -5.4912    0.7867 C.2       1 <0>         0.0000
      7 C7          0.2711   -6.6080   -2.4123 C.3       1 <0>         0.0000
      8 C8         -1.1113   -0.0370    0.0946 C.3       1 <0>         0.0000
      9 C9          1.7337   -3.1764   -2.8894 C.3       1 <0>         0.0000
     10 C10        -1.4817   -4.8208    2.0797 C.3       1 <0>         0.0000
     11 C11         1.0039   -4.4057   -0.0679 C.3       1 <0>         0.0000
     12 N1         -0.0727   -2.2620    0.2165 N.2       1 <0>         0.0000
     13 N2         -1.5764   -6.9678   -0.8645 N.2       1 <0>         0.0000
     14 N3          0.6838   -3.0722   -0.5911 N.pl3     1 <0>         0.0000
     15 N4          0.2905   -0.3227   -2.8183 N.pl3     1 <0>         0.0000
     16 O1          0.8835   -0.6066   -3.8751 O.3       1 <0>         0.0000
     17 O2         -0.3116    0.7455   -2.6249 O.2       1 <0>         0.0000
     18 O3         -2.0235   -6.4475    0.3656 O.3       1 <0>         0.0000
     19 H1          1.3229   -6.8344   -2.2075 H         1 <0>         0.0000
     20 H2         -0.1774   -7.4678   -2.9137 H         1 <0>         0.0000
     21 H3          0.2386   -5.7542   -3.0961 H         1 <0>         0.0000
     22 H4         -1.9935    0.1688   -0.5176 H         1 <0>         0.0000
     23 H5         -1.4223   -0.3004    1.1078 H         1 <0>         0.0000
     24 H6         -0.5253    0.8857    0.1194 H         1 <0>         0.0000
     25 H7          2.5551   -2.5217   -3.1895 H         1 <0>         0.0000
     26 H8          2.1399   -4.1393   -2.5786 H         1 <0>         0.0000
     27 H9          1.1155   -3.3232   -3.7790 H         1 <0>         0.0000
     28 H10        -2.5189   -4.4727    2.0820 H         1 <0>         0.0000
     29 H11        -1.3588   -5.5159    2.9173 H         1 <0>         0.0000
     30 H12        -0.8323   -3.9564    2.2202 H         1 <0>         0.0000
     31 H13         1.3318   -4.2548    0.9623 H         1 <0>         0.0000
     32 H14         1.8538   -4.7987   -0.6262 H         1 <0>         0.0000
@<TRIPOS>BOND
     1    1    3 1
     2    1    6 2
     3    1   11 1
     4    2    4 1
     5    2    5 2
     6    2   15 1
     7    3    7 1
     8    3   13 2
     9    4    8 1
    10    4   12 2
    11    5    9 1
    12    5   14 1
    13    6   10 1
    14    6   18 1
    15    7   19 1
    16    7   20 1
    17    7   21 1
    18    8   22 1
    19    8   23 1
    20    8   24 1
    21    9   25 1
    22    9   26 1
    23    9   27 1
    24   10   28 1
    25   10   29 1
    26   10   30 1
    27   11   14 1
    28   11   31 1
    29   11   32 1
    30   12   14 1
    31   13   18 1
    32   15   16 1
    33   15   17 2
