@<TRIPOS>MOLECULE
*****
   23    24     0     0     0
SMALL
NO_CHARGES

@<TRIPOS>ATOM
      1 C1         -0.0333    0.2562   -2.3971 C.2       1 <0>         0.0000
      2 C2         -0.0997   -0.8442   -1.4934 C.2       1 <0>         0.0000
      3 C3         -1.2784    0.6894   -2.7831 C.2       1 <0>         0.0000
      4 C4         -1.3961   -1.2301   -1.2068 C.2       1 <0>         0.0000
      5 C5         -4.6092   -3.9797    0.9780 C.2       1 <0>         0.0000
      6 C6         -6.2542   -5.1136    1.8803 C.2       1 <0>         0.0000
      7 C7         -1.7986   -2.3072   -0.3304 C.2       1 <0>         0.0000
      8 N1         -5.7379   -3.4641    0.5280 N.2       1 <0>         0.0000
      9 N2         -6.7716   -4.1876    1.1149 N.2       1 <0>         0.0000
     10 N3         -3.0409   -2.5876   -0.1308 N.2       1 <0>         0.0000
     11 N4         -4.8591   -5.0229    1.8343 N.pl3     1 <0>         0.0000
     12 N5         -3.8595   -5.7684    2.4740 N.3       1 <0>         0.0000
     13 N6         -3.3161   -3.6165    0.7083 N.pl3     1 <0>         0.0000
     14 S1         -2.5519   -0.2329   -2.0546 S.3       1 <0>         0.0000
     15 S2         -7.0951   -6.2853    2.8934 S.3       1 <0>         0.0000
     16 H1          0.8913    0.7053   -2.7445 H         1 <0>         0.0000
     17 H2          0.7693   -1.3368   -1.0674 H         1 <0>         0.0000
     18 H3         -1.5208    1.5018   -3.4569 H         1 <0>         0.0000
     19 H4         -0.9860   -2.8684    0.1521 H         1 <0>         0.0000
     20 H5         -3.9683   -6.7498    2.2185 H         1 <0>         0.0000
     21 H6         -3.9921   -5.6956    3.4827 H         1 <0>         0.0000
     22 H7         -2.5801   -4.1515    1.1697 H         1 <0>         0.0000
     23 H8         -7.3229   -7.2097    1.9315 H         1 <0>         0.0000
@<TRIPOS>BOND
     1    1    2 1
     2    1    3 2
     3    1   16 1
     4    2    4 2
     5    2   17 1
     6    3   14 1
     7    3   18 1
     8    4    7 1
     9    4   14 1
    10    5    8 2
    11    5   11 1
    12    5   13 1
    13    6    9 2
    14    6   11 1
    15    6   15 1
    16    7   10 2
    17    7   19 1
    18    8    9 1
    19   10   13 1
    20   11   12 1
    21   12   20 1
    22   12   21 1
    23   13   22 1
    24   15   23 1
