@<TRIPOS>MOLECULE
*****
   23    24     0     0     0
SMALL
NO_CHARGES

@<TRIPOS>ATOM
      1 C1         -2.2529    0.4851   -3.7391 C.2       1 <0>         0.0000
      2 C2         -2.9047   -0.3886   -2.8250 C.2       1 <0>         0.0000
      3 C3         -1.1621   -0.0941   -4.3452 C.2       1 <0>         0.0000
      4 C4         -2.3033   -1.6308   -2.7446 C.2       1 <0>         0.0000
      5 C5         -4.8669   -3.8094    0.5780 C.2       1 <0>         0.0000
      6 C6         -6.6413   -3.3123    1.7410 C.2       1 <0>         0.0000
      7 C7         -2.6626   -2.7816   -1.9366 C.2       1 <0>         0.0000
      8 N1         -4.7098   -4.3360    1.7642 N.2       1 <0>         0.0000
      9 N2         -5.8574   -4.0291    2.5073 N.2       1 <0>         0.0000
     10 N3         -3.7211   -2.7831   -1.2021 N.2       1 <0>         0.0000
     11 N4         -6.0711   -3.1467    0.4883 N.pl3     1 <0>         0.0000
     12 N5         -6.6641   -2.4981   -0.6057 N.3       1 <0>         0.0000
     13 N6         -3.9978   -3.9429   -0.5010 N.pl3     1 <0>         0.0000
     14 S1         -0.9175   -1.7172   -3.8053 S.3       1 <0>         0.0000
     15 S2         -8.1934   -2.6294    2.2039 S.3       1 <0>         0.0000
     16 H1         -2.5708    1.5030   -3.9391 H         1 <0>         0.0000
     17 H2         -3.7732   -0.1219   -2.2332 H         1 <0>         0.0000
     18 H3         -0.4893    0.3411   -5.0729 H         1 <0>         0.0000
     19 H4         -1.9966   -3.6530   -1.9733 H         1 <0>         0.0000
     20 H5         -6.8797   -3.2027   -1.3129 H         1 <0>         0.0000
     21 H6         -5.9600   -1.8762   -1.0038 H         1 <0>         0.0000
     22 H7         -3.2065   -4.5469   -0.2718 H         1 <0>         0.0000
     23 H8         -8.3818   -2.0452    0.9993 H         1 <0>         0.0000
@<TRIPOS>BOND
     1    1    2 1
     2    1    3 2
     3    1   16 1
     4    2    4 2
     5    2   17 1
     6    3   14 1
     7    3   18 1
     8    4    7 1
     9    4   14 1
    10    5    8 2
    11    5   11 1
    12    5   13 1
    13    6    9 2
    14    6   11 1
    15    6   15 1
    16    7   10 2
    17    7   19 1
    18    8    9 1
    19   10   13 1
    20   11   12 1
    21   12   20 1
    22   12   21 1
    23   13   22 1
    24   15   23 1
