@<TRIPOS>MOLECULE
*****
   41    43     0     0     0
SMALL
NO_CHARGES

@<TRIPOS>ATOM
      1 C1         -2.4516    4.2413    5.4614 C.ar      1 <0>         0.0000
      2 C2         -1.9606    3.0208    5.9395 C.ar      1 <0>         0.0000
      3 C3         -1.8845    4.8109    4.3178 C.ar      1 <0>         0.0000
      4 C4         -0.9128    2.3750    5.2790 C.ar      1 <0>         0.0000
      5 C5         -0.8369    4.1608    3.6568 C.ar      1 <0>         0.0000
      6 C6         -0.3403    2.9380    4.1283 C.ar      1 <0>         0.0000
      7 C7          0.6308    0.7279    3.3106 C.2       1 <0>         0.0000
      8 C8          0.1755   -1.7043    0.9564 C.3       1 <0>         0.0000
      9 C9         -0.3016    1.2167    0.1431 C.3       1 <0>         0.0000
     10 C10        -0.4441   -1.1904    2.2662 C.3       1 <0>         0.0000
     11 C11        -1.0374    1.0977    1.4907 C.3       1 <0>         0.0000
     12 C12        -0.2261   -2.2663   -1.5117 C.3       1 <0>         0.0000
     13 C13        -0.6521   -1.3920   -0.3027 C.3       1 <0>         0.0000
     14 C14        -0.5658    0.0586   -0.8255 C.3       1 <0>         0.0000
     15 C15         0.8096    2.2430    3.4208 C.3       1 <0>         0.0000
     16 N1          0.9897   -1.6985   -2.1205 N.pl3     1 <0>         0.0000
     17 N2         -0.3312    0.2525    2.4474 N.am      1 <0>         0.0000
     18 O1          1.3133   -0.0273    4.0066 O.2       1 <0>         0.0000
     19 O2          2.0323    0.5982   -1.6366 O.2       1 <0>         0.0000
     20 O3          0.1944    0.4213   -3.3963 O.2       1 <0>         0.0000
     21 S1          0.7788    0.0027   -2.1215 S.o2      1 <0>         0.0000
     22 H1         -3.2669    4.7429    5.9760 H         1 <0>         0.0000
     23 H2         -2.3939    2.5723    6.8299 H         1 <0>         0.0000
     24 H3         -2.2561    5.7596    3.9389 H         1 <0>         0.0000
     25 H4         -0.5331    1.4287    5.6568 H         1 <0>         0.0000
     26 H5         -0.3996    4.6115    2.7677 H         1 <0>         0.0000
     27 H6          1.1998   -1.3237    0.8730 H         1 <0>         0.0000
     28 H7          0.2513   -2.7952    1.0443 H         1 <0>         0.0000
     29 H8         -0.6008    2.1455   -0.3541 H         1 <0>         0.0000
     30 H9          0.7707    1.3029    0.3378 H         1 <0>         0.0000
     31 H10        -1.5064   -1.4660    2.3041 H         1 <0>         0.0000
     32 H11         0.0575   -1.6559    3.1137 H         1 <0>         0.0000
     33 H12        -1.1789    2.0873    1.9218 H         1 <0>         0.0000
     34 H13        -2.0436    0.6859    1.3507 H         1 <0>         0.0000
     35 H14        -0.0237   -3.2989   -1.2201 H         1 <0>         0.0000
     36 H15        -1.0108   -2.2793   -2.2744 H         1 <0>         0.0000
     37 H16        -1.7027   -1.6121   -0.0782 H         1 <0>         0.0000
     38 H17        -1.4585    0.2651   -1.4213 H         1 <0>         0.0000
     39 H18         0.9705    2.6924    2.4362 H         1 <0>         0.0000
     40 H19         1.7331    2.3752    3.9900 H         1 <0>         0.0000
     41 H20         1.8213   -1.8919   -1.5615 H         1 <0>         0.0000
@<TRIPOS>BOND
     1    1    3 ar
     2    1    2 ar
     3    1   22 1
     4    2    4 ar
     5    2   23 1
     6    3    5 ar
     7    3   24 1
     8    4    6 ar
     9    4   25 1
    10    5    6 ar
    11    5   26 1
    12    6   15 1
    13    7   15 1
    14    7   17 am
    15    7   18 2
    16    8   10 1
    17    8   13 1
    18    8   27 1
    19    8   28 1
    20    9   11 1
    21    9   14 1
    22    9   29 1
    23    9   30 1
    24   10   17 1
    25   10   31 1
    26   10   32 1
    27   11   17 1
    28   11   33 1
    29   11   34 1
    30   12   13 1
    31   12   16 1
    32   12   35 1
    33   12   36 1
    34   13   14 1
    35   13   37 1
    36   14   21 1
    37   14   38 1
    38   15   39 1
    39   15   40 1
    40   16   21 1
    41   16   41 1
    42   19   21 2
    43   20   21 2
