@<TRIPOS>MOLECULE
*****
   21    22     0     0     0
SMALL
NO_CHARGES

@<TRIPOS>ATOM
      1 C1         -0.6764    3.3582    1.8869 C.ar      1 <0>         0.0000
      2 C2         -0.4866    3.2104    3.2645 C.ar      1 <0>         0.0000
      3 C3          0.0657    1.0406    1.5002 C.ar      1 <0>         0.0000
      4 C4         -0.3987    2.2859    1.0514 C.ar      1 <0>         0.0000
      5 C5         -0.0275    1.9955    3.7521 C.ar      1 <0>         0.0000
      6 C6          0.2413    0.9359    2.8846 C.ar      1 <0>         0.0000
      7 C7          1.3280    0.1246   -0.6081 C.3       1 <0>         0.0000
      8 C8          0.1271   -0.1587   -1.5454 C.3       1 <0>         0.0000
      9 C9          0.3602   -0.1292    0.5908 C.3       1 <0>         0.0000
     10 N1         -0.7119   -0.5411   -0.3700 N.3       1 <0>         0.0000
     11 F1         -0.5929    2.4582   -0.2850 F         1 <0>         0.0000
     12 F2          0.1664    1.8214    5.0769 F         1 <0>         0.0000
     13 F3          0.6877   -0.2199    3.4198 F         1 <0>         0.0000
     14 H1         -1.0328    4.2904    1.4614 H         1 <0>         0.0000
     15 H2         -0.6893    4.0212    3.9566 H         1 <0>         0.0000
     16 H3          2.1401   -0.6031   -0.6662 H         1 <0>         0.0000
     17 H4          1.7430    1.1316   -0.6692 H         1 <0>         0.0000
     18 H5         -0.2251    0.7255   -2.0861 H         1 <0>         0.0000
     19 H6          0.2564   -0.9833   -2.2538 H         1 <0>         0.0000
     20 H7          0.6614   -0.9705    1.2171 H         1 <0>         0.0000
     21 H8         -1.5670    0.0030   -0.2856 H         1 <0>         0.0000
@<TRIPOS>BOND
     1    1    2 ar
     2    1    4 ar
     3    1   14 1
     4    2    5 ar
     5    2   15 1
     6    3    4 ar
     7    3    6 ar
     8    3    9 1
     9    4   11 1
    10    5    6 ar
    11    5   12 1
    12    6   13 1
    13    7    8 1
    14    7    9 1
    15    7   16 1
    16    7   17 1
    17    8   10 1
    18    8   18 1
    19    8   19 1
    20    9   10 1
    21    9   20 1
    22   10   21 1
