@<TRIPOS>MOLECULE
*****
   18    18     0     0     0
SMALL
NO_CHARGES

@<TRIPOS>ATOM
      1 C1          1.8765   -0.9411    0.0748 C.ar      1 <0>         0.0000
      2 C2          0.7490   -0.4677    0.7172 C.ar      1 <0>         0.0000
      3 C3          1.6287   -1.1754    2.8499 C.ar      1 <0>         0.0000
      4 C4          2.9396   -1.5565    0.7884 C.ar      1 <0>         0.0000
      5 C5          2.7815   -1.6610    2.2024 C.ar      1 <0>         0.0000
      6 C6          0.6235   -0.5850    2.1141 C.ar      1 <0>         0.0000
      7 N1          4.1199   -1.8877   -1.2791 N.3       1 <0>         0.0000
      8 N2          4.0413   -2.0091    0.1194 N.pl3     1 <0>         0.0000
      9 N3          3.7852   -2.2676    3.0512 N.pl3     1 <0>         0.0000
     10 O1          3.5822   -2.3233    4.2695 O.3       1 <0>         0.0000
     11 O2          4.8286   -2.7177    2.5222 O.2       1 <0>         0.0000
     12 Cl1        -0.8165    0.0231    2.9102 Cl        1 <0>         0.0000
     13 H1          1.9789   -0.8538   -0.9993 H         1 <0>         0.0000
     14 H2         -0.0456   -0.0023    0.1418 H         1 <0>         0.0000
     15 H3          1.5588   -1.2794    3.9252 H         1 <0>         0.0000
     16 H4          4.2070   -2.8151   -1.6930 H         1 <0>         0.0000
     17 H5          4.9471   -1.3443   -1.5219 H         1 <0>         0.0000
     18 H6          4.7746   -2.4546    0.6617 H         1 <0>         0.0000
@<TRIPOS>BOND
     1    1    2 ar
     2    1    4 ar
     3    1   13 1
     4    2    6 ar
     5    2   14 1
     6    3    5 ar
     7    3    6 ar
     8    3   15 1
     9    4    5 ar
    10    4    8 1
    11    5    9 1
    12    6   12 1
    13    7    8 1
    14    7   16 1
    15    7   17 1
    16    8   18 1
    17    9   10 1
    18    9   11 2
