@<TRIPOS>MOLECULE
*****
   25    26     0     0     0
SMALL
NO_CHARGES

@<TRIPOS>ATOM
      1 C1         -0.8066    0.2436    0.7029 C.ar      1 <0>         0.0000
      2 C2         -1.7384   -0.7439    1.0032 C.ar      1 <0>         0.0000
      3 C3         -1.8127    1.7981    2.2785 C.ar      1 <0>         0.0000
      4 C4         -4.4274   -0.5063    3.4263 C.2       1 <0>         0.0000
      5 C5         -2.7788    0.8252    2.6014 C.ar      1 <0>         0.0000
      6 C6         -3.8854    0.7633    3.5352 C.2       1 <0>         0.0000
      7 C7         -0.8294    1.5136    1.3339 C.ar      1 <0>         0.0000
      8 C8         -2.7151   -0.4397    1.9588 C.ar      1 <0>         0.0000
      9 C9         -4.3744    1.7526    4.5020 C.2       1 <0>         0.0000
     10 C10         0.2123    2.5460    0.9619 C.3       1 <0>         0.0000
     11 N1         -4.4723    3.0358    4.3705 N.2       1 <0>         0.0000
     12 N2         -3.7373   -1.2245    2.4771 N.pl3     1 <0>         0.0000
     13 N3         -4.8710    1.2162    5.7073 N.pl3     1 <0>         0.0000
     14 O1         -4.1759    3.4630    3.0465 O.3       1 <0>         0.0000
     15 H1         -0.0355    0.0364   -0.0362 H         1 <0>         0.0000
     16 H2         -1.7029   -1.7151    0.5154 H         1 <0>         0.0000
     17 H3         -1.8543    2.7718    2.7538 H         1 <0>         0.0000
     18 H4         -5.2746   -0.9285    3.9490 H         1 <0>         0.0000
     19 H5          0.1558    2.8032   -0.1023 H         1 <0>         0.0000
     20 H6          0.0795    3.4682    1.5345 H         1 <0>         0.0000
     21 H7          1.2268    2.1769    1.1528 H         1 <0>         0.0000
     22 H8         -3.9551   -2.1677    2.1895 H         1 <0>         0.0000
     23 H9         -5.1609    1.9555    6.3434 H         1 <0>         0.0000
     24 H10        -4.2115    0.5848    6.1538 H         1 <0>         0.0000
     25 H11        -4.3400    4.4168    3.1089 H         1 <0>         0.0000
@<TRIPOS>BOND
     1    1    2 ar
     2    1    7 ar
     3    1   15 1
     4    2    8 ar
     5    2   16 1
     6    3    5 ar
     7    3    7 ar
     8    3   17 1
     9    4    6 2
    10    4   12 1
    11    4   18 1
    12    5    6 1
    13    5    8 ar
    14    6    9 1
    15    7   10 1
    16    8   12 1
    17    9   11 2
    18    9   13 1
    19   10   19 1
    20   10   20 1
    21   10   21 1
    22   11   14 1
    23   12   22 1
    24   13   23 1
    25   13   24 1
    26   14   25 1
