@<TRIPOS>MOLECULE
*****
   39    42     0     0     0
SMALL
NO_CHARGES

@<TRIPOS>ATOM
      1 C1         -3.8265   -5.5191    4.1763 C.ar      1 <0>         0.0000
      2 C2          3.3747   -1.9424   -0.2190 C.ar      1 <0>         0.0000
      3 C3         -3.4950   -4.2641    4.6441 C.ar      1 <0>         0.0000
      4 C4          2.1819   -1.2617    0.0175 C.ar      1 <0>         0.0000
      5 C5         -3.8624   -5.7852    2.7856 C.ar      1 <0>         0.0000
      6 C6         -2.5593   -0.9546    3.1733 C.ar      1 <0>         0.0000
      7 C7          4.5634   -1.2092   -0.3109 C.ar      1 <0>         0.0000
      8 C8          3.4593    0.7625    0.0432 C.ar      1 <0>         0.0000
      9 C9         -3.1853   -3.2294    3.7249 C.ar      1 <0>         0.0000
     10 C10         2.2107    0.1352    0.1549 C.ar      1 <0>         0.0000
     11 C11        -3.2112   -3.4670    2.3147 C.ar      1 <0>         0.0000
     12 C12        -2.8417   -1.9071    4.1310 C.ar      1 <0>         0.0000
     13 C13        -3.5631   -4.7811    1.8960 C.ar      1 <0>         0.0000
     14 C14        -2.6044   -1.3139    1.7996 C.ar      1 <0>         0.0000
     15 C15         0.0595    0.4096    1.5645 C.3       1 <0>         0.0000
     16 C16        -0.2460    0.6196   -0.5090 C.3       1 <0>         0.0000
     17 C17         0.9674    0.9407    0.4150 C.3       1 <0>         0.0000
     18 C18        -2.2316   -0.2921    0.7453 C.3       1 <0>         0.0000
     19 N1          4.6159    0.1229   -0.1832 N.ar      1 <0>         0.0000
     20 N2         -2.9231   -2.5239    1.3764 N.ar      1 <0>         0.0000
     21 N3         -0.7896   -0.2535    0.5528 N.3       1 <0>         0.0000
     22 O1         -2.8185   -1.6590    5.4720 O.3       1 <0>         0.0000
     23 F1         -3.6000   -5.0414    0.5733 F         1 <0>         0.0000
     24 H1         -4.0643   -6.3174    4.8735 H         1 <0>         0.0000
     25 H2          3.3902   -3.0232   -0.3312 H         1 <0>         0.0000
     26 H3         -3.4670   -4.0532    5.7076 H         1 <0>         0.0000
     27 H4          1.2357   -1.7923    0.0968 H         1 <0>         0.0000
     28 H5         -4.1220   -6.7688    2.4061 H         1 <0>         0.0000
     29 H6         -2.3045    0.0645    3.4569 H         1 <0>         0.0000
     30 H7          5.5114   -1.7131   -0.4946 H         1 <0>         0.0000
     31 H8          3.5289    1.8464    0.1427 H         1 <0>         0.0000
     32 H9          0.5145   -0.2619    2.3001 H         1 <0>         0.0000
     33 H10        -0.4527    1.2352    2.0889 H         1 <0>         0.0000
     34 H11        -0.8624    1.5142   -0.6970 H         1 <0>         0.0000
     35 H12        -0.0398    0.1118   -1.4571 H         1 <0>         0.0000
     36 H13         1.2169    2.0013    0.4861 H         1 <0>         0.0000
     37 H14        -2.6928   -0.5959   -0.1977 H         1 <0>         0.0000
     38 H15        -2.6290    0.7039    1.0230 H         1 <0>         0.0000
     39 H16        -2.5717   -0.7316    5.6215 H         1 <0>         0.0000
@<TRIPOS>BOND
     1    1    3 ar
     2    1    5 ar
     3    1   24 1
     4    2    4 ar
     5    2    7 ar
     6    2   25 1
     7    3    9 ar
     8    3   26 1
     9    4   10 ar
    10    4   27 1
    11    5   13 ar
    12    5   28 1
    13    6   12 ar
    14    6   14 ar
    15    6   29 1
    16    7   19 ar
    17    7   30 1
    18    8   10 ar
    19    8   19 ar
    20    8   31 1
    21    9   11 ar
    22    9   12 ar
    23   10   17 1
    24   11   13 ar
    25   11   20 ar
    26   12   22 1
    27   13   23 1
    28   14   18 1
    29   14   20 ar
    30   15   17 1
    31   15   21 1
    32   15   32 1
    33   15   33 1
    34   16   17 1
    35   16   21 1
    36   16   34 1
    37   16   35 1
    38   17   36 1
    39   18   21 1
    40   18   37 1
    41   18   38 1
    42   22   39 1
