@<TRIPOS>MOLECULE
*****
   41    43     0     0     0
SMALL
NO_CHARGES

@<TRIPOS>ATOM
      1 C1          5.4677   -2.6670    3.1483 C.ar      1 <0>         0.0000
      2 C2          4.3521   -2.1676    3.8305 C.ar      1 <0>         0.0000
      3 C3          5.2988   -3.2677    1.8976 C.ar      1 <0>         0.0000
      4 C4          3.0779   -2.2671    3.2668 C.ar      1 <0>         0.0000
      5 C5          4.0221   -3.3638    1.3336 C.ar      1 <0>         0.0000
      6 C6          2.9003   -2.8658    2.0101 C.ar      1 <0>         0.0000
      7 C7          0.6985   -1.6974    1.5477 C.2       1 <0>         0.0000
      8 C8         -0.0825    1.3386   -0.4036 C.3       1 <0>         0.0000
      9 C9          1.3476   -1.2658   -1.6625 C.3       1 <0>         0.0000
     10 C10         0.2453    0.6042    0.9011 C.3       1 <0>         0.0000
     11 C11         1.9700   -0.7290   -0.3646 C.3       1 <0>         0.0000
     12 C12        -1.7409   -0.5094   -1.1925 C.3       1 <0>         0.0000
     13 C13        -0.6302    0.4982   -1.5672 C.3       1 <0>         0.0000
     14 C14         0.4239   -0.2773   -2.3825 C.3       1 <0>         0.0000
     15 C15         1.5124   -2.9843    1.4030 C.3       1 <0>         0.0000
     16 N1         -1.9267   -1.4168   -2.3488 N.pl3     1 <0>         0.0000
     17 N2          0.9962   -0.6422    0.7202 N.am      1 <0>         0.0000
     18 O1         -0.1783   -1.6181    2.4135 O.2       1 <0>         0.0000
     19 O2         -0.1997   -2.5172   -3.9026 O.2       1 <0>         0.0000
     20 O3         -1.1595   -0.2502   -4.5405 O.2       1 <0>         0.0000
     21 S1         -0.6996   -1.1903   -3.5173 S.o2      1 <0>         0.0000
     22 H1          6.4584   -2.5894    3.5885 H         1 <0>         0.0000
     23 H2          4.4750   -1.7018    4.8050 H         1 <0>         0.0000
     24 H3          6.1578   -3.6613    1.3602 H         1 <0>         0.0000
     25 H4          2.2136   -1.8812    3.8017 H         1 <0>         0.0000
     26 H5          3.8979   -3.8353    0.3604 H         1 <0>         0.0000
     27 H6         -0.8256    2.1034   -0.1503 H         1 <0>         0.0000
     28 H7          0.7905    1.8920   -0.7671 H         1 <0>         0.0000
     29 H8          2.1393   -1.5622   -2.3576 H         1 <0>         0.0000
     30 H9          0.8030   -2.1833   -1.4227 H         1 <0>         0.0000
     31 H10         0.8079    1.2826    1.5567 H         1 <0>         0.0000
     32 H11        -0.6675    0.3424    1.4361 H         1 <0>         0.0000
     33 H12         2.7959   -1.3728   -0.0621 H         1 <0>         0.0000
     34 H13         2.4092    0.2611   -0.5186 H         1 <0>         0.0000
     35 H14        -1.4659   -1.0866   -0.3060 H         1 <0>         0.0000
     36 H15        -2.6749    0.0199   -0.9832 H         1 <0>         0.0000
     37 H16        -1.0692    1.2083   -2.2762 H         1 <0>         0.0000
     38 H17         0.9937    0.4103   -3.0118 H         1 <0>         0.0000
     39 H18         1.5900   -3.3042    0.3607 H         1 <0>         0.0000
     40 H19         0.9354   -3.7447    1.9354 H         1 <0>         0.0000
     41 H20        -1.9697   -2.4035   -2.1071 H         1 <0>         0.0000
@<TRIPOS>BOND
     1    1    3 ar
     2    1    2 ar
     3    1   22 1
     4    2    4 ar
     5    2   23 1
     6    3    5 ar
     7    3   24 1
     8    4    6 ar
     9    4   25 1
    10    5    6 ar
    11    5   26 1
    12    6   15 1
    13    7   15 1
    14    7   17 am
    15    7   18 2
    16    8   10 1
    17    8   13 1
    18    8   27 1
    19    8   28 1
    20    9   11 1
    21    9   14 1
    22    9   29 1
    23    9   30 1
    24   10   17 1
    25   10   31 1
    26   10   32 1
    27   11   17 1
    28   11   33 1
    29   11   34 1
    30   12   13 1
    31   12   16 1
    32   12   35 1
    33   12   36 1
    34   13   14 1
    35   13   37 1
    36   14   21 1
    37   14   38 1
    38   15   39 1
    39   15   40 1
    40   16   21 1
    41   16   41 1
    42   19   21 2
    43   20   21 2
