@<TRIPOS>MOLECULE
*****
   39    42     0     0     0
SMALL
NO_CHARGES

@<TRIPOS>ATOM
      1 C1          4.2501   -4.6735    5.0470 C.ar      1 <0>         0.0000
      2 C2          3.4096    2.4379   -3.6391 C.ar      1 <0>         0.0000
      3 C3          2.9782   -4.2486    4.7198 C.ar      1 <0>         0.0000
      4 C4          2.9431    2.0168   -2.3948 C.ar      1 <0>         0.0000
      5 C5          5.3793   -3.8810    4.7280 C.ar      1 <0>         0.0000
      6 C6          1.4216   -1.2856    3.0475 C.ar      1 <0>         0.0000
      7 C7          2.4946    2.5714   -4.6891 C.ar      1 <0>         0.0000
      8 C8          0.7580    1.9098   -3.3555 C.ar      1 <0>         0.0000
      9 C9          2.7979   -3.0070    4.0595 C.ar      1 <0>         0.0000
     10 C10         1.5780    1.7398   -2.2294 C.ar      1 <0>         0.0000
     11 C11         3.9183   -2.1843    3.7245 C.ar      1 <0>         0.0000
     12 C12         1.5161   -2.5023    3.6879 C.ar      1 <0>         0.0000
     13 C13         5.2024   -2.6779    4.0865 C.ar      1 <0>         0.0000
     14 C14         2.6095   -0.5587    2.7708 C.ar      1 <0>         0.0000
     15 C15         1.2680    2.1111    0.3673 C.3       1 <0>         0.0000
     16 C16         1.6502    0.1038   -0.1548 C.3       1 <0>         0.0000
     17 C17         0.9954    1.2862   -0.9233 C.3       1 <0>         0.0000
     18 C18         2.5136    0.7950    2.0959 C.3       1 <0>         0.0000
     19 N1          1.1868    2.3136   -4.5589 N.ar      1 <0>         0.0000
     20 N2          3.8195   -0.9843    3.0857 N.ar      1 <0>         0.0000
     21 N3          1.4424    0.8438    1.1152 N.3       1 <0>         0.0000
     22 O1          0.4357   -3.2759    3.9973 O.3       1 <0>         0.0000
     23 F1          6.2833   -1.9284    3.7849 F         1 <0>         0.0000
     24 H1          4.3963   -5.6231    5.5537 H         1 <0>         0.0000
     25 H2          4.4613    2.6592   -3.7991 H         1 <0>         0.0000
     26 H3          2.1087   -4.8504    4.9606 H         1 <0>         0.0000
     27 H4          3.6353    1.9044   -1.5636 H         1 <0>         0.0000
     28 H5          6.3849   -4.2040    4.9800 H         1 <0>         0.0000
     29 H6          0.4677   -0.8669    2.7365 H         1 <0>         0.0000
     30 H7          2.8262    2.8981   -5.6737 H         1 <0>         0.0000
     31 H8         -0.3103    1.7061   -3.2766 H         1 <0>         0.0000
     32 H9          2.1974    2.6959    0.2878 H         1 <0>         0.0000
     33 H10         0.4656    2.7592    0.7352 H         1 <0>         0.0000
     34 H11         1.1562   -0.8716   -0.2088 H         1 <0>         0.0000
     35 H12         2.7142   -0.0199   -0.4078 H         1 <0>         0.0000
     36 H13        -0.0773    1.1122   -1.0379 H         1 <0>         0.0000
     37 H14         2.3070    1.5565    2.8601 H         1 <0>         0.0000
     38 H15         3.5025    1.0265    1.6656 H         1 <0>         0.0000
     39 H16        -0.3714   -2.8256    3.6985 H         1 <0>         0.0000
@<TRIPOS>BOND
     1    1    3 ar
     2    1    5 ar
     3    1   24 1
     4    2    4 ar
     5    2    7 ar
     6    2   25 1
     7    3    9 ar
     8    3   26 1
     9    4   10 ar
    10    4   27 1
    11    5   13 ar
    12    5   28 1
    13    6   12 ar
    14    6   14 ar
    15    6   29 1
    16    7   19 ar
    17    7   30 1
    18    8   10 ar
    19    8   19 ar
    20    8   31 1
    21    9   11 ar
    22    9   12 ar
    23   10   17 1
    24   11   13 ar
    25   11   20 ar
    26   12   22 1
    27   13   23 1
    28   14   18 1
    29   14   20 ar
    30   15   17 1
    31   15   21 1
    32   15   32 1
    33   15   33 1
    34   16   17 1
    35   16   21 1
    36   16   34 1
    37   16   35 1
    38   17   36 1
    39   18   21 1
    40   18   37 1
    41   18   38 1
    42   22   39 1
