@<TRIPOS>MOLECULE
*****
   41    43     0     0     0
SMALL
NO_CHARGES

@<TRIPOS>ATOM
      1 C1         -4.6399   -3.4364   -4.5565 C.ar      1 <0>         0.0000
      2 C2         -3.3977   -4.0741   -4.4600 C.ar      1 <0>         0.0000
      3 C3         -5.1102   -2.6780   -3.4805 C.ar      1 <0>         0.0000
      4 C4         -2.6332   -3.9520   -3.2974 C.ar      1 <0>         0.0000
      5 C5         -4.3398   -2.5557   -2.3192 C.ar      1 <0>         0.0000
      6 C6         -3.0953   -3.1896   -2.2138 C.ar      1 <0>         0.0000
      7 C7         -0.7721   -2.8374   -1.2203 C.2       1 <0>         0.0000
      8 C8         -0.6714    0.7682   -1.9708 C.3       1 <0>         0.0000
      9 C9          1.7985   -0.6600   -1.2132 C.3       1 <0>         0.0000
     10 C10        -1.3110   -0.5999   -2.2363 C.3       1 <0>         0.0000
     11 C11         1.0046   -1.5265   -2.2391 C.3       1 <0>         0.0000
     12 C12         0.5172    2.3802   -0.3890 C.3       1 <0>         0.0000
     13 C13        -0.1386    0.9584   -0.5445 C.3       1 <0>         0.0000
     14 C14         0.8917   -0.1091   -0.1129 C.3       1 <0>         0.0000
     15 C15        -2.2598   -3.0707   -0.9528 C.3       1 <0>         0.0000
     16 N1          1.7918    2.3058    0.3518 N.pl3     1 <0>         0.0000
     17 N2         -0.4063   -1.6992   -1.8964 N.am      1 <0>         0.0000
     18 O1          0.0656   -3.6674   -0.8589 O.2       1 <0>         0.0000
     19 O2          3.2583    0.3921    1.2386 O.2       1 <0>         0.0000
     20 O3          1.0124    0.8942    2.3487 O.2       1 <0>         0.0000
     21 S1          1.8547    0.8047    1.1550 S.o2      1 <0>         0.0000
     22 H1         -5.2352   -3.5312   -5.4608 H         1 <0>         0.0000
     23 H2         -3.0256   -4.6687   -5.2905 H         1 <0>         0.0000
     24 H3         -6.0748   -2.1807   -3.5438 H         1 <0>         0.0000
     25 H4         -1.6697   -4.4518   -3.2280 H         1 <0>         0.0000
     26 H5         -4.7130   -1.9619   -1.4869 H         1 <0>         0.0000
     27 H6          0.1370    0.9477   -2.6878 H         1 <0>         0.0000
     28 H7         -1.4272    1.5364   -2.1741 H         1 <0>         0.0000
     29 H8          2.5802   -1.2621   -0.7459 H         1 <0>         0.0000
     30 H9          2.3039    0.1611   -1.7338 H         1 <0>         0.0000
     31 H10        -2.2213   -0.6896   -1.6457 H         1 <0>         0.0000
     32 H11        -1.6089   -0.6649   -3.2912 H         1 <0>         0.0000
     33 H12         1.0548   -1.0798   -3.2365 H         1 <0>         0.0000
     34 H13         1.4449   -2.5204   -2.2939 H         1 <0>         0.0000
     35 H14         0.7177    2.8208   -1.3689 H         1 <0>         0.0000
     36 H15        -0.1669    3.0434    0.1444 H         1 <0>         0.0000
     37 H16        -0.9765    0.8992    0.1557 H         1 <0>         0.0000
     38 H17         0.4183   -0.9254    0.4333 H         1 <0>         0.0000
     39 H18        -2.6612   -2.2837   -0.3053 H         1 <0>         0.0000
     40 H19        -2.2987   -4.0012   -0.3812 H         1 <0>         0.0000
     41 H20         2.6129    2.3734   -0.2465 H         1 <0>         0.0000
@<TRIPOS>BOND
     1    1    3 ar
     2    1    2 ar
     3    1   22 1
     4    2    4 ar
     5    2   23 1
     6    3    5 ar
     7    3   24 1
     8    4    6 ar
     9    4   25 1
    10    5    6 ar
    11    5   26 1
    12    6   15 1
    13    7   15 1
    14    7   17 am
    15    7   18 2
    16    8   10 1
    17    8   13 1
    18    8   27 1
    19    8   28 1
    20    9   11 1
    21    9   14 1
    22    9   29 1
    23    9   30 1
    24   10   17 1
    25   10   31 1
    26   10   32 1
    27   11   17 1
    28   11   33 1
    29   11   34 1
    30   12   13 1
    31   12   16 1
    32   12   35 1
    33   12   36 1
    34   13   14 1
    35   13   37 1
    36   14   21 1
    37   14   38 1
    38   15   39 1
    39   15   40 1
    40   16   21 1
    41   16   41 1
    42   19   21 2
    43   20   21 2
