@<TRIPOS>MOLECULE
*****
   39    42     0     0     0
SMALL
NO_CHARGES

@<TRIPOS>ATOM
      1 C1         -3.5485   -5.9662    3.7713 C.ar      1 <0>         0.0000
      2 C2          4.7186    0.7607    0.2028 C.ar      1 <0>         0.0000
      3 C3         -3.2893   -4.7123    4.2857 C.ar      1 <0>         0.0000
      4 C4          3.4510    1.3374    0.3132 C.ar      1 <0>         0.0000
      5 C5         -3.5236   -6.1920    2.3734 C.ar      1 <0>         0.0000
      6 C6         -2.4503   -1.3234    2.9438 C.ar      1 <0>         0.0000
      7 C7          4.8133   -0.6315    0.1492 C.ar      1 <0>         0.0000
      8 C8          2.5387   -0.8754    0.3024 C.ar      1 <0>         0.0000
      9 C9         -2.9930   -3.6388    3.4078 C.ar      1 <0>         0.0000
     10 C10         2.3215    0.5142    0.3658 C.ar      1 <0>         0.0000
     11 C11        -2.9576   -3.8356    1.9920 C.ar      1 <0>         0.0000
     12 C12        -2.7243   -2.3149    3.8628 C.ar      1 <0>         0.0000
     13 C13        -3.2371   -5.1500    1.5237 C.ar      1 <0>         0.0000
     14 C14        -2.4262   -1.6442    1.5595 C.ar      1 <0>         0.0000
     15 C15         0.0172    0.4421    1.5596 C.3       1 <0>         0.0000
     16 C16        -0.1127    0.5647   -0.5405 C.3       1 <0>         0.0000
     17 C17         0.9374    1.0930    0.4839 C.3       1 <0>         0.0000
     18 C18        -2.0711   -0.5743    0.5478 C.3       1 <0>         0.0000
     19 N1          3.7465   -1.4439    0.1975 N.ar      1 <0>         0.0000
     20 N2         -2.6763   -2.8535    1.0913 N.ar      1 <0>         0.0000
     21 N3         -0.6332   -0.3513    0.4962 N.3       1 <0>         0.0000
     22 O1         -2.7639   -2.1053    5.2102 O.3       1 <0>         0.0000
     23 F1         -3.2171   -5.3721    0.1940 F         1 <0>         0.0000
     24 H1         -3.7749   -6.7944    4.4368 H         1 <0>         0.0000
     25 H2          5.6144    1.3741    0.1594 H         1 <0>         0.0000
     26 H3         -3.3080   -4.5318    5.3549 H         1 <0>         0.0000
     27 H4          3.3404    2.4194    0.3580 H         1 <0>         0.0000
     28 H5         -3.7259   -7.1743    1.9571 H         1 <0>         0.0000
     29 H6         -2.2562   -0.3026    3.2662 H         1 <0>         0.0000
     30 H7          5.7843   -1.1174    0.0638 H         1 <0>         0.0000
     31 H8          1.6869   -1.5534    0.3372 H         1 <0>         0.0000
     32 H9          0.4996   -0.1470    2.3466 H         1 <0>         0.0000
     33 H10        -0.6550    1.1876    2.0196 H         1 <0>         0.0000
     34 H11        -0.8298    1.3507   -0.8293 H         1 <0>         0.0000
     35 H12         0.2655    0.0667   -1.4396 H         1 <0>         0.0000
     36 H13         0.9955    2.1817    0.5439 H         1 <0>         0.0000
     37 H14        -2.3962   -0.9250   -0.4344 H         1 <0>         0.0000
     38 H15        -2.6151    0.3629    0.7800 H         1 <0>         0.0000
     39 H16        -2.5596   -1.1739    5.3946 H         1 <0>         0.0000
@<TRIPOS>BOND
     1    1    3 ar
     2    1    5 ar
     3    1   24 1
     4    2    4 ar
     5    2    7 ar
     6    2   25 1
     7    3    9 ar
     8    3   26 1
     9    4   10 ar
    10    4   27 1
    11    5   13 ar
    12    5   28 1
    13    6   12 ar
    14    6   14 ar
    15    6   29 1
    16    7   19 ar
    17    7   30 1
    18    8   10 ar
    19    8   19 ar
    20    8   31 1
    21    9   11 ar
    22    9   12 ar
    23   10   17 1
    24   11   13 ar
    25   11   20 ar
    26   12   22 1
    27   13   23 1
    28   14   18 1
    29   14   20 ar
    30   15   17 1
    31   15   21 1
    32   15   32 1
    33   15   33 1
    34   16   17 1
    35   16   21 1
    36   16   34 1
    37   16   35 1
    38   17   36 1
    39   18   21 1
    40   18   37 1
    41   18   38 1
    42   22   39 1
