@<TRIPOS>MOLECULE
*****
   23    24     0     0     0
SMALL
NO_CHARGES

@<TRIPOS>ATOM
      1 C1         -1.5425    1.3263   -2.1747 C.2       1 <0>         0.0000
      2 C2         -2.3217    0.3014   -1.5694 C.2       1 <0>         0.0000
      3 C3         -0.4065    1.6260   -1.4589 C.2       1 <0>         0.0000
      4 C4         -1.7710   -0.1701   -0.3923 C.2       1 <0>         0.0000
      5 C5         -4.7646   -3.6151    0.8447 C.2       1 <0>         0.0000
      6 C6         -6.6438   -4.3911    0.0606 C.2       1 <0>         0.0000
      7 C7         -2.2560   -1.1999    0.5079 C.2       1 <0>         0.0000
      8 N1         -4.7603   -4.9072    1.0432 N.2       1 <0>         0.0000
      9 N2         -5.9753   -5.4042    0.5525 N.2       1 <0>         0.0000
     10 N3         -3.3915   -1.7783    0.3180 N.2       1 <0>         0.0000
     11 N4         -5.9292   -3.2148    0.2279 N.pl3     1 <0>         0.0000
     12 N5         -6.3736   -1.9276   -0.1110 N.3       1 <0>         0.0000
     13 N6         -3.7822   -2.7184    1.2550 N.pl3     1 <0>         0.0000
     14 S1         -0.2748    0.6580   -0.0336 S.3       1 <0>         0.0000
     15 S2         -8.2172   -4.4734   -0.7185 S.3       1 <0>         0.0000
     16 H1         -1.8045    1.8205   -3.1044 H         1 <0>         0.0000
     17 H2         -3.2446   -0.0924   -1.9802 H         1 <0>         0.0000
     18 H3          0.3589    2.3558   -1.6898 H         1 <0>         0.0000
     19 H4         -1.6173   -1.4699    1.3584 H         1 <0>         0.0000
     20 H5         -5.6102   -1.4673   -0.6073 H         1 <0>         0.0000
     21 H6         -6.5287   -1.4078    0.7543 H         1 <0>         0.0000
     22 H7         -3.0409   -3.1886    1.7772 H         1 <0>         0.0000
     23 H8         -8.2478   -3.1451   -0.9685 H         1 <0>         0.0000
@<TRIPOS>BOND
     1    1    2 1
     2    1    3 2
     3    1   16 1
     4    2    4 2
     5    2   17 1
     6    3   14 1
     7    3   18 1
     8    4    7 1
     9    4   14 1
    10    5    8 2
    11    5   11 1
    12    5   13 1
    13    6    9 2
    14    6   11 1
    15    6   15 1
    16    7   10 2
    17    7   19 1
    18    8    9 1
    19   10   13 1
    20   11   12 1
    21   12   20 1
    22   12   21 1
    23   13   22 1
    24   15   23 1
