@<TRIPOS>MOLECULE
*****
   39    42     0     0     0
SMALL
NO_CHARGES

@<TRIPOS>ATOM
      1 C1          5.0097   -3.7473    4.9523 C.ar      1 <0>         0.0000
      2 C2         -4.4333   -0.1325   -1.1789 C.ar      1 <0>         0.0000
      3 C3          3.6539   -3.5078    5.0433 C.ar      1 <0>         0.0000
      4 C4         -3.1457   -0.5598   -0.8538 C.ar      1 <0>         0.0000
      5 C5          5.8174   -2.9958    4.0640 C.ar      1 <0>         0.0000
      6 C6          1.1725   -1.1928    3.4707 C.ar      1 <0>         0.0000
      7 C7         -4.5838    1.0813   -1.8571 C.ar      1 <0>         0.0000
      8 C8         -2.3211    1.4309   -1.8884 C.ar      1 <0>         0.0000
      9 C9          3.0613   -2.5013    4.2387 C.ar      1 <0>         0.0000
     10 C10        -2.0473    0.2329   -1.2115 C.ar      1 <0>         0.0000
     11 C11         3.8497   -1.7267    3.3308 C.ar      1 <0>         0.0000
     12 C12         1.6713   -2.1901    4.2832 C.ar      1 <0>         0.0000
     13 C13         5.2420   -2.0194    3.2862 C.ar      1 <0>         0.0000
     14 C14         2.0533   -0.5004    2.5966 C.ar      1 <0>         0.0000
     15 C15        -0.3061   -0.7707    0.4943 C.3       1 <0>         0.0000
     16 C16         0.4466    0.8680   -0.5933 C.3       1 <0>         0.0000
     17 C17        -0.6396   -0.1941   -0.9078 C.3       1 <0>         0.0000
     18 C18         1.5013    0.5561    1.6624 C.3       1 <0>         0.0000
     19 N1         -3.5503    1.8573   -2.2103 N.ar      1 <0>         0.0000
     20 N2          3.3489   -0.7482    2.5277 N.ar      1 <0>         0.0000
     21 N3          0.9820   -0.0454    0.4411 N.3       1 <0>         0.0000
     22 O1          0.9038   -2.9108    5.1512 O.3       1 <0>         0.0000
     23 F1          6.0179   -1.3072    2.4443 F         1 <0>         0.0000
     24 H1          5.4714   -4.5170    5.5642 H         1 <0>         0.0000
     25 H2         -5.3061   -0.7232   -0.9144 H         1 <0>         0.0000
     26 H3          3.0297   -4.0778    5.7228 H         1 <0>         0.0000
     27 H4         -2.9937   -1.4993   -0.3264 H         1 <0>         0.0000
     28 H5          6.8853   -3.1754    3.9842 H         1 <0>         0.0000
     29 H6          0.1174   -0.9280    3.4949 H         1 <0>         0.0000
     30 H7         -5.5741    1.4458   -2.1265 H         1 <0>         0.0000
     31 H8         -1.5015    2.0840   -2.1867 H         1 <0>         0.0000
     32 H9         -0.9963   -0.3708    1.2582 H         1 <0>         0.0000
     33 H10        -0.2230   -1.8561    0.6114 H         1 <0>         0.0000
     34 H11         1.1591    1.1385   -1.3791 H         1 <0>         0.0000
     35 H12         0.0024    1.7837   -0.1684 H         1 <0>         0.0000
     36 H13        -0.2766   -0.8767   -1.6828 H         1 <0>         0.0000
     37 H14         0.7242    1.1507    2.1819 H         1 <0>         0.0000
     38 H15         2.3201    1.2259    1.3882 H         1 <0>         0.0000
     39 H16        -0.0154   -2.6020    5.0962 H         1 <0>         0.0000
@<TRIPOS>BOND
     1    1    3 ar
     2    1    5 ar
     3    1   24 1
     4    2    4 ar
     5    2    7 ar
     6    2   25 1
     7    3    9 ar
     8    3   26 1
     9    4   10 ar
    10    4   27 1
    11    5   13 ar
    12    5   28 1
    13    6   12 ar
    14    6   14 ar
    15    6   29 1
    16    7   19 ar
    17    7   30 1
    18    8   10 ar
    19    8   19 ar
    20    8   31 1
    21    9   11 ar
    22    9   12 ar
    23   10   17 1
    24   11   13 ar
    25   11   20 ar
    26   12   22 1
    27   13   23 1
    28   14   18 1
    29   14   20 ar
    30   15   17 1
    31   15   21 1
    32   15   32 1
    33   15   33 1
    34   16   17 1
    35   16   21 1
    36   16   34 1
    37   16   35 1
    38   17   36 1
    39   18   21 1
    40   18   37 1
    41   18   38 1
    42   22   39 1
