@<TRIPOS>MOLECULE
*****
   23    24     0     0     0
SMALL
NO_CHARGES

@<TRIPOS>ATOM
      1 C1         -1.5698    0.2410   -3.5654 C.2       1 <0>         0.0000
      2 C2         -2.2757   -0.6874   -2.7507 C.2       1 <0>         0.0000
      3 C3         -0.2107    0.2102   -3.3547 C.2       1 <0>         0.0000
      4 C4         -1.4440   -1.4213   -1.9256 C.2       1 <0>         0.0000
      5 C5         -4.4977   -4.0480    0.5506 C.2       1 <0>         0.0000
      6 C6         -6.6567   -4.3427    0.5340 C.2       1 <0>         0.0000
      7 C7         -1.7754   -2.4527   -0.9598 C.2       1 <0>         0.0000
      8 N1         -4.8710   -4.2283    1.7902 N.2       1 <0>         0.0000
      9 N2         -6.2574   -4.4330    1.7780 N.2       1 <0>         0.0000
     10 N3         -2.9838   -2.8761   -0.8166 N.2       1 <0>         0.0000
     11 N4         -5.5768   -4.1097   -0.3035 N.pl3     1 <0>         0.0000
     12 N5         -5.6237   -4.0344   -1.7039 N.3       1 <0>         0.0000
     13 N6         -3.1897   -3.8900    0.1017 N.pl3     1 <0>         0.0000
     14 S1          0.2243   -0.9560   -2.1561 S.3       1 <0>         0.0000
     15 S2         -8.3161   -4.4783   -0.0295 S.3       1 <0>         0.0000
     16 H1         -2.0442    0.9104   -4.2754 H         1 <0>         0.0000
     17 H2         -3.3529   -0.8106   -2.7513 H         1 <0>         0.0000
     18 H3          0.5559    0.8071   -3.8320 H         1 <0>         0.0000
     19 H4         -0.9564   -2.8592   -0.3530 H         1 <0>         0.0000
     20 H5         -5.1422   -4.8521   -2.0815 H         1 <0>         0.0000
     21 H6         -5.0848   -3.2128   -1.9787 H         1 <0>         0.0000
     22 H7         -2.5191   -3.9646    0.8687 H         1 <0>         0.0000
     23 H8         -7.9753   -4.2686   -1.3209 H         1 <0>         0.0000
@<TRIPOS>BOND
     1    1    2 1
     2    1    3 2
     3    1   16 1
     4    2    4 2
     5    2   17 1
     6    3   14 1
     7    3   18 1
     8    4    7 1
     9    4   14 1
    10    5    8 2
    11    5   11 1
    12    5   13 1
    13    6    9 2
    14    6   11 1
    15    6   15 1
    16    7   10 2
    17    7   19 1
    18    8    9 1
    19   10   13 1
    20   11   12 1
    21   12   20 1
    22   12   21 1
    23   13   22 1
    24   15   23 1
