@<TRIPOS>MOLECULE
*****
   43    45     0     0     0
SMALL
NO_CHARGES

@<TRIPOS>ATOM
      1 C1         -7.5440   -1.1927   -3.4163 C.ar      1 <0>         0.0000
      2 C2         -7.8673   -2.2076   -2.4922 C.ar      1 <0>         0.0000
      3 C3         -6.5614   -0.2504   -3.1144 C.ar      1 <0>         0.0000
      4 C4         -7.2151   -2.3164   -1.2619 C.ar      1 <0>         0.0000
      5 C5         -5.9175   -0.3462   -1.8783 C.ar      1 <0>         0.0000
      6 C6         -6.2226   -1.3733   -0.9802 C.ar      1 <0>         0.0000
      7 C7         -4.8647    0.4779   -1.2689 C.2       1 <0>         0.0000
      8 C8         -2.3800   -0.9456   -0.1336 C.2       1 <0>         0.0000
      9 C9          1.0337   -1.0440   -0.7649 C.3       1 <0>         0.0000
     10 C10        -0.1269   -1.8986   -0.2261 C.3       1 <0>         0.0000
     11 C11        -0.6781   -0.3038    1.5892 C.3       1 <0>         0.0000
     12 C12         0.8492   -0.0932    1.5668 C.3       1 <0>         0.0000
     13 C13         1.3451    0.1927    0.1249 C.3       1 <0>         0.0000
     14 C14         1.2436    0.9735    2.5930 C.3       1 <0>         0.0000
     15 C15         0.7251    1.4587   -0.4707 C.3       1 <0>         0.0000
     16 C16        -3.3646   -0.0132    0.6044 C.3       1 <0>         0.0000
     17 N1         -5.3952   -1.2955    0.1594 N.pl3     1 <0>         0.0000
     18 N2         -4.6864   -0.0591    0.0238 N.am      1 <0>         0.0000
     19 N3         -1.1341   -1.0575    0.4185 N.am      1 <0>         0.0000
     20 O1         -4.2300    1.4310   -1.7069 O.2       1 <0>         0.0000
     21 O2         -2.7207   -1.5326   -1.1573 O.2       1 <0>         0.0000
     22 O3          2.7620    0.4520    0.1345 O.3       1 <0>         0.0000
     23 H1         -8.0674   -1.1501   -4.3672 H         1 <0>         0.0000
     24 H2         -8.6370   -2.9316   -2.7473 H         1 <0>         0.0000
     25 H3         -6.2967    0.5438   -3.8066 H         1 <0>         0.0000
     26 H4         -7.4583   -3.1141   -0.5652 H         1 <0>         0.0000
     27 H5          1.9292   -1.6736   -0.8311 H         1 <0>         0.0000
     28 H6          0.8109   -0.7098   -1.7819 H         1 <0>         0.0000
     29 H7         -0.6193   -2.4506   -1.0253 H         1 <0>         0.0000
     30 H8          0.2368   -2.6275    0.5087 H         1 <0>         0.0000
     31 H9         -0.9585   -0.8184    2.5198 H         1 <0>         0.0000
     32 H10        -1.1596    0.6767    1.6042 H         1 <0>         0.0000
     33 H11         1.3268   -1.0348    1.8757 H         1 <0>         0.0000
     34 H12         0.7523    1.9302    2.3900 H         1 <0>         0.0000
     35 H13         2.3227    1.1422    2.5808 H         1 <0>         0.0000
     36 H14         0.9549    0.6602    3.6026 H         1 <0>         0.0000
     37 H15         0.9304    2.3323    0.1529 H         1 <0>         0.0000
     38 H16        -0.3550    1.3537   -0.5978 H         1 <0>         0.0000
     39 H17         1.1631    1.6392   -1.4560 H         1 <0>         0.0000
     40 H18        -3.0274    1.0228    0.5148 H         1 <0>         0.0000
     41 H19        -3.4196   -0.2565    1.6694 H         1 <0>         0.0000
     42 H20        -5.9305   -1.2780    1.0280 H         1 <0>         0.0000
     43 H21         3.2131   -0.3523    0.4384 H         1 <0>         0.0000
@<TRIPOS>BOND
     1    1    2 ar
     2    1    3 ar
     3    1   23 1
     4    2    4 ar
     5    2   24 1
     6    3    5 ar
     7    3   25 1
     8    4    6 ar
     9    4   26 1
    10    5    6 ar
    11    5    7 1
    12    6   17 1
    13    7   18 am
    14    7   20 2
    15    8   16 1
    16    8   19 am
    17    8   21 2
    18    9   10 1
    19    9   13 1
    20    9   27 1
    21    9   28 1
    22   10   19 1
    23   10   29 1
    24   10   30 1
    25   11   12 1
    26   11   19 1
    27   11   31 1
    28   11   32 1
    29   12   13 1
    30   12   14 1
    31   12   33 1
    32   13   15 1
    33   13   22 1
    34   14   34 1
    35   14   35 1
    36   14   36 1
    37   15   37 1
    38   15   38 1
    39   15   39 1
    40   16   18 1
    41   16   40 1
    42   16   41 1
    43   17   18 1
    44   17   42 1
    45   22   43 1
