@<TRIPOS>MOLECULE
*****
   47    50     0     0     0
SMALL
NO_CHARGES

@<TRIPOS>ATOM
      1 C1          0.2114   -1.9248   -4.2659 C.1       1 <0>         0.0000
      2 C2          1.6487   -2.6180   -7.6200 C.ar      1 <0>         0.0000
      3 C3          3.0231   -2.6223   -7.3473 C.ar      1 <0>         0.0000
      4 C4          0.7474   -2.4124   -6.5799 C.ar      1 <0>         0.0000
      5 C5          3.4827   -2.4390   -6.0462 C.ar      1 <0>         0.0000
      6 C6          4.3364   -1.5466   -3.1864 C.2       1 <0>         0.0000
      7 C7          4.2837   -1.5820   -1.7584 C.2       1 <0>         0.0000
      8 C8          1.2045   -2.2098   -5.2641 C.ar      1 <0>         0.0000
      9 C9          2.5929   -2.2308   -4.9748 C.ar      1 <0>         0.0000
     10 C10         3.1311   -2.0334   -3.6376 C.2       1 <0>         0.0000
     11 C11         3.0578   -2.0923   -1.4195 C.2       1 <0>         0.0000
     12 C12         0.9554    1.0860    1.8847 C.3       1 <0>         0.0000
     13 C13         0.9360    1.0734    0.3328 C.3       1 <0>         0.0000
     14 C14        -0.8816   -0.6545    2.2516 C.3       1 <0>         0.0000
     15 C15         1.5651   -1.3647    1.9414 C.3       1 <0>         0.0000
     16 C16        -0.5320   -0.9610   -0.1562 C.3       1 <0>         0.0000
     17 C17         0.5975   -0.2900    2.4741 C.3       1 <0>         0.0000
     18 C18         0.8988   -0.3669   -0.1993 C.3       1 <0>         0.0000
     19 C19        -2.7589   -0.7810    0.7583 C.3       1 <0>         0.0000
     20 C20         2.3793   -2.3544   -0.1123 C.3       1 <0>         0.0000
     21 N1         -0.6446   -1.6675   -3.5184 N.1       1 <0>         0.0000
     22 N2         -1.3648   -0.3863    0.9012 N.3       1 <0>         0.0000
     23 N3          1.9235   -1.1293    0.5377 N.3       1 <0>         0.0000
     24 O1          2.3500   -2.3701   -2.5603 O.3       1 <0>         0.0000
     25 H1          1.2866   -2.7723   -8.6322 H         1 <0>         0.0000
     26 H2          3.7367   -2.7858   -8.1503 H         1 <0>         0.0000
     27 H3         -0.3211   -2.3917   -6.7713 H         1 <0>         0.0000
     28 H4          4.5479   -2.4814   -5.8410 H         1 <0>         0.0000
     29 H5          5.1468   -1.1782   -3.8014 H         1 <0>         0.0000
     30 H6          5.0452   -1.2558   -1.0628 H         1 <0>         0.0000
     31 H7          1.9551    1.3598    2.2401 H         1 <0>         0.0000
     32 H8          0.2619    1.8405    2.2703 H         1 <0>         0.0000
     33 H9          0.0687    1.6194   -0.0453 H         1 <0>         0.0000
     34 H10         1.8377    1.5584   -0.0535 H         1 <0>         0.0000
     35 H11        -1.0287   -1.7172    2.5350 H         1 <0>         0.0000
     36 H12        -1.4965   -0.0603    2.9395 H         1 <0>         0.0000
     37 H13         2.4890   -1.3594    2.5363 H         1 <0>         0.0000
     38 H14         1.1036   -2.3580    2.0840 H         1 <0>         0.0000
     39 H15        -1.0188   -0.7471   -1.1105 H         1 <0>         0.0000
     40 H16        -0.4781   -2.0654   -0.0873 H         1 <0>         0.0000
     41 H17         0.7345   -0.2568    3.5617 H         1 <0>         0.0000
     42 H18         1.2087   -0.3627   -1.2471 H         1 <0>         0.0000
     43 H19        -3.1259   -0.4961   -0.2326 H         1 <0>         0.0000
     44 H20        -3.3684   -0.2669    1.5097 H         1 <0>         0.0000
     45 H21        -2.9163   -1.8706    0.8803 H         1 <0>         0.0000
     46 H22         1.5703   -3.0871   -0.2815 H         1 <0>         0.0000
     47 H23         3.1011   -2.8310    0.5606 H         1 <0>         0.0000
@<TRIPOS>BOND
     1    1    8 1
     2    1   21 3
     3    2    3 ar
     4    2    4 ar
     5    2   25 1
     6    3    5 ar
     7    3   26 1
     8    4    8 ar
     9    4   27 1
    10    5    9 ar
    11    5   28 1
    12    6    7 1
    13    6   10 2
    14    6   29 1
    15    7   11 2
    16    7   30 1
    17    8    9 ar
    18    9   10 1
    19   10   24 1
    20   11   20 1
    21   11   24 1
    22   12   13 1
    23   12   17 1
    24   12   31 1
    25   12   32 1
    26   13   18 1
    27   13   33 1
    28   13   34 1
    29   14   17 1
    30   14   22 1
    31   14   35 1
    32   14   36 1
    33   15   17 1
    34   15   23 1
    35   15   37 1
    36   15   38 1
    37   16   18 1
    38   16   22 1
    39   16   39 1
    40   16   40 1
    41   17   41 1
    42   18   23 1
    43   18   42 1
    44   19   22 1
    45   19   43 1
    46   19   44 1
    47   19   45 1
    48   20   23 1
    49   20   46 1
    50   20   47 1
