@<TRIPOS>MOLECULE
*****
   43    45     0     0     0
SMALL
NO_CHARGES

@<TRIPOS>ATOM
      1 C1         -6.5978   -0.4839    2.6057 C.ar      1 <0>         0.0000
      2 C2         -7.1887   -1.1521    1.5119 C.ar      1 <0>         0.0000
      3 C3         -5.3497    0.1219    2.4738 C.ar      1 <0>         0.0000
      4 C4         -6.5628   -1.2195    0.2664 C.ar      1 <0>         0.0000
      5 C5         -4.7108    0.0492    1.2318 C.ar      1 <0>         0.0000
      6 C6         -5.3118   -0.6050    0.1452 C.ar      1 <0>         0.0000
      7 C7         -3.3852    0.5139    0.7948 C.2       1 <0>         0.0000
      8 C8         -1.5525   -1.2062   -1.3779 C.2       1 <0>         0.0000
      9 C9          1.6451   -2.7445   -0.4173 C.3       1 <0>         0.0000
     10 C10         0.1576   -2.7949   -0.7413 C.3       1 <0>         0.0000
     11 C11         0.2671   -0.4617    0.1806 C.3       1 <0>         0.0000
     12 C12         0.8291   -1.1912    1.4055 C.3       1 <0>         0.0000
     13 C13         1.9372   -2.1966    1.0010 C.3       1 <0>         0.0000
     14 C14         1.2298   -0.1927    2.4945 C.3       1 <0>         0.0000
     15 C15         3.3510   -1.6066    1.0377 C.3       1 <0>         0.0000
     16 C16        -2.1666    0.2000   -1.3846 C.3       1 <0>         0.0000
     17 N1         -4.5051   -0.4925   -0.9999 N.pl3     1 <0>         0.0000
     18 N2         -3.3446    0.1876   -0.5499 N.am      1 <0>         0.0000
     19 N3         -0.3888   -1.4256   -0.7246 N.am      1 <0>         0.0000
     20 O1         -2.4701    1.0734    1.4112 O.2       1 <0>         0.0000
     21 O2         -2.1857   -2.1085   -1.9535 O.2       1 <0>         0.0000
     22 O3          1.8249   -3.2566    1.9749 O.3       1 <0>         0.0000
     23 H1         -7.1240   -0.4469    3.5553 H         1 <0>         0.0000
     24 H2         -8.1602   -1.6223    1.6403 H         1 <0>         0.0000
     25 H3         -4.8709    0.6335    3.3039 H         1 <0>         0.0000
     26 H4         -7.0300   -1.7258   -0.5736 H         1 <0>         0.0000
     27 H5          2.0711   -3.7498   -0.5070 H         1 <0>         0.0000
     28 H6          2.1475   -2.1224   -1.1671 H         1 <0>         0.0000
     29 H7         -0.0236   -3.2180   -1.7305 H         1 <0>         0.0000
     30 H8         -0.3784   -3.4216   -0.0187 H         1 <0>         0.0000
     31 H9         -0.4624    0.2668    0.5315 H         1 <0>         0.0000
     32 H10         1.0664    0.0769   -0.3483 H         1 <0>         0.0000
     33 H11         0.0153   -1.8046    1.8074 H         1 <0>         0.0000
     34 H12         1.9707    0.5307    2.1368 H         1 <0>         0.0000
     35 H13         1.6488   -0.7132    3.3601 H         1 <0>         0.0000
     36 H14         0.3501    0.3675    2.8258 H         1 <0>         0.0000
     37 H15         3.6429   -1.3494    2.0583 H         1 <0>         0.0000
     38 H16         3.4256   -0.7065    0.4185 H         1 <0>         0.0000
     39 H17         4.0747   -2.3326    0.6458 H         1 <0>         0.0000
     40 H18        -2.4616    0.4222   -2.4135 H         1 <0>         0.0000
     41 H19        -1.5184    0.9949   -1.0207 H         1 <0>         0.0000
     42 H20        -4.2311   -1.3736   -1.4469 H         1 <0>         0.0000
     43 H21         2.5724   -3.8633    1.8473 H         1 <0>         0.0000
@<TRIPOS>BOND
     1    1    2 ar
     2    1    3 ar
     3    1   23 1
     4    2    4 ar
     5    2   24 1
     6    3    5 ar
     7    3   25 1
     8    4    6 ar
     9    4   26 1
    10    5    6 ar
    11    5    7 1
    12    6   17 1
    13    7   18 am
    14    7   20 2
    15    8   16 1
    16    8   19 am
    17    8   21 2
    18    9   10 1
    19    9   13 1
    20    9   27 1
    21    9   28 1
    22   10   19 1
    23   10   29 1
    24   10   30 1
    25   11   12 1
    26   11   19 1
    27   11   31 1
    28   11   32 1
    29   12   13 1
    30   12   14 1
    31   12   33 1
    32   13   15 1
    33   13   22 1
    34   14   34 1
    35   14   35 1
    36   14   36 1
    37   15   37 1
    38   15   38 1
    39   15   39 1
    40   16   18 1
    41   16   40 1
    42   16   41 1
    43   17   18 1
    44   17   42 1
    45   22   43 1
