@<TRIPOS>MOLECULE
*****
   43    45     0     0     0
SMALL
NO_CHARGES

@<TRIPOS>ATOM
      1 C1         -2.7595    3.7005    5.0150 C.ar      1 <0>         0.0000
      2 C2         -2.3300    2.8364    6.0457 C.ar      1 <0>         0.0000
      3 C3         -3.1923    3.1848    3.7951 C.ar      1 <0>         0.0000
      4 C4         -2.3345    1.4498    5.8921 C.ar      1 <0>         0.0000
      5 C5         -3.1886    1.7959    3.6291 C.ar      1 <0>         0.0000
      6 C6         -2.7707    0.9429    4.6627 C.ar      1 <0>         0.0000
      7 C7         -3.4986    0.9601    2.4603 C.2       1 <0>         0.0000
      8 C8         -1.6755   -1.7160    1.8679 C.2       1 <0>         0.0000
      9 C9         -1.2537    0.6040   -0.7089 C.3       1 <0>         0.0000
     10 C10        -1.7448   -0.8325   -0.4985 C.3       1 <0>         0.0000
     11 C11         0.3680   -1.4398    0.5757 C.3       1 <0>         0.0000
     12 C12         0.9024    0.0012    0.4867 C.3       1 <0>         0.0000
     13 C13         0.2817    0.7036   -0.7447 C.3       1 <0>         0.0000
     14 C14         0.6862    0.7580    1.8059 C.3       1 <0>         0.0000
     15 C15         0.7274    2.1621   -0.8751 C.3       1 <0>         0.0000
     16 C16        -3.1817   -1.5031    2.0793 C.3       1 <0>         0.0000
     17 N1         -2.9046   -0.3977    4.2729 N.pl3     1 <0>         0.0000
     18 N2         -3.3373   -0.3378    2.9224 N.am      1 <0>         0.0000
     19 N3         -1.0993   -1.4328    0.6760 N.am      1 <0>         0.0000
     20 O1         -3.8260    1.2605    1.3067 O.2       1 <0>         0.0000
     21 O2         -1.0257   -2.0788    2.8666 O.2       1 <0>         0.0000
     22 O3          0.7896   -0.0495   -1.8740 O.3       1 <0>         0.0000
     23 H1         -2.7495    4.7740    5.1805 H         1 <0>         0.0000
     24 H2         -1.9913    3.2620    6.9868 H         1 <0>         0.0000
     25 H3         -3.5204    3.8297    2.9847 H         1 <0>         0.0000
     26 H4         -2.0123    0.7919    6.6943 H         1 <0>         0.0000
     27 H5         -1.6646    0.9813   -1.6546 H         1 <0>         0.0000
     28 H6         -1.6673    1.2377    0.0793 H         1 <0>         0.0000
     29 H7         -2.8259   -0.8298   -0.3901 H         1 <0>         0.0000
     30 H8         -1.4878   -1.4494   -1.3666 H         1 <0>         0.0000
     31 H9          0.6447   -1.9955   -0.3241 H         1 <0>         0.0000
     32 H10         0.7656   -1.9513    1.4506 H         1 <0>         0.0000
     33 H11         1.9798   -0.0691    0.2937 H         1 <0>         0.0000
     34 H12        -0.3732    0.9354    2.0142 H         1 <0>         0.0000
     35 H13         1.1901    1.7280    1.8003 H         1 <0>         0.0000
     36 H14         1.0872    0.1768    2.6410 H         1 <0>         0.0000
     37 H15         1.8199    2.2301   -0.8673 H         1 <0>         0.0000
     38 H16         0.3292    2.7843   -0.0696 H         1 <0>         0.0000
     39 H17         0.3661    2.5837   -1.8214 H         1 <0>         0.0000
     40 H18        -3.5730   -2.3811    2.5992 H         1 <0>         0.0000
     41 H19        -3.7727   -1.3224    1.1850 H         1 <0>         0.0000
     42 H20        -2.0604   -0.9778    4.3336 H         1 <0>         0.0000
     43 H21         0.4567    0.3719   -2.6827 H         1 <0>         0.0000
@<TRIPOS>BOND
     1    1    2 ar
     2    1    3 ar
     3    1   23 1
     4    2    4 ar
     5    2   24 1
     6    3    5 ar
     7    3   25 1
     8    4    6 ar
     9    4   26 1
    10    5    6 ar
    11    5    7 1
    12    6   17 1
    13    7   18 am
    14    7   20 2
    15    8   16 1
    16    8   19 am
    17    8   21 2
    18    9   10 1
    19    9   13 1
    20    9   27 1
    21    9   28 1
    22   10   19 1
    23   10   29 1
    24   10   30 1
    25   11   12 1
    26   11   19 1
    27   11   31 1
    28   11   32 1
    29   12   13 1
    30   12   14 1
    31   12   33 1
    32   13   15 1
    33   13   22 1
    34   14   34 1
    35   14   35 1
    36   14   36 1
    37   15   37 1
    38   15   38 1
    39   15   39 1
    40   16   18 1
    41   16   40 1
    42   16   41 1
    43   17   18 1
    44   17   42 1
    45   22   43 1
