@<TRIPOS>MOLECULE
*****
   43    46     0     0     0
SMALL
NO_CHARGES

@<TRIPOS>ATOM
      1 C1          7.7736    1.1954   -3.9895 C.ar      1 <0>         0.0000
      2 C2          8.8468    1.0421   -4.8423 C.ar      1 <0>         0.0000
      3 C3          8.5127   -1.3790   -4.8866 C.ar      1 <0>         0.0000
      4 C4          5.5742   -2.0992   -2.6943 C.ar      1 <0>         0.0000
      5 C5          7.4097   -1.2252   -4.0087 C.ar      1 <0>         0.0000
      6 C6          7.0246    0.0715   -3.5472 C.ar      1 <0>         0.0000
      7 C7          6.6329   -2.3273   -3.5459 C.ar      1 <0>         0.0000
      8 C8          9.1960   -0.2537   -5.2765 C.ar      1 <0>         0.0000
      9 C9          5.2818   -0.7667   -2.2974 C.ar      1 <0>         0.0000
     10 C10        -0.8138   -0.8147   -3.3922 C.3       1 <0>         0.0000
     11 C11        -1.2152   -0.9056   -1.0282 C.3       1 <0>         0.0000
     12 C12         1.8431   -1.2759   -0.6734 C.3       1 <0>         0.0000
     13 C13         2.1894   -1.2067   -2.7562 C.3       1 <0>         0.0000
     14 C14        -1.9971    0.1382   -3.5297 C.3       1 <0>         0.0000
     15 C15        -2.3900    0.0491   -1.2176 C.3       1 <0>         0.0000
     16 C16         0.9405   -1.5355   -1.9040 C.3       1 <0>         0.0000
     17 C17         4.1386   -0.5133   -1.3344 C.3       1 <0>         0.0000
     18 N1          5.9677    0.2853   -2.7059 N.ar      1 <0>         0.0000
     19 N2         -0.2078   -0.6662   -2.0657 N.3       1 <0>         0.0000
     20 N3          3.0287   -1.4260   -1.5507 N.3       1 <0>         0.0000
     21 O1         -2.9713   -0.0906   -2.5127 O.3       1 <0>         0.0000
     22 O2          6.9965   -3.5671   -3.9873 O.3       1 <0>         0.0000
     23 F1         10.2571   -0.3746   -6.1171 F         1 <0>         0.0000
     24 H1          7.4727    2.1756   -3.6331 H         1 <0>         0.0000
     25 H2          9.4291    1.8909   -5.1880 H         1 <0>         0.0000
     26 H3          8.8101   -2.3597   -5.2408 H         1 <0>         0.0000
     27 H4          4.9451   -2.9043   -2.3226 H         1 <0>         0.0000
     28 H5         -1.1585   -1.8519   -3.5660 H         1 <0>         0.0000
     29 H6         -0.0658   -0.5771   -4.1568 H         1 <0>         0.0000
     30 H7         -0.7642   -0.7354   -0.0442 H         1 <0>         0.0000
     31 H8         -1.5845   -1.9485   -1.0556 H         1 <0>         0.0000
     32 H9          1.7054   -0.2476   -0.3048 H         1 <0>         0.0000
     33 H10         1.8035   -1.9799    0.1645 H         1 <0>         0.0000
     34 H11         2.4303   -1.8547   -3.6050 H         1 <0>         0.0000
     35 H12         2.1772   -0.1561   -3.0839 H         1 <0>         0.0000
     36 H13        -1.6392    1.1778   -3.4777 H         1 <0>         0.0000
     37 H14        -2.5064   -0.0138   -4.4849 H         1 <0>         0.0000
     38 H15        -3.1836   -0.1677   -0.4978 H         1 <0>         0.0000
     39 H16        -2.0484    1.0852   -1.0705 H         1 <0>         0.0000
     40 H17         0.6705   -2.6032   -1.9843 H         1 <0>         0.0000
     41 H18         4.5022   -0.6635   -0.3085 H         1 <0>         0.0000
     42 H19         3.8476    0.5462   -1.4251 H         1 <0>         0.0000
     43 H20         6.3989   -4.2283   -3.6011 H         1 <0>         0.0000
@<TRIPOS>BOND
     1    1    2 ar
     2    1    6 ar
     3    1   24 1
     4    2    8 ar
     5    2   25 1
     6    3    5 ar
     7    3    8 ar
     8    3   26 1
     9    4    7 ar
    10    4    9 ar
    11    4   27 1
    12    5    6 ar
    13    5    7 ar
    14    6   18 ar
    15    7   22 1
    16    8   23 1
    17    9   17 1
    18    9   18 ar
    19   10   14 1
    20   10   19 1
    21   10   28 1
    22   10   29 1
    23   11   15 1
    24   11   19 1
    25   11   30 1
    26   11   31 1
    27   12   16 1
    28   12   20 1
    29   12   32 1
    30   12   33 1
    31   13   16 1
    32   13   20 1
    33   13   34 1
    34   13   35 1
    35   14   21 1
    36   14   36 1
    37   14   37 1
    38   15   21 1
    39   15   38 1
    40   15   39 1
    41   16   19 1
    42   16   40 1
    43   17   20 1
    44   17   41 1
    45   17   42 1
    46   22   43 1
