@<TRIPOS>MOLECULE
*****
   39    42     0     0     0
SMALL
NO_CHARGES

@<TRIPOS>ATOM
      1 C1         -3.6020   -4.3622    5.7021 C.ar      1 <0>         0.0000
      2 C2          3.5522   -0.3789    1.6356 C.ar      1 <0>         0.0000
      3 C3         -3.5201   -4.7087    4.3695 C.ar      1 <0>         0.0000
      4 C4          2.2645   -0.4090    1.1035 C.ar      1 <0>         0.0000
      5 C5         -3.4038   -3.0215    6.1103 C.ar      1 <0>         0.0000
      6 C6         -2.8614   -2.9627    1.1142 C.ar      1 <0>         0.0000
      7 C7          4.6436   -0.3393    0.7602 C.ar      1 <0>         0.0000
      8 C8          3.2695   -0.3569   -1.0683 C.ar      1 <0>         0.0000
      9 C9         -3.2340   -3.7244    3.3855 C.ar      1 <0>         0.0000
     10 C10         2.1035   -0.3978   -0.2912 C.ar      1 <0>         0.0000
     11 C11        -3.0268   -2.3604    3.7737 C.ar      1 <0>         0.0000
     12 C12        -3.1399   -3.9951    1.9859 C.ar      1 <0>         0.0000
     13 C13        -3.1272   -2.0647    5.1641 C.ar      1 <0>         0.0000
     14 C14        -2.6621   -1.6557    1.6212 C.ar      1 <0>         0.0000
     15 C15        -0.2917    0.5829   -0.3750 C.3       1 <0>         0.0000
     16 C16        -0.2237   -1.5224   -0.4009 C.3       1 <0>         0.0000
     17 C17         0.7477   -0.4309   -0.9416 C.3       1 <0>         0.0000
     18 C18        -2.2903   -0.5323    0.6759 C.3       1 <0>         0.0000
     19 N1          4.5153   -0.3283   -0.5728 N.ar      1 <0>         0.0000
     20 N2         -2.7451   -1.3537    2.9076 N.ar      1 <0>         0.0000
     21 N3         -0.8509   -0.4989    0.4630 N.3       1 <0>         0.0000
     22 O1         -3.3190   -5.2411    1.4641 O.3       1 <0>         0.0000
     23 F1         -2.9399   -0.7906    5.5570 F         1 <0>         0.0000
     24 H1         -3.8200   -5.1186    6.4502 H         1 <0>         0.0000
     25 H2          3.7147   -0.3858    2.7101 H         1 <0>         0.0000
     26 H3         -3.6789   -5.7501    4.0966 H         1 <0>         0.0000
     27 H4          1.3883   -0.4409    1.7471 H         1 <0>         0.0000
     28 H5         -3.4654   -2.7345    7.1555 H         1 <0>         0.0000
     29 H6         -2.7986   -3.1643    0.0497 H         1 <0>         0.0000
     30 H7          5.6618   -0.3155    1.1462 H         1 <0>         0.0000
     31 H8          3.1921   -0.3469   -2.1561 H         1 <0>         0.0000
     32 H9          0.0926    1.4425    0.1847 H         1 <0>         0.0000
     33 H10        -0.9862    0.9332   -1.1564 H         1 <0>         0.0000
     34 H11        -0.8956   -1.8946   -1.1929 H         1 <0>         0.0000
     35 H12         0.2148   -2.3726    0.1315 H         1 <0>         0.0000
     36 H13         0.8536   -0.4146   -2.0281 H         1 <0>         0.0000
     37 H14        -2.8387   -0.6441   -0.2795 H         1 <0>         0.0000
     38 H15        -2.5882    0.4130    1.1365 H         1 <0>         0.0000
     39 H16        -3.5142   -5.8750    2.1714 H         1 <0>         0.0000
@<TRIPOS>BOND
     1    1    3 ar
     2    1    5 ar
     3    1   24 1
     4    2    4 ar
     5    2    7 ar
     6    2   25 1
     7    3    9 ar
     8    3   26 1
     9    4   10 ar
    10    4   27 1
    11    5   13 ar
    12    5   28 1
    13    6   12 ar
    14    6   14 ar
    15    6   29 1
    16    7   19 ar
    17    7   30 1
    18    8   10 ar
    19    8   19 ar
    20    8   31 1
    21    9   11 ar
    22    9   12 ar
    23   10   17 1
    24   11   13 ar
    25   11   20 ar
    26   12   22 1
    27   13   23 1
    28   14   18 1
    29   14   20 ar
    30   15   17 1
    31   15   21 1
    32   15   32 1
    33   15   33 1
    34   16   17 1
    35   16   21 1
    36   16   34 1
    37   16   35 1
    38   17   36 1
    39   18   21 1
    40   18   37 1
    41   18   38 1
    42   22   39 1
