@<TRIPOS>MOLECULE
*****
   39    42     0     0     0
SMALL
NO_CHARGES

@<TRIPOS>ATOM
      1 C1         -2.9049   -5.6241    4.5295 C.ar      1 <0>         0.0000
      2 C2          3.3236   -1.4700   -0.5112 C.ar      1 <0>         0.0000
      3 C3         -3.8795   -4.8009    4.0014 C.ar      1 <0>         0.0000
      4 C4          2.1946   -0.9179    0.0912 C.ar      1 <0>         0.0000
      5 C5         -1.5341   -5.2965    4.3959 C.ar      1 <0>         0.0000
      6 C6         -4.0075   -1.5816    2.1003 C.ar      1 <0>         0.0000
      7 C7          4.4969   -0.7094   -0.5717 C.ar      1 <0>         0.0000
      8 C8          3.4988    1.0466    0.5011 C.ar      1 <0>         0.0000
      9 C9         -3.5058   -3.6164    3.3186 C.ar      1 <0>         0.0000
     10 C10         2.2700    0.3818    0.6163 C.ar      1 <0>         0.0000
     11 C11        -2.1310   -3.2606    3.1654 C.ar      1 <0>         0.0000
     12 C12        -4.4530   -2.7132    2.7481 C.ar      1 <0>         0.0000
     13 C13        -1.1750   -4.1470    3.7320 C.ar      1 <0>         0.0000
     14 C14        -2.6084   -1.3379    2.0064 C.ar      1 <0>         0.0000
     15 C15         0.2202    0.1342    2.1747 C.3       1 <0>         0.0000
     16 C16        -0.1842    1.1564    0.3757 C.3       1 <0>         0.0000
     17 C17         1.0910    1.0512    1.2676 C.3       1 <0>         0.0000
     18 C18        -2.1436   -0.0723    1.3114 C.3       1 <0>         0.0000
     19 N1          4.5944    0.5308   -0.0754 N.ar      1 <0>         0.0000
     20 N2         -1.6987   -2.1409    2.5197 N.ar      1 <0>         0.0000
     21 N3         -0.7261   -0.0427    1.0480 N.3       1 <0>         0.0000
     22 O1         -5.7708   -3.0385    2.8832 O.3       1 <0>         0.0000
     23 F1          0.1335   -3.8388    3.6081 F         1 <0>         0.0000
     24 H1         -3.1828   -6.5335    5.0544 H         1 <0>         0.0000
     25 H2          3.3029   -2.4741   -0.9262 H         1 <0>         0.0000
     26 H3         -4.9314   -5.0454    4.1006 H         1 <0>         0.0000
     27 H4          1.2626   -1.4741    0.1591 H         1 <0>         0.0000
     28 H5         -0.7585   -5.9354    4.8074 H         1 <0>         0.0000
     29 H6         -4.7096   -0.8780    1.6556 H         1 <0>         0.0000
     30 H7          5.3954   -1.1144   -1.0359 H         1 <0>         0.0000
     31 H8          3.6045    2.0559    0.9007 H         1 <0>         0.0000
     32 H9          0.6604   -0.7941    2.5426 H         1 <0>         0.0000
     33 H10        -0.2194    0.6883    3.0201 H         1 <0>         0.0000
     34 H11        -0.7537    2.0761    0.5926 H         1 <0>         0.0000
     35 H12        -0.0531    1.0560   -0.7076 H         1 <0>         0.0000
     36 H13         1.4010    1.9938    1.7233 H         1 <0>         0.0000
     37 H14        -2.6741    0.0206    0.3549 H         1 <0>         0.0000
     38 H15        -2.4703    0.7914    1.9299 H         1 <0>         0.0000
     39 H16        -6.3145   -2.3551    2.4581 H         1 <0>         0.0000
@<TRIPOS>BOND
     1    1    3 ar
     2    1    5 ar
     3    1   24 1
     4    2    4 ar
     5    2    7 ar
     6    2   25 1
     7    3    9 ar
     8    3   26 1
     9    4   10 ar
    10    4   27 1
    11    5   13 ar
    12    5   28 1
    13    6   12 ar
    14    6   14 ar
    15    6   29 1
    16    7   19 ar
    17    7   30 1
    18    8   10 ar
    19    8   19 ar
    20    8   31 1
    21    9   11 ar
    22    9   12 ar
    23   10   17 1
    24   11   13 ar
    25   11   20 ar
    26   12   22 1
    27   13   23 1
    28   14   18 1
    29   14   20 ar
    30   15   17 1
    31   15   21 1
    32   15   32 1
    33   15   33 1
    34   16   17 1
    35   16   21 1
    36   16   34 1
    37   16   35 1
    38   17   36 1
    39   18   21 1
    40   18   37 1
    41   18   38 1
    42   22   39 1
