@<TRIPOS>MOLECULE
*****
   27    29     0     0     0
SMALL
NO_CHARGES

@<TRIPOS>ATOM
      1 C1          8.2635   -5.2047    0.5115 C.ar      1 <0>         0.0000
      2 C2          9.0648   -5.4345   -0.6109 C.ar      1 <0>         0.0000
      3 C3          7.0511   -4.5374    0.3658 C.ar      1 <0>         0.0000
      4 C4          3.0576   -1.3454    1.9657 C.ar      1 <0>         0.0000
      5 C5          2.2394   -0.6677    2.8589 C.ar      1 <0>         0.0000
      6 C6          8.6474   -4.9897   -1.8658 C.ar      1 <0>         0.0000
      7 C7          0.4825   -0.6377    1.1803 C.ar      1 <0>         0.0000
      8 C8          2.6262   -1.6858    0.6665 C.ar      1 <0>         0.0000
      9 C9          6.5992   -4.0898   -0.8922 C.ar      1 <0>         0.0000
     10 C10         0.9486   -0.3160    2.4529 C.ar      1 <0>         0.0000
     11 C11         1.3175   -1.3205    0.2905 C.ar      1 <0>         0.0000
     12 C12         7.4264   -4.3234   -2.0083 C.ar      1 <0>         0.0000
     13 C13         5.2911   -3.4099   -0.9174 C.2       1 <0>         0.0000
     14 C14         3.5954   -2.3991   -0.1698 C.2       1 <0>         0.0000
     15 N1          4.7468   -2.8724    0.2346 N.2       1 <0>         0.0000
     16 N2          4.5164   -3.2854   -1.9778 N.2       1 <0>         0.0000
     17 O1          3.3861   -2.6083   -1.4841 O.3       1 <0>         0.0000
     18 Cl1        -0.1031    0.5407    3.5554 Cl        1 <0>         0.0000
     19 Cl2         0.6410   -1.6979   -1.2741 Cl        1 <0>         0.0000
     20 Br1         6.9909   -3.7275   -3.7739 Br        1 <0>         0.0000
     21 H1          8.5813   -5.5430    1.4935 H         1 <0>         0.0000
     22 H2         10.0148   -5.9532   -0.5153 H         1 <0>         0.0000
     23 H3          6.4207   -4.3476    1.2276 H         1 <0>         0.0000
     24 H4          4.0641   -1.6275    2.2545 H         1 <0>         0.0000
     25 H5          2.5924   -0.4119    3.8521 H         1 <0>         0.0000
     26 H6          9.2683   -5.1535   -2.7401 H         1 <0>         0.0000
     27 H7         -0.5217   -0.3656    0.8758 H         1 <0>         0.0000
@<TRIPOS>BOND
     1    1    2 ar
     2    1    3 ar
     3    1   21 1
     4    2    6 ar
     5    2   22 1
     6    3    9 ar
     7    3   23 1
     8    4    5 ar
     9    4    8 ar
    10    4   24 1
    11    5   10 ar
    12    5   25 1
    13    6   12 ar
    14    6   26 1
    15    7   10 ar
    16    7   11 ar
    17    7   27 1
    18    8   11 ar
    19    8   14 1
    20    9   12 ar
    21    9   13 1
    22   10   18 1
    23   11   19 1
    24   12   20 1
    25   13   15 1
    26   13   16 2
    27   14   15 2
    28   14   17 1
    29   16   17 1
