@<TRIPOS>MOLECULE
*****
   25    26     0     0     0
SMALL
NO_CHARGES

@<TRIPOS>ATOM
      1 C1          5.3382   -0.4504    4.1757 C.ar      1 <0>         0.0000
      2 C2          5.9656   -1.6635    3.8978 C.ar      1 <0>         0.0000
      3 C3          4.6070    0.1702    3.1603 C.ar      1 <0>         0.0000
      4 C4          0.9498   -0.5424    1.5336 C.ar      1 <0>         0.0000
      5 C5          1.2008    1.2335    3.1245 C.ar      1 <0>         0.0000
      6 C6          5.8364   -2.1983    2.6077 C.ar      1 <0>         0.0000
      7 C7         -0.0491   -1.0656    2.3507 C.ar      1 <0>         0.0000
      8 C8          1.5989    0.6393    1.9251 C.ar      1 <0>         0.0000
      9 C9          4.5444   -0.4394    1.8994 C.ar      1 <0>         0.0000
     10 C10         0.1896    0.6084    3.8620 C.ar      1 <0>         0.0000
     11 C11         3.7874    0.1884    0.7505 C.2       1 <0>         0.0000
     12 C12         2.7059    1.2271    1.0773 C.3       1 <0>         0.0000
     13 N1          5.1517   -1.6076    1.6277 N.ar      1 <0>         0.0000
     14 N2         -0.4294   -0.5012    3.5113 N.ar      1 <0>         0.0000
     15 O1          4.0011   -0.1367   -0.4030 O.2       1 <0>         0.0000
     16 Br1        -0.3404    1.4130    5.5343 Br        1 <0>         0.0000
     17 H1          5.4087    0.0027    5.1608 H         1 <0>         0.0000
     18 H2          6.5395   -2.1907    4.6545 H         1 <0>         0.0000
     19 H3          4.1048    1.1109    3.3542 H         1 <0>         0.0000
     20 H4          1.2227   -1.0494    0.6124 H         1 <0>         0.0000
     21 H5          1.6573    2.1503    3.4828 H         1 <0>         0.0000
     22 H6          6.3076   -3.1479    2.3576 H         1 <0>         0.0000
     23 H7         -0.5702   -1.9798    2.0746 H         1 <0>         0.0000
     24 H8          2.3112    1.5672    0.1166 H         1 <0>         0.0000
     25 H9          3.1485    2.0934    1.5791 H         1 <0>         0.0000
@<TRIPOS>BOND
     1    1    2 ar
     2    1    3 ar
     3    1   17 1
     4    2    6 ar
     5    2   18 1
     6    3    9 ar
     7    3   19 1
     8    4    7 ar
     9    4    8 ar
    10    4   20 1
    11    5    8 ar
    12    5   10 ar
    13    5   21 1
    14    6   13 ar
    15    6   22 1
    16    7   14 ar
    17    7   23 1
    18    8   12 1
    19    9   11 1
    20    9   13 ar
    21   10   14 ar
    22   10   16 1
    23   11   12 1
    24   11   15 2
    25   12   24 1
    26   12   25 1
