@<TRIPOS>MOLECULE
*****
   23    24     0     0     0
SMALL
NO_CHARGES

@<TRIPOS>ATOM
      1 C1         -1.8602    1.6133   -3.0539 C.2       1 <0>         0.0000
      2 C2         -2.4419    0.6063   -2.2344 C.2       1 <0>         0.0000
      3 C3         -0.5514    1.3450   -3.3815 C.2       1 <0>         0.0000
      4 C4         -1.5678   -0.4251   -1.9463 C.2       1 <0>         0.0000
      5 C5         -4.1205   -3.1765    0.9312 C.2       1 <0>         0.0000
      6 C6         -6.1627   -3.1585    1.6771 C.2       1 <0>         0.0000
      7 C7         -1.7787   -1.6212   -1.1519 C.2       1 <0>         0.0000
      8 N1         -4.0856   -3.6416    2.1535 N.2       1 <0>         0.0000
      9 N2         -5.4044   -3.6465    2.6299 N.2       1 <0>         0.0000
     10 N3         -2.9307   -1.8967   -0.6451 N.2       1 <0>         0.0000
     11 N4         -5.4081   -2.8522    0.5646 N.pl3     1 <0>         0.0000
     12 N5         -5.9192   -2.3776   -0.6542 N.3       1 <0>         0.0000
     13 N6         -3.0392   -3.0805    0.0609 N.pl3     1 <0>         0.0000
     14 S1         -0.0124   -0.1450   -2.6916 S.3       1 <0>         0.0000
     15 S2         -7.9001   -2.8837    1.7030 S.3       1 <0>         0.0000
     16 H1         -2.3833    2.5042   -3.3857 H         1 <0>         0.0000
     17 H2         -3.4572    0.6335   -1.8548 H         1 <0>         0.0000
     18 H3          0.1245    1.9378   -3.9843 H         1 <0>         0.0000
     19 H4         -0.9177   -2.2841   -0.9973 H         1 <0>         0.0000
     20 H5         -5.8139   -3.1174   -1.3499 H         1 <0>         0.0000
     21 H6         -5.3264   -1.6002   -0.9443 H         1 <0>         0.0000
     22 H7         -2.1851   -3.4531    0.4793 H         1 <0>         0.0000
     23 H8         -8.0047   -3.3339    2.9703 H         1 <0>         0.0000
@<TRIPOS>BOND
     1    1    2 1
     2    1    3 2
     3    1   16 1
     4    2    4 2
     5    2   17 1
     6    3   14 1
     7    3   18 1
     8    4    7 1
     9    4   14 1
    10    5    8 2
    11    5   11 1
    12    5   13 1
    13    6    9 2
    14    6   11 1
    15    6   15 1
    16    7   10 2
    17    7   19 1
    18    8    9 1
    19   10   13 1
    20   11   12 1
    21   12   20 1
    22   12   21 1
    23   13   22 1
    24   15   23 1
