@<TRIPOS>MOLECULE
*****
   34    36     0     0     0
SMALL
NO_CHARGES

@<TRIPOS>ATOM
      1 C1          1.2189   -0.5742    2.1523 C.2       1 <0>         0.0000
      2 C2          4.5801    0.7444    3.6568 C.3       1 <0>         0.0000
      3 C3          4.5910   -0.4981    2.7857 C.3       1 <0>         0.0000
      4 C4          0.3022    1.1207   -0.7350 C.3       1 <0>         0.0000
      5 C5         -0.4452   -1.2810   -0.7462 C.3       1 <0>         0.0000
      6 C6          0.0176    1.1608    0.7736 C.3       1 <0>         0.0000
      7 C7         -0.7076   -1.1759    0.7617 C.3       1 <0>         0.0000
      8 C8         -2.0429    0.5456   -1.6807 C.3       1 <0>         0.0000
      9 C9         -0.4843    0.0669   -2.9731 C.3       1 <0>         0.0000
     10 C10         3.3162   -0.0656    3.4652 C.3       1 <0>         0.0000
     11 C11        -0.5824    0.0817   -1.4307 C.3       1 <0>         0.0000
     12 C12         2.1841    0.5095    2.6458 C.3       1 <0>         0.0000
     13 N1          0.1672   -0.1672    1.3622 N.am      1 <0>         0.0000
     14 O1          1.3641   -1.7535    2.4781 O.2       1 <0>         0.0000
     15 O2         -1.8537    0.5273   -3.1181 O.3       1 <0>         0.0000
     16 H1          5.0777    0.7009    4.6214 H         1 <0>         0.0000
     17 H2          4.6490    1.7110    3.1634 H         1 <0>         0.0000
     18 H3          4.6613   -0.3620    1.7094 H         1 <0>         0.0000
     19 H4          5.0920   -1.3869    3.1565 H         1 <0>         0.0000
     20 H5          0.1363    2.1129   -1.1718 H         1 <0>         0.0000
     21 H6          1.3583    0.8652   -0.8928 H         1 <0>         0.0000
     22 H7          0.5689   -1.6703   -0.9010 H         1 <0>         0.0000
     23 H8         -1.1414   -1.9998   -1.1945 H         1 <0>         0.0000
     24 H9          0.6675    1.8763    1.2738 H         1 <0>         0.0000
     25 H10        -1.0142    1.4988    0.9446 H         1 <0>         0.0000
     26 H11        -1.7511   -0.8848    0.9453 H         1 <0>         0.0000
     27 H12        -0.5229   -2.1238    1.2647 H         1 <0>         0.0000
     28 H13        -2.8241   -0.1588   -1.3676 H         1 <0>         0.0000
     29 H14        -2.2967    1.5512   -1.3209 H         1 <0>         0.0000
     30 H15         0.2293    0.7764   -3.4110 H         1 <0>         0.0000
     31 H16        -0.3404   -0.9230   -3.4244 H         1 <0>         0.0000
     32 H17         2.9975   -0.6781    4.3029 H         1 <0>         0.0000
     33 H18         2.5958    1.0574    1.7896 H         1 <0>         0.0000
     34 H19         1.6216    1.2446    3.2368 H         1 <0>         0.0000
@<TRIPOS>BOND
     1    1   12 1
     2    1   13 am
     3    1   14 2
     4    2    3 1
     5    2   10 1
     6    2   16 1
     7    2   17 1
     8    3   10 1
     9    3   18 1
    10    3   19 1
    11    4    6 1
    12    4   11 1
    13    4   20 1
    14    4   21 1
    15    5    7 1
    16    5   11 1
    17    5   22 1
    18    5   23 1
    19    6   13 1
    20    6   24 1
    21    6   25 1
    22    7   13 1
    23    7   26 1
    24    7   27 1
    25    8   11 1
    26    8   15 1
    27    8   28 1
    28    8   29 1
    29    9   11 1
    30    9   15 1
    31    9   30 1
    32    9   31 1
    33   10   12 1
    34   10   32 1
    35   12   33 1
    36   12   34 1
