@<TRIPOS>MOLECULE
*****
   47    50     0     0     0
SMALL
NO_CHARGES

@<TRIPOS>ATOM
      1 C1          1.3231   -3.2909   -7.1757 C.1       1 <0>         0.0000
      2 C2         -2.2701   -4.1398   -6.8013 C.ar      1 <0>         0.0000
      3 C3         -2.4679   -3.9313   -5.4302 C.ar      1 <0>         0.0000
      4 C4         -1.0084   -3.9193   -7.3445 C.ar      1 <0>         0.0000
      5 C5         -1.4192   -3.5085   -4.6189 C.ar      1 <0>         0.0000
      6 C6          2.2622   -2.5042   -4.3834 C.2       1 <0>         0.0000
      7 C7          2.7321   -2.1374   -3.0845 C.2       1 <0>         0.0000
      8 C8          0.0580   -3.4922   -6.5321 C.ar      1 <0>         0.0000
      9 C9         -0.1294   -3.2763   -5.1412 C.ar      1 <0>         0.0000
     10 C10         0.9299   -2.8303   -4.2486 C.2       1 <0>         0.0000
     11 C11         1.6718   -2.2579   -2.2277 C.2       1 <0>         0.0000
     12 C12         1.1305    2.1119    0.3419 C.3       1 <0>         0.0000
     13 C13         0.8137    1.7079   -1.1226 C.3       1 <0>         0.0000
     14 C14        -0.8187    0.8974    1.4657 C.3       1 <0>         0.0000
     15 C15         1.3909   -0.3156    0.9798 C.3       1 <0>         0.0000
     16 C16        -1.0535   -0.0070   -0.8012 C.3       1 <0>         0.0000
     17 C17         0.7116    1.0178    1.3384 C.3       1 <0>         0.0000
     18 C18         0.4215    0.2255   -1.2169 C.3       1 <0>         0.0000
     19 C19        -2.9714    0.8339    0.3989 C.3       1 <0>         0.0000
     20 C20         1.4812   -1.9787   -0.7724 C.3       1 <0>         0.0000
     21 N1          2.3370   -3.1368   -7.7307 N.1       1 <0>         0.0000
     22 N2         -1.5347    0.9506    0.1933 N.3       1 <0>         0.0000
     23 N3          1.4235   -0.5498   -0.4697 N.3       1 <0>         0.0000
     24 O1          0.5693   -2.6790   -2.9240 O.3       1 <0>         0.0000
     25 H1         -3.0877   -4.4695   -7.4354 H         1 <0>         0.0000
     26 H2         -3.4477   -4.0999   -4.9914 H         1 <0>         0.0000
     27 H3         -0.8274   -4.0737   -8.4038 H         1 <0>         0.0000
     28 H4         -1.5862   -3.3508   -3.5596 H         1 <0>         0.0000
     29 H5          2.8402   -2.5237   -5.2946 H         1 <0>         0.0000
     30 H6          3.7287   -1.8126   -2.8172 H         1 <0>         0.0000
     31 H7          2.2066    2.2834    0.4547 H         1 <0>         0.0000
     32 H8          0.6291    3.0508    0.5968 H         1 <0>         0.0000
     33 H9          0.0014    2.3198   -1.5223 H         1 <0>         0.0000
     34 H10         1.6950    1.8650   -1.7513 H         1 <0>         0.0000
     35 H11        -1.0560   -0.0283    2.0287 H         1 <0>         0.0000
     36 H12        -1.1852    1.7345    2.0724 H         1 <0>         0.0000
     37 H13         2.4240   -0.3159    1.3541 H         1 <0>         0.0000
     38 H14         0.8651   -1.1311    1.5070 H         1 <0>         0.0000
     39 H15        -1.6813    0.1152   -1.6910 H         1 <0>         0.0000
     40 H16        -1.1884   -1.0554   -0.4683 H         1 <0>         0.0000
     41 H17         1.0714    1.2902    2.3379 H         1 <0>         0.0000
     42 H18         0.5107   -0.0866   -2.2604 H         1 <0>         0.0000
     43 H19        -3.4961    0.9700   -0.5523 H         1 <0>         0.0000
     44 H20        -3.3115    1.6143    1.0879 H         1 <0>         0.0000
     45 H21        -3.2724   -0.1456    0.8196 H         1 <0>         0.0000
     46 H22         0.5853   -2.5293   -0.4321 H         1 <0>         0.0000
     47 H23         2.3317   -2.3941   -0.2196 H         1 <0>         0.0000
@<TRIPOS>BOND
     1    1    8 1
     2    1   21 3
     3    2    3 ar
     4    2    4 ar
     5    2   25 1
     6    3    5 ar
     7    3   26 1
     8    4    8 ar
     9    4   27 1
    10    5    9 ar
    11    5   28 1
    12    6    7 1
    13    6   10 2
    14    6   29 1
    15    7   11 2
    16    7   30 1
    17    8    9 ar
    18    9   10 1
    19   10   24 1
    20   11   20 1
    21   11   24 1
    22   12   13 1
    23   12   17 1
    24   12   31 1
    25   12   32 1
    26   13   18 1
    27   13   33 1
    28   13   34 1
    29   14   17 1
    30   14   22 1
    31   14   35 1
    32   14   36 1
    33   15   17 1
    34   15   23 1
    35   15   37 1
    36   15   38 1
    37   16   18 1
    38   16   22 1
    39   16   39 1
    40   16   40 1
    41   17   41 1
    42   18   23 1
    43   18   42 1
    44   19   22 1
    45   19   43 1
    46   19   44 1
    47   19   45 1
    48   20   23 1
    49   20   46 1
    50   20   47 1
