@<TRIPOS>MOLECULE
*****
   43    45     0     0     0
SMALL
NO_CHARGES

@<TRIPOS>ATOM
      1 C1          1.6994   -1.8433    8.4851 C.ar      1 <0>         0.0000
      2 C2          1.8944   -0.4484    8.4025 C.ar      1 <0>         0.0000
      3 C3          1.3332   -2.5732    7.3550 C.ar      1 <0>         0.0000
      4 C4          1.7457    0.2451    7.2001 C.ar      1 <0>         0.0000
      5 C5          1.1676   -1.8828    6.1509 C.ar      1 <0>         0.0000
      6 C6          1.3882   -0.5005    6.0714 C.ar      1 <0>         0.0000
      7 C7          0.7696   -2.3489    4.8120 C.2       1 <0>         0.0000
      8 C8         -0.2343   -0.0687    2.0859 C.2       1 <0>         0.0000
      9 C9         -0.5661    1.7673   -0.8376 C.3       1 <0>         0.0000
     10 C10        -1.3767    0.9603    0.1805 C.3       1 <0>         0.0000
     11 C11         0.0057   -1.0220   -0.2291 C.3       1 <0>         0.0000
     12 C12         0.9036   -0.2683   -1.2307 C.3       1 <0>         0.0000
     13 C13         0.0875    0.8717   -1.9007 C.3       1 <0>         0.0000
     14 C14         2.2068    0.1964   -0.5647 C.3       1 <0>         0.0000
     15 C15         0.9267    1.7047   -2.8733 C.3       1 <0>         0.0000
     16 C16         0.6931   -1.1726    2.6165 C.3       1 <0>         0.0000
     17 N1          1.2293   -0.0577    4.7481 N.pl3     1 <0>         0.0000
     18 N2          0.7148   -1.1842    4.0531 N.am      1 <0>         0.0000
     19 N3         -0.5503   -0.1025    0.7638 N.am      1 <0>         0.0000
     20 O1          0.5422   -3.4810    4.3818 O.2       1 <0>         0.0000
     21 O2         -0.6499    0.8123    2.8509 O.2       1 <0>         0.0000
     22 O3         -1.0209    0.2811   -2.6196 O.3       1 <0>         0.0000
     23 H1          1.8333   -2.3454    9.4390 H         1 <0>         0.0000
     24 H2          2.1741    0.1016    9.2975 H         1 <0>         0.0000
     25 H3          1.1686   -3.6463    7.3945 H         1 <0>         0.0000
     26 H4          1.9094    1.3178    7.1442 H         1 <0>         0.0000
     27 H5         -1.2232    2.4836   -1.3414 H         1 <0>         0.0000
     28 H6          0.2084    2.3388   -0.3166 H         1 <0>         0.0000
     29 H7         -1.7340    1.5924    0.9918 H         1 <0>         0.0000
     30 H8         -2.2368    0.4952   -0.3120 H         1 <0>         0.0000
     31 H9         -0.8272   -1.4893   -0.7645 H         1 <0>         0.0000
     32 H10         0.5730   -1.8144    0.2566 H         1 <0>         0.0000
     33 H11         1.1670   -0.9830   -2.0242 H         1 <0>         0.0000
     34 H12         2.0204    0.9156    0.2386 H         1 <0>         0.0000
     35 H13         2.8853    0.6640   -1.2824 H         1 <0>         0.0000
     36 H14         2.7350   -0.6582   -0.1288 H         1 <0>         0.0000
     37 H15         1.4356    1.0630   -3.6041 H         1 <0>         0.0000
     38 H16         1.6895    2.2944   -2.3583 H         1 <0>         0.0000
     39 H17         0.2729    2.3924   -3.4177 H         1 <0>         0.0000
     40 H18         1.7043   -1.0217    2.2138 H         1 <0>         0.0000
     41 H19         0.3552   -2.1696    2.3251 H         1 <0>         0.0000
     42 H20         0.5840    0.7229    4.6051 H         1 <0>         0.0000
     43 H21        -0.6580   -0.2293   -3.3615 H         1 <0>         0.0000
@<TRIPOS>BOND
     1    1    2 ar
     2    1    3 ar
     3    1   23 1
     4    2    4 ar
     5    2   24 1
     6    3    5 ar
     7    3   25 1
     8    4    6 ar
     9    4   26 1
    10    5    6 ar
    11    5    7 1
    12    6   17 1
    13    7   18 am
    14    7   20 2
    15    8   16 1
    16    8   19 am
    17    8   21 2
    18    9   10 1
    19    9   13 1
    20    9   27 1
    21    9   28 1
    22   10   19 1
    23   10   29 1
    24   10   30 1
    25   11   12 1
    26   11   19 1
    27   11   31 1
    28   11   32 1
    29   12   13 1
    30   12   14 1
    31   12   33 1
    32   13   15 1
    33   13   22 1
    34   14   34 1
    35   14   35 1
    36   14   36 1
    37   15   37 1
    38   15   38 1
    39   15   39 1
    40   16   18 1
    41   16   40 1
    42   16   41 1
    43   17   18 1
    44   17   42 1
    45   22   43 1
