@<TRIPOS>MOLECULE
*****
   43    45     0     0     0
SMALL
NO_CHARGES

@<TRIPOS>ATOM
      1 C1          0.3042    0.0190   -7.1596 C.ar      1 <0>         0.0000
      2 C2          1.5984   -0.1174   -7.7034 C.ar      1 <0>         0.0000
      3 C3         -0.0465   -0.6591   -5.9930 C.ar      1 <0>         0.0000
      4 C4          2.5709   -0.9140   -7.0954 C.ar      1 <0>         0.0000
      5 C5          0.9184   -1.4707   -5.3904 C.ar      1 <0>         0.0000
      6 C6          2.2092   -1.5767   -5.9188 C.ar      1 <0>         0.0000
      7 C7          0.8681   -2.3007   -4.1805 C.2       1 <0>         0.0000
      8 C8          2.9636   -1.9761   -2.0228 C.2       1 <0>         0.0000
      9 C9          1.8886   -3.3238    0.7863 C.3       1 <0>         0.0000
     10 C10         3.2140   -3.3889    0.0157 C.3       1 <0>         0.0000
     11 C11         3.4592   -0.9665    0.1259 C.3       1 <0>         0.0000
     12 C12         2.1451   -0.8099    0.9126 C.3       1 <0>         0.0000
     13 C13         1.8031   -2.0939    1.7162 C.3       1 <0>         0.0000
     14 C14         2.1707    0.4617    1.7655 C.3       1 <0>         0.0000
     15 C15         2.6853   -2.2798    2.9535 C.3       1 <0>         0.0000
     16 C16         2.6631   -3.2584   -2.8314 C.3       1 <0>         0.0000
     17 N1          3.0145   -2.3903   -5.0965 N.pl3     1 <0>         0.0000
     18 N2          2.1173   -2.9509   -4.1339 N.am      1 <0>         0.0000
     19 N3          3.4189   -2.1499   -0.7384 N.am      1 <0>         0.0000
     20 O1         -0.0090   -2.4482   -3.3337 O.2       1 <0>         0.0000
     21 O2          2.8085   -0.8710   -2.5333 O.2       1 <0>         0.0000
     22 O3          0.4660   -1.9998    2.2442 O.3       1 <0>         0.0000
     23 H1         -0.4191    0.6582   -7.6578 H         1 <0>         0.0000
     24 H2          1.8504    0.4203   -8.6138 H         1 <0>         0.0000
     25 H3         -1.0376   -0.5736   -5.5565 H         1 <0>         0.0000
     26 H4          3.5715   -0.9958   -7.5114 H         1 <0>         0.0000
     27 H5          1.0695   -3.2720    0.0565 H         1 <0>         0.0000
     28 H6          1.7408   -4.2342    1.3773 H         1 <0>         0.0000
     29 H7          4.0570   -3.5066    0.7054 H         1 <0>         0.0000
     30 H8          3.2400   -4.2521   -0.6491 H         1 <0>         0.0000
     31 H9          3.6278   -0.0928   -0.5026 H         1 <0>         0.0000
     32 H10         4.3116   -1.0667    0.8081 H         1 <0>         0.0000
     33 H11         1.3533   -0.6984    0.1579 H         1 <0>         0.0000
     34 H12         3.0474    0.4913    2.4216 H         1 <0>         0.0000
     35 H13         1.2765    0.5289    2.3909 H         1 <0>         0.0000
     36 H14         2.2084    1.3481    1.1238 H         1 <0>         0.0000
     37 H15         2.5206   -1.4666    3.6631 H         1 <0>         0.0000
     38 H16         3.7485   -2.3055    2.7006 H         1 <0>         0.0000
     39 H17         2.4265   -3.2180    3.4527 H         1 <0>         0.0000
     40 H18         1.9074   -3.8580   -2.3209 H         1 <0>         0.0000
     41 H19         3.5633   -3.8695   -2.9424 H         1 <0>         0.0000
     42 H20         3.4653   -3.1457   -5.6137 H         1 <0>         0.0000
     43 H21        -0.1432   -1.8909    1.4952 H         1 <0>         0.0000
@<TRIPOS>BOND
     1    1    2 ar
     2    1    3 ar
     3    1   23 1
     4    2    4 ar
     5    2   24 1
     6    3    5 ar
     7    3   25 1
     8    4    6 ar
     9    4   26 1
    10    5    6 ar
    11    5    7 1
    12    6   17 1
    13    7   18 am
    14    7   20 2
    15    8   16 1
    16    8   19 am
    17    8   21 2
    18    9   10 1
    19    9   13 1
    20    9   27 1
    21    9   28 1
    22   10   19 1
    23   10   29 1
    24   10   30 1
    25   11   12 1
    26   11   19 1
    27   11   31 1
    28   11   32 1
    29   12   13 1
    30   12   14 1
    31   12   33 1
    32   13   15 1
    33   13   22 1
    34   14   34 1
    35   14   35 1
    36   14   36 1
    37   15   37 1
    38   15   38 1
    39   15   39 1
    40   16   18 1
    41   16   40 1
    42   16   41 1
    43   17   18 1
    44   17   42 1
    45   22   43 1
