@<TRIPOS>MOLECULE
*****
   41    43     0     0     0
SMALL
NO_CHARGES

@<TRIPOS>ATOM
      1 C1          2.6967   -4.9058   -0.4266 C.ar      1 <0>         0.0000
      2 C2          1.9045   -4.6062   -1.5417 C.ar      1 <0>         0.0000
      3 C3          3.6728   -3.9956   -0.0112 C.ar      1 <0>         0.0000
      4 C4          2.0812   -3.4021   -2.2272 C.ar      1 <0>         0.0000
      5 C5          3.8466   -2.7904   -0.7003 C.ar      1 <0>         0.0000
      6 C6          3.0502   -2.4764   -1.8083 C.ar      1 <0>         0.0000
      7 C7          1.8600   -0.4299   -2.7264 C.2       1 <0>         0.0000
      8 C8         -0.9060    1.0548   -0.6652 C.3       1 <0>         0.0000
      9 C9          1.0756   -1.0814    0.5735 C.3       1 <0>         0.0000
     10 C10        -0.0656    0.7500   -1.9024 C.3       1 <0>         0.0000
     11 C11         1.7350    0.0244   -0.2633 C.3       1 <0>         0.0000
     12 C12        -2.5323    0.2161    1.1039 C.3       1 <0>         0.0000
     13 C13        -1.3972   -0.1731    0.1241 C.3       1 <0>         0.0000
     14 C14        -0.3560   -0.8271    1.0475 C.3       1 <0>         0.0000
     15 C15         3.1967   -1.1545   -2.5369 C.3       1 <0>         0.0000
     16 N1         -1.9466    0.9171    2.2680 N.pl3     1 <0>         0.0000
     17 N2          1.2228    0.0941   -1.6304 N.am      1 <0>         0.0000
     18 O1          1.3602   -0.3450   -3.8528 O.2       1 <0>         0.0000
     19 O2          0.5902    1.3342    2.4788 O.2       1 <0>         0.0000
     20 O3         -0.4237   -0.6203    3.7454 O.2       1 <0>         0.0000
     21 S1         -0.3923    0.2380    2.5611 S.o2      1 <0>         0.0000
     22 H1          2.5559   -5.8401    0.1103 H         1 <0>         0.0000
     23 H2          1.1479   -5.3116   -1.8763 H         1 <0>         0.0000
     24 H3          4.2955   -4.2193    0.8511 H         1 <0>         0.0000
     25 H4          1.4587   -3.1682   -3.0878 H         1 <0>         0.0000
     26 H5          4.6031   -2.0844   -0.3636 H         1 <0>         0.0000
     27 H6         -0.3881    1.7580   -0.0065 H         1 <0>         0.0000
     28 H7         -1.7899    1.5868   -1.0369 H         1 <0>         0.0000
     29 H8          1.0704   -2.0026   -0.0142 H         1 <0>         0.0000
     30 H9          1.7013   -1.2848    1.4495 H         1 <0>         0.0000
     31 H10        -0.6305    0.1078   -2.5844 H         1 <0>         0.0000
     32 H11         0.1170    1.6831   -2.4491 H         1 <0>         0.0000
     33 H12         1.6276    0.9946    0.2252 H         1 <0>         0.0000
     34 H13         2.8038   -0.1730   -0.3021 H         1 <0>         0.0000
     35 H14        -3.2737    0.8715    0.6418 H         1 <0>         0.0000
     36 H15        -3.0514   -0.6773    1.4650 H         1 <0>         0.0000
     37 H16        -1.7668   -0.9253   -0.5827 H         1 <0>         0.0000
     38 H17        -0.7667   -1.7687    1.4244 H         1 <0>         0.0000
     39 H18         3.9249   -0.5172   -2.0262 H         1 <0>         0.0000
     40 H19         3.5670   -1.3202   -3.5513 H         1 <0>         0.0000
     41 H20        -1.8008    1.9086    2.0808 H         1 <0>         0.0000
@<TRIPOS>BOND
     1    1    3 ar
     2    1    2 ar
     3    1   22 1
     4    2    4 ar
     5    2   23 1
     6    3    5 ar
     7    3   24 1
     8    4    6 ar
     9    4   25 1
    10    5    6 ar
    11    5   26 1
    12    6   15 1
    13    7   15 1
    14    7   17 am
    15    7   18 2
    16    8   10 1
    17    8   13 1
    18    8   27 1
    19    8   28 1
    20    9   11 1
    21    9   14 1
    22    9   29 1
    23    9   30 1
    24   10   17 1
    25   10   31 1
    26   10   32 1
    27   11   17 1
    28   11   33 1
    29   11   34 1
    30   12   13 1
    31   12   16 1
    32   12   35 1
    33   12   36 1
    34   13   14 1
    35   13   37 1
    36   14   21 1
    37   14   38 1
    38   15   39 1
    39   15   40 1
    40   16   21 1
    41   16   41 1
    42   19   21 2
    43   20   21 2
