@<TRIPOS>MOLECULE
*****
   19    19     0     0     0
SMALL
NO_CHARGES

@<TRIPOS>ATOM
      1 C1          4.7560    1.2290    1.4530 C.ar      1 <0>         0.0000
      2 C2          5.8280    1.2440    0.5640 C.ar      1 <0>         0.0000
      3 C3          3.6140    0.4840    1.1640 C.ar      1 <0>         0.0000
      4 C4          5.7680    0.5110   -0.6190 C.ar      1 <0>         0.0000
      5 C5          3.5430   -0.2430   -0.0270 C.ar      1 <0>         0.0000
      6 C6          4.6310   -0.2380   -0.9200 C.ar      1 <0>         0.0000
      7 C7          1.1050   -0.8870    0.0260 C.2       1 <0>         0.0000
      8 C8          0.1290   -1.8860   -0.5320 C.3       1 <0>         0.0000
      9 N1          2.4030   -1.0320   -0.3760 N.am      1 <0>         0.0000
     10 O1          0.7610    0.0060    0.7660 O.2       1 <0>         0.0000
     11 Cl1         4.5830   -1.1590   -2.3930 Cl        1 <0>         0.0000
     12 H1          4.8070    1.7850    2.3540 H         1 <0>         0.0000
     13 H2          6.6930    1.8150    0.7910 H         1 <0>         0.0000
     14 H3          2.8120    0.4720    1.8550 H         1 <0>         0.0000
     15 H4          6.5840    0.5180   -1.2950 H         1 <0>         0.0000
     16 H5         -0.8360   -1.6610   -0.1010 H         1 <0>         0.0000
     17 H6          0.4780   -2.8670   -0.2440 H         1 <0>         0.0000
     18 H7          0.1280   -1.7620   -1.6050 H         1 <0>         0.0000
     19 H8          2.5670   -1.7640   -1.0800 H         1 <0>         0.0000
@<TRIPOS>BOND
     1    1    2 ar
     2    1    3 ar
     3    1   12 1
     4    2    4 ar
     5    2   13 1
     6    3    5 ar
     7    3   14 1
     8    4    6 ar
     9    4   15 1
    10    5    6 ar
    11    5    9 1
    12    6   11 1
    13    7    8 1
    14    7    9 am
    15    7   10 2
    16    8   16 1
    17    8   17 1
    18    8   18 1
    19    9   19 1
