@<TRIPOS>MOLECULE
*****
   42    43     0     0     0
SMALL
NO_CHARGES

@<TRIPOS>ATOM
      1 C1          6.1424    2.2642    6.2575 C.1       1 <0>         0.0000
      2 C2          6.5814    2.5531    7.3532 C.1       1 <0>         0.0000
      3 C3          1.1493    0.8650   -7.2932 C.ar      1 <0>         0.0000
      4 C4          1.5257    1.9981   -6.5579 C.ar      1 <0>         0.0000
      5 C5          0.8199   -0.3079   -6.6130 C.ar      1 <0>         0.0000
      6 C6          4.2633    1.6277    4.7923 C.ar      1 <0>         0.0000
      7 C7          6.4689    1.8880    3.8366 C.ar      1 <0>         0.0000
      8 C8          1.5717    1.9563   -5.1665 C.ar      1 <0>         0.0000
      9 C9          0.8610   -0.3657   -5.2132 C.ar      1 <0>         0.0000
     10 C10         3.7497    1.2962    3.5368 C.ar      1 <0>         0.0000
     11 C11         5.9677    1.5585    2.5852 C.ar      1 <0>         0.0000
     12 C12         5.6246    1.9280    4.9679 C.ar      1 <0>         0.0000
     13 C13         1.2393    0.7725   -4.4877 C.ar      1 <0>         0.0000
     14 C14         4.6037    1.2592    2.4241 C.ar      1 <0>         0.0000
     15 C15         7.1205    2.8654    8.6769 C.3       1 <0>         0.0000
     16 C16         1.2163   -0.0322   -0.8984 C.3       1 <0>         0.0000
     17 C17         2.6663    0.3240   -0.5527 C.3       1 <0>         0.0000
     18 C18         1.0169   -0.3503   -2.3735 C.3       1 <0>         0.0000
     19 C19         2.8323    0.6346    0.9267 C.3       1 <0>         0.0000
     20 O1          6.9494    4.2627    8.9583 O.3       1 <0>         0.0000
     21 O2          1.3141    0.8310   -3.1207 O.3       1 <0>         0.0000
     22 O3          4.2102    0.9464    1.1547 O.3       1 <0>         0.0000
     23 H1          1.1147    0.8998   -8.3784 H         1 <0>         0.0000
     24 H2          1.7857    2.9196   -7.0726 H         1 <0>         0.0000
     25 H3          0.5258   -1.1945   -7.1691 H         1 <0>         0.0000
     26 H4          3.6004    1.6575    5.6521 H         1 <0>         0.0000
     27 H5          7.5230    2.1210    3.9544 H         1 <0>         0.0000
     28 H6          1.8625    2.8256   -4.5836 H         1 <0>         0.0000
     29 H7          0.5989   -1.2898   -4.7109 H         1 <0>         0.0000
     30 H8          2.6936    1.0728    3.4401 H         1 <0>         0.0000
     31 H9          6.6118    1.5268    1.7113 H         1 <0>         0.0000
     32 H10         6.6008    2.2513    9.4275 H         1 <0>         0.0000
     33 H11         8.1856    2.5911    8.7004 H         1 <0>         0.0000
     34 H12         0.8936   -0.9088   -0.3218 H         1 <0>         0.0000
     35 H13         0.5472    0.7928   -0.6255 H         1 <0>         0.0000
     36 H14         2.9866    1.1893   -1.1397 H         1 <0>         0.0000
     37 H15         3.3301   -0.5080   -0.8161 H         1 <0>         0.0000
     38 H16         1.6833   -1.1664   -2.6858 H         1 <0>         0.0000
     39 H17        -0.0197   -0.6597   -2.5631 H         1 <0>         0.0000
     40 H18         2.5412   -0.2281    1.5422 H         1 <0>         0.0000
     41 H19         2.2055    1.4891    1.2166 H         1 <0>         0.0000
     42 H20         7.3189    4.4274    9.8408 H         1 <0>         0.0000
@<TRIPOS>BOND
     1    1    2 3
     2    1   12 1
     3    2   15 1
     4    3    5 ar
     5    3    4 ar
     6    3   23 1
     7    4    8 ar
     8    4   24 1
     9    5    9 ar
    10    5   25 1
    11    6   10 ar
    12    6   12 ar
    13    6   26 1
    14    7   11 ar
    15    7   12 ar
    16    7   27 1
    17    8   13 ar
    18    8   28 1
    19    9   13 ar
    20    9   29 1
    21   10   14 ar
    22   10   30 1
    23   11   14 ar
    24   11   31 1
    25   13   21 1
    26   14   22 1
    27   15   20 1
    28   15   32 1
    29   15   33 1
    30   16   17 1
    31   16   18 1
    32   16   34 1
    33   16   35 1
    34   17   19 1
    35   17   36 1
    36   17   37 1
    37   18   21 1
    38   18   38 1
    39   18   39 1
    40   19   22 1
    41   19   40 1
    42   19   41 1
    43   20   42 1
