@<TRIPOS>MOLECULE
*****
   23    23     0     0     0
SMALL
NO_CHARGES

@<TRIPOS>ATOM
      1 C1          1.6914   -1.2452   -0.2506 C.ar      1 <0>         0.0000
      2 C2          0.5986   -0.8718    0.5297 C.ar      1 <0>         0.0000
      3 C3          2.6418   -2.3514    1.6855 C.ar      1 <0>         0.0000
      4 C4          2.7234   -1.9855    0.3420 C.ar      1 <0>         0.0000
      5 C5          0.5187   -1.2360    1.8794 C.ar      1 <0>         0.0000
      6 C6          1.5381   -2.0028    2.4835 C.ar      1 <0>         0.0000
      7 C7          2.1060   -1.1859    4.8139 C.2       1 <0>         0.0000
      8 C8          1.5246   -2.3823    3.9331 C.3       1 <0>         0.0000
      9 C9          3.9163   -2.4116   -0.4528 C.3       1 <0>         0.0000
     10 C10        -0.6622   -0.8006    2.7098 C.3       1 <0>         0.0000
     11 O1          1.2757   -0.2673    5.0591 O.co2     1 <0>         0.0000
     12 O2          3.3121   -1.3025    5.1303 O.co2     1 <0>         0.0000
     13 F1          4.3955   -1.3899   -1.2537 F         1 <0>         0.0000
     14 F2          3.6037   -3.4479   -1.3281 F         1 <0>         0.0000
     15 F3         -1.5940   -1.8396    2.7998 F         1 <0>         0.0000
     16 F4         -1.3384    0.2446    2.0996 F         1 <0>         0.0000
     17 H1          1.7556   -0.9525   -1.2946 H         1 <0>         0.0000
     18 H2         -0.1975   -0.2739    0.0972 H         1 <0>         0.0000
     19 H3          3.4541   -2.9073    2.1489 H         1 <0>         0.0000
     20 H4          0.5109   -2.6115    4.2702 H         1 <0>         0.0000
     21 H5          2.1533   -3.2619    4.0882 H         1 <0>         0.0000
     22 H6          4.7463   -2.7595    0.1679 H         1 <0>         0.0000
     23 H7         -0.3777   -0.4945    3.7197 H         1 <0>         0.0000
@<TRIPOS>BOND
     1    1    2 ar
     2    1    4 ar
     3    1   17 1
     4    2    5 ar
     5    2   18 1
     6    3    4 ar
     7    3    6 ar
     8    3   19 1
     9    4    9 1
    10    5    6 ar
    11    5   10 1
    12    6    8 1
    13    7    8 1
    14    7   11 1
    15    7   12 2
    16    8   20 1
    17    8   21 1
    18    9   13 1
    19    9   14 1
    20    9   22 1
    21   10   15 1
    22   10   16 1
    23   10   23 1
