@<TRIPOS>MOLECULE
*****
   45    47     0     0     0
SMALL
NO_CHARGES

@<TRIPOS>ATOM
      1 C1          4.5282   -6.6997   -6.0096 C.ar      1 <0>         0.0000
      2 C2          3.8548   -7.4309   -5.0311 C.ar      1 <0>         0.0000
      3 C3          4.1528   -5.3835   -6.2785 C.ar      1 <0>         0.0000
      4 C4          2.8062   -6.8459   -4.3214 C.ar      1 <0>         0.0000
      5 C5          3.1042   -4.7985   -5.5688 C.ar      1 <0>         0.0000
      6 C6          0.5569   -3.9400   -4.4561 C.ar      1 <0>         0.0000
      7 C7          1.0805   -5.3199   -2.5434 C.ar      1 <0>         0.0000
      8 C8         -0.4918   -3.3546   -3.7466 C.ar      1 <0>         0.0000
      9 C9          0.0319   -4.7346   -1.8339 C.ar      1 <0>         0.0000
     10 C10         2.4308   -5.5297   -4.5902 C.ar      1 <0>         0.0000
     11 C11         1.3430   -4.9226   -3.8545 C.ar      1 <0>         0.0000
     12 C12        -0.7543   -3.7519   -2.4355 C.ar      1 <0>         0.0000
     13 C13        -3.5314   -5.1249   -4.0590 C.2       1 <0>         0.0000
     14 C14        -0.8508   -0.6504   -0.2322 C.3       1 <0>         0.0000
     15 C15        -1.0961   -0.6629   -1.7362 C.3       1 <0>         0.0000
     16 C16        -0.5926   -2.0510    0.3105 C.3       1 <0>         0.0000
     17 C17        -2.2123   -1.6400   -2.1092 C.3       1 <0>         0.0000
     18 C18        -1.6920   -3.0334   -0.1050 C.3       1 <0>         0.0000
     19 C19        -1.9249   -3.0981   -1.6434 C.3       1 <0>         0.0000
     20 C20        -3.1885   -3.9550   -1.8949 C.3       1 <0>         0.0000
     21 N1         -3.4842   -3.9714   -3.2860 N.am      1 <0>         0.0000
     22 O1         -3.3339   -6.2740   -3.6854 O.2       1 <0>         0.0000
     23 H1          5.3436   -7.1555   -6.5636 H         1 <0>         0.0000
     24 H2          4.1456   -8.4563   -4.8222 H         1 <0>         0.0000
     25 H3          4.6759   -4.8145   -7.0416 H         1 <0>         0.0000
     26 H4          2.2901   -7.4285   -3.5619 H         1 <0>         0.0000
     27 H5          2.8233   -3.7714   -5.7902 H         1 <0>         0.0000
     28 H6          0.7485   -3.6200   -5.4776 H         1 <0>         0.0000
     29 H7          1.6848   -6.0842   -2.0603 H         1 <0>         0.0000
     30 H8         -1.0997   -2.5900   -4.2234 H         1 <0>         0.0000
     31 H9         -0.1647   -5.0495   -0.8125 H         1 <0>         0.0000
     32 H10        -3.7802   -4.8937   -5.1079 H         1 <0>         0.0000
     33 H11        -1.7245   -0.2214    0.2740 H         1 <0>         0.0000
     34 H12         0.0008   -0.0008   -0.0007 H         1 <0>         0.0000
     35 H13        -1.3691    0.3454   -2.0681 H         1 <0>         0.0000
     36 H14        -0.1701   -0.9253   -2.2611 H         1 <0>         0.0000
     37 H15         0.3808   -2.4087   -0.0457 H         1 <0>         0.0000
     38 H16        -0.5316   -2.0135    1.4043 H         1 <0>         0.0000
     39 H17        -3.1552   -1.2896   -1.6684 H         1 <0>         0.0000
     40 H18        -2.3488   -1.6170   -3.1983 H         1 <0>         0.0000
     41 H19        -1.4334   -4.0300    0.2761 H         1 <0>         0.0000
     42 H20        -2.6264   -2.7430    0.3941 H         1 <0>         0.0000
     43 H21        -2.9695   -4.9567   -1.5337 H         1 <0>         0.0000
     44 H22        -3.9987   -3.4984   -1.3321 H         1 <0>         0.0000
     45 H23        -3.6747   -3.0748   -3.7478 H         1 <0>         0.0000
@<TRIPOS>BOND
     1    1    3 ar
     2    1    2 ar
     3    1   23 1
     4    2    4 ar
     5    2   24 1
     6    3    5 ar
     7    3   25 1
     8    4   10 ar
     9    4   26 1
    10    5   10 ar
    11    5   27 1
    12    6    8 ar
    13    6   11 ar
    14    6   28 1
    15    7    9 ar
    16    7   11 ar
    17    7   29 1
    18    8   12 ar
    19    8   30 1
    20    9   12 ar
    21    9   31 1
    22   10   11 1
    23   12   19 1
    24   13   21 am
    25   13   22 2
    26   13   32 1
    27   14   16 1
    28   14   15 1
    29   14   33 1
    30   14   34 1
    31   15   17 1
    32   15   35 1
    33   15   36 1
    34   16   18 1
    35   16   37 1
    36   16   38 1
    37   17   19 1
    38   17   39 1
    39   17   40 1
    40   18   19 1
    41   18   41 1
    42   18   42 1
    43   19   20 1
    44   20   21 1
    45   20   43 1
    46   20   44 1
    47   21   45 1
