@<TRIPOS>MOLECULE
*****
   39    39     0     0     0
SMALL
NO_CHARGES

@<TRIPOS>ATOM
      1 C1         -0.6267   -0.6581   -0.0334 C.3       1 <0>         0.0000
      2 C2         -1.1051   -1.9137    0.7069 C.3       1 <0>         0.0000
      3 C3          0.2501    0.0647    0.9951 C.3       1 <0>         0.0000
      4 C4          0.1351   -2.3919    1.4616 C.3       1 <0>         0.0000
      5 C5         -0.0806   -3.3038    2.6635 C.3       1 <0>         0.0000
      6 C6          1.2291   -3.6643    3.3762 C.3       1 <0>         0.0000
      7 C7          3.5864   -5.8312    7.7420 C.3       1 <0>         0.0000
      8 C8          3.3555   -6.7673    8.9349 C.3       1 <0>         0.0000
      9 C9          1.0269   -4.5981    4.5719 C.3       1 <0>         0.0000
     10 C10         2.3234   -5.7514    6.8801 C.3       1 <0>         0.0000
     11 C11         4.5706   -6.8542    9.8382 C.3       1 <0>         0.0000
     12 N1          0.8030   -1.0594    1.8870 N.4       1 <0>         0.0000
     13 O1          2.8396   -3.2780    5.9759 O.2       1 <0>         0.0000
     14 O2          3.6056   -5.2682    4.5705 O.2       1 <0>         0.0000
     15 F1          4.3441   -7.6901   10.8767 F         1 <0>         0.0000
     16 F2          5.6586   -7.3149    9.1736 F         1 <0>         0.0000
     17 F3          4.8981   -5.6433   10.3544 F         1 <0>         0.0000
     18 S1          2.6200   -4.6470    5.4704 S.o2      1 <0>         0.0000
     19 H1         -0.0387   -0.9306   -0.9144 H         1 <0>         0.0000
     20 H2         -1.4469   -0.0186   -0.3640 H         1 <0>         0.0000
     21 H3         -1.9107   -1.6749    1.4105 H         1 <0>         0.0000
     22 H4         -1.4698   -2.6899    0.0314 H         1 <0>         0.0000
     23 H5          1.0869    0.6204    0.5734 H         1 <0>         0.0000
     24 H6         -0.3275    0.7263    1.6412 H         1 <0>         0.0000
     25 H7          0.8439   -2.8445    0.7623 H         1 <0>         0.0000
     26 H8         -0.7849   -2.8287    3.3596 H         1 <0>         0.0000
     27 H9         -0.5769   -4.2070    2.2926 H         1 <0>         0.0000
     28 H10         1.7164   -2.7563    3.7522 H         1 <0>         0.0000
     29 H11         1.9248   -4.1337    2.6734 H         1 <0>         0.0000
     30 H12         3.8472   -4.8315    8.0981 H         1 <0>         0.0000
     31 H13         4.4191   -6.1990    7.1372 H         1 <0>         0.0000
     32 H14         2.5222   -6.4232    9.5547 H         1 <0>         0.0000
     33 H15         3.1290   -7.7848    8.6032 H         1 <0>         0.0000
     34 H16         0.2754   -4.2167    5.2689 H         1 <0>         0.0000
     35 H17         0.7721   -5.6154    4.2638 H         1 <0>         0.0000
     36 H18         2.0503   -6.7242    6.4604 H         1 <0>         0.0000
     37 H19         1.4770   -5.3338    7.4336 H         1 <0>         0.0000
     38 H20         1.8229   -1.1268    1.8231 H         1 <0>         0.0000
     39 H21         0.5966   -0.8661    2.8721 H         1 <0>         0.0000
@<TRIPOS>BOND
     1    1    2 1
     2    1    3 1
     3    1   19 1
     4    1   20 1
     5    2    4 1
     6    2   21 1
     7    2   22 1
     8    3   12 1
     9    3   23 1
    10    3   24 1
    11    4    5 1
    12    4   12 1
    13    4   25 1
    14    5    6 1
    15    5   26 1
    16    5   27 1
    17    6    9 1
    18    6   28 1
    19    6   29 1
    20    7    8 1
    21    7   10 1
    22    7   30 1
    23    7   31 1
    24    8   11 1
    25    8   32 1
    26    8   33 1
    27    9   18 1
    28    9   34 1
    29    9   35 1
    30   10   18 1
    31   10   36 1
    32   10   37 1
    33   11   15 1
    34   11   16 1
    35   11   17 1
    36   12   38 1
    37   12   39 1
    38   13   18 2
    39   14   18 2
