@<TRIPOS>MOLECULE
*****
   29    31     0     0     0
SMALL
NO_CHARGES

@<TRIPOS>ATOM
      1 C1         -0.4862   -1.8359    0.3035 C.2       1 <0>         0.0000
      2 C2         -1.7804   -1.4112    0.3790 C.2       1 <0>         0.0000
      3 C3          0.2991   -0.6648    0.0019 C.2       1 <0>         0.0000
      4 C4         -0.5802    0.3755   -0.0844 C.2       1 <0>         0.0000
      5 C5          2.7580   -2.6070    0.6249 C.2       1 <0>         0.0000
      6 C6         -0.2767    1.8071   -0.3649 C.3       1 <0>         0.0000
      7 C7          1.1730    1.8922   -0.8892 C.3       1 <0>         0.0000
      8 C8          2.1373    1.0078   -0.0813 C.3       1 <0>         0.0000
      9 C9          3.2145   -4.7423    0.9210 C.3       1 <0>         0.0000
     10 C10         2.9566   -4.4883   -0.5856 C.3       1 <0>         0.0000
     11 C11         1.7848   -0.4866   -0.1906 C.3       1 <0>         0.0000
     12 N1          2.8977   -3.4629    1.5709 N.2       1 <0>         0.0000
     13 N2          2.5896   -1.2531    0.7737 N.pl3     1 <0>         0.0000
     14 O1         -1.8603   -0.0583    0.1416 O.3       1 <0>         0.0000
     15 O2          2.8359   -3.0429   -0.6758 O.3       1 <0>         0.0000
     16 H1         -0.1332   -2.8464    0.4606 H         1 <0>         0.0000
     17 H2         -2.7187   -1.9074    0.5811 H         1 <0>         0.0000
     18 H3         -0.9793    2.2208   -1.0972 H         1 <0>         0.0000
     19 H4         -0.3866    2.4060    0.5498 H         1 <0>         0.0000
     20 H5          1.1926    1.5776   -1.9399 H         1 <0>         0.0000
     21 H6          1.5135    2.9323   -0.8626 H         1 <0>         0.0000
     22 H7          3.1685    1.1550   -0.4169 H         1 <0>         0.0000
     23 H8          2.0985    1.3040    0.9759 H         1 <0>         0.0000
     24 H9          2.5823   -5.5438    1.3164 H         1 <0>         0.0000
     25 H10         4.2586   -5.0184    1.1168 H         1 <0>         0.0000
     26 H11         3.7716   -4.7977   -1.2429 H         1 <0>         0.0000
     27 H12         2.0173   -4.9251   -0.9400 H         1 <0>         0.0000
     28 H13         2.0741   -0.8484   -1.1807 H         1 <0>         0.0000
     29 H14         2.4066   -1.0233    1.7457 H         1 <0>         0.0000
@<TRIPOS>BOND
     1    1    2 2
     2    1    3 1
     3    1   16 1
     4    2   14 1
     5    2   17 1
     6    3    4 2
     7    3   11 1
     8    4    6 1
     9    4   14 1
    10    5   12 2
    11    5   13 1
    12    5   15 1
    13    6    7 1
    14    6   18 1
    15    6   19 1
    16    7    8 1
    17    7   20 1
    18    7   21 1
    19    8   11 1
    20    8   22 1
    21    8   23 1
    22    9   10 1
    23    9   12 1
    24    9   24 1
    25    9   25 1
    26   10   15 1
    27   10   26 1
    28   10   27 1
    29   11   13 1
    30   11   28 1
    31   13   29 1
