@<TRIPOS>MOLECULE
*****
   29    31     0     0     0
SMALL
NO_CHARGES

@<TRIPOS>ATOM
      1 C1         -0.7861   -1.6935    0.5264 C.2       1 <0>         0.0000
      2 C2         -2.0952   -1.3079    0.5253 C.2       1 <0>         0.0000
      3 C3         -0.0301   -0.5355    0.1242 C.2       1 <0>         0.0000
      4 C4         -0.9362    0.4589   -0.0923 C.2       1 <0>         0.0000
      5 C5          1.9976   -0.8014    2.3289 C.2       1 <0>         0.0000
      6 C6         -0.6636    1.8644   -0.5009 C.3       1 <0>         0.0000
      7 C7          0.7828    1.9281   -1.0368 C.3       1 <0>         0.0000
      8 C8          1.7682    1.1796   -0.1239 C.3       1 <0>         0.0000
      9 C9          1.3667   -0.1140    4.3243 C.3       1 <0>         0.0000
     10 C10         2.2282   -1.3928    4.4869 C.3       1 <0>         0.0000
     11 C11         1.4541   -0.3285   -0.0434 C.3       1 <0>         0.0000
     12 N1          1.4223    0.1962    2.8900 N.2       1 <0>         0.0000
     13 N2          2.2593   -0.9932    0.9973 N.pl3     1 <0>         0.0000
     14 O1         -2.2093    0.0084    0.1455 O.3       1 <0>         0.0000
     15 O2          2.4464   -1.8371    3.1211 O.3       1 <0>         0.0000
     16 H1         -0.4102   -2.6722    0.7969 H         1 <0>         0.0000
     17 H2         -3.0229   -1.8131    0.7523 H         1 <0>         0.0000
     18 H3         -1.3777    2.1983   -1.2623 H         1 <0>         0.0000
     19 H4         -0.7766    2.5352    0.3615 H         1 <0>         0.0000
     20 H5          0.8096    1.4962   -2.0456 H         1 <0>         0.0000
     21 H6          1.0935    2.9738   -1.1310 H         1 <0>         0.0000
     22 H7          2.7949    1.3066   -0.4830 H         1 <0>         0.0000
     23 H8          1.7158    1.5906    0.8874 H         1 <0>         0.0000
     24 H9          0.3258   -0.2781    4.6300 H         1 <0>         0.0000
     25 H10         1.7576    0.7195    4.9171 H         1 <0>         0.0000
     26 H11         3.2065   -1.1959    4.9369 H         1 <0>         0.0000
     27 H12         1.7347   -2.2026    5.0283 H         1 <0>         0.0000
     28 H13         1.7789   -0.7987   -0.9802 H         1 <0>         0.0000
     29 H14         2.5415   -1.9429    0.7912 H         1 <0>         0.0000
@<TRIPOS>BOND
     1    1    2 2
     2    1    3 1
     3    1   16 1
     4    2   14 1
     5    2   17 1
     6    3    4 2
     7    3   11 1
     8    4    6 1
     9    4   14 1
    10    5   12 2
    11    5   13 1
    12    5   15 1
    13    6    7 1
    14    6   18 1
    15    6   19 1
    16    7    8 1
    17    7   20 1
    18    7   21 1
    19    8   11 1
    20    8   22 1
    21    8   23 1
    22    9   10 1
    23    9   12 1
    24    9   24 1
    25    9   25 1
    26   10   15 1
    27   10   26 1
    28   10   27 1
    29   11   13 1
    30   11   28 1
    31   13   29 1
