@<TRIPOS>MOLECULE
*****
   29    31     0     0     0
SMALL
NO_CHARGES

@<TRIPOS>ATOM
      1 C1         -0.7093   -1.6003    0.6627 C.2       1 <0>         0.0000
      2 C2         -1.9964   -1.1464    0.6518 C.2       1 <0>         0.0000
      3 C3          0.0973   -0.5167    0.1603 C.2       1 <0>         0.0000
      4 C4         -0.7606    0.5067   -0.1157 C.2       1 <0>         0.0000
      5 C5          2.0013   -1.0124    2.3390 C.2       1 <0>         0.0000
      6 C6         -0.4250    1.8653   -0.6258 C.3       1 <0>         0.0000
      7 C7          1.0287    1.8332   -1.1453 C.3       1 <0>         0.0000
      8 C8          1.9721    1.0898   -0.1845 C.3       1 <0>         0.0000
      9 C9          1.7140   -1.3921    4.4879 C.3       1 <0>         0.0000
     10 C10         1.0649   -0.0366    4.1231 C.3       1 <0>         0.0000
     11 C11         1.5874   -0.3959   -0.0342 C.3       1 <0>         0.0000
     12 N1          2.1005   -1.9680    3.1906 N.2       1 <0>         0.0000
     13 N2          2.3806   -1.0683    1.0184 N.pl3     1 <0>         0.0000
     14 O1         -2.0500    0.1427    0.1751 O.3       1 <0>         0.0000
     15 O2          1.5212    0.1996    2.7632 O.3       1 <0>         0.0000
     16 H1         -0.3746   -2.5706    1.0061 H         1 <0>         0.0000
     17 H2         -2.9448   -1.5838    0.9287 H         1 <0>         0.0000
     18 H3         -1.1159    2.1688   -1.4206 H         1 <0>         0.0000
     19 H4         -0.5235    2.6056    0.1800 H         1 <0>         0.0000
     20 H5          1.0461    1.3438   -2.1275 H         1 <0>         0.0000
     21 H6          1.3871    2.8568   -1.2956 H         1 <0>         0.0000
     22 H7          3.0062    1.1518   -0.5391 H         1 <0>         0.0000
     23 H8          1.9368    1.5578    0.8030 H         1 <0>         0.0000
     24 H9          2.5983   -1.2670    5.1267 H         1 <0>         0.0000
     25 H10         1.0168   -2.0532    5.0115 H         1 <0>         0.0000
     26 H11        -0.0288   -0.0815    4.1033 H         1 <0>         0.0000
     27 H12         1.3894    0.8064    4.7359 H         1 <0>         0.0000
     28 H13         1.8712   -0.9136   -0.9589 H         1 <0>         0.0000
     29 H14         2.6636   -2.0133    0.7873 H         1 <0>         0.0000
@<TRIPOS>BOND
     1    1    2 2
     2    1    3 1
     3    1   16 1
     4    2   14 1
     5    2   17 1
     6    3    4 2
     7    3   11 1
     8    4    6 1
     9    4   14 1
    10    5   12 2
    11    5   13 1
    12    5   15 1
    13    6    7 1
    14    6   18 1
    15    6   19 1
    16    7    8 1
    17    7   20 1
    18    7   21 1
    19    8   11 1
    20    8   22 1
    21    8   23 1
    22    9   10 1
    23    9   12 1
    24    9   24 1
    25    9   25 1
    26   10   15 1
    27   10   26 1
    28   10   27 1
    29   11   13 1
    30   11   28 1
    31   13   29 1
