@<TRIPOS>MOLECULE
*****
   30    32     0     0     0
SMALL
NO_CHARGES

@<TRIPOS>ATOM
      1 C1         -0.1143    2.0001   -0.2373 C.2       1 <0>         0.0000
      2 C2         -1.4771    2.0380   -0.2185 C.2       1 <0>         0.0000
      3 C3          0.2390    0.6227    0.0081 C.2       1 <0>         0.0000
      4 C4         -0.9355   -0.0651    0.1515 C.2       1 <0>         0.0000
      5 C5          3.4424   -0.3077   -1.5075 C.cat     1 <0>         0.0000
      6 C6         -1.1227   -1.5106    0.4573 C.3       1 <0>         0.0000
      7 C7          0.2157   -2.2356    0.2111 C.3       1 <0>         0.0000
      8 C8          1.4096   -1.4471    0.7738 C.3       1 <0>         0.0000
      9 C9          5.4948   -0.3616   -2.5733 C.3       1 <0>         0.0000
     10 C10         5.6501   -0.5993   -1.0610 C.3       1 <0>         0.0000
     11 C11         1.5653   -0.0553    0.1289 C.3       1 <0>         0.0000
     12 N1          4.0295   -0.4586   -2.7048 N.pl3     1 <0>         0.0000
     13 N2          2.1606   -0.1622   -1.2538 N.pl3     1 <0>         0.0000
     14 O1         -1.9898    0.7837    0.0190 O.3       1 <0>         0.0000
     15 O2          4.3118   -0.3210   -0.5105 O.3       1 <0>         0.0000
     16 H1          0.5455    2.8452   -0.3865 H         1 <0>         0.0000
     17 H2         -2.2050    2.8265   -0.3426 H         1 <0>         0.0000
     18 H3         -1.4346   -1.6296    1.5030 H         1 <0>         0.0000
     19 H4         -1.9195   -1.9400   -0.1582 H         1 <0>         0.0000
     20 H5          0.1874   -3.2283    0.6681 H         1 <0>         0.0000
     21 H6          0.3522   -2.3928   -0.8664 H         1 <0>         0.0000
     22 H7          1.2741   -1.2877    1.8495 H         1 <0>         0.0000
     23 H8          2.3388   -2.0130    0.6544 H         1 <0>         0.0000
     24 H9          5.8476    0.6261   -2.8837 H         1 <0>         0.0000
     25 H10         5.9903   -1.1315   -3.1662 H         1 <0>         0.0000
     26 H11         5.8838   -1.6352   -0.8122 H         1 <0>         0.0000
     27 H12         6.3445    0.0787   -0.5692 H         1 <0>         0.0000
     28 H13         2.2709    0.5468    0.7062 H         1 <0>         0.0000
     29 H14         3.5418   -0.3109   -3.5807 H         1 <0>         0.0000
     30 H15         1.5107   -0.1173   -2.0323 H         1 <0>         0.0000
@<TRIPOS>BOND
     1    1    2 2
     2    1    3 1
     3    1   16 1
     4    2   14 1
     5    2   17 1
     6    3    4 2
     7    3   11 1
     8    4    6 1
     9    4   14 1
    10    5   12 2
    11    5   13 1
    12    5   15 1
    13    6    7 1
    14    6   18 1
    15    6   19 1
    16    7    8 1
    17    7   20 1
    18    7   21 1
    19    8   11 1
    20    8   22 1
    21    8   23 1
    22    9   10 1
    23    9   12 1
    24    9   24 1
    25    9   25 1
    26   10   15 1
    27   10   26 1
    28   10   27 1
    29   11   13 1
    30   11   28 1
    31   12   29 1
    32   13   30 1
