@<TRIPOS>MOLECULE
*****
   39    41     0     0     0
SMALL
NO_CHARGES

@<TRIPOS>ATOM
      1 C1          1.9269   -4.1355   -0.5822 C.ar      1 <0>         0.0000
      2 C2          2.0594   -3.0927    1.5931 C.ar      1 <0>         0.0000
      3 C3          0.6839    1.3314    1.3913 C.ar      1 <0>         0.0000
      4 C4          2.7133   -5.1922   -0.1236 C.ar      1 <0>         0.0000
      5 C5          2.8458   -4.1494    2.0518 C.ar      1 <0>         0.0000
      6 C6         -0.1431    2.3819    1.7890 C.ar      1 <0>         0.0000
      7 C7         -1.6438    1.8883   -0.0342 C.ar      1 <0>         0.0000
      8 C8          1.5999   -3.0856    0.2761 C.ar      1 <0>         0.0000
      9 C9          0.3597    0.5515    0.2682 C.ar      1 <0>         0.0000
     10 C10        -0.8216    0.8278   -0.4443 C.ar      1 <0>         0.0000
     11 C11         3.1728   -5.1992    1.1934 C.ar      1 <0>         0.0000
     12 C12        -1.3043    2.6617    1.0752 C.ar      1 <0>         0.0000
     13 C13        -0.4684   -2.3051   -0.6507 C.2       1 <0>         0.0000
     14 C14         0.7620   -1.9596   -0.2127 C.2       1 <0>         0.0000
     15 C15         1.2393   -0.5695   -0.1457 C.2       1 <0>         0.0000
     16 C16         2.5148   -0.2633   -0.4521 C.2       1 <0>         0.0000
     17 C17        -1.2137   -0.0133   -1.6319 C.3       1 <0>         0.0000
     18 C18        -1.5647   -1.4462   -1.2283 C.3       1 <0>         0.0000
     19 C19         3.5219   -1.2653   -0.8901 C.3       1 <0>         0.0000
     20 O1          3.9402   -6.2304    1.6410 O.3       1 <0>         0.0000
     21 O2         -2.1127    3.6855    1.4639 O.3       1 <0>         0.0000
     22 H1          1.5762   -4.1442   -1.6115 H         1 <0>         0.0000
     23 H2          1.8129   -2.2815    2.2741 H         1 <0>         0.0000
     24 H3          1.5823    1.1264    1.9694 H         1 <0>         0.0000
     25 H4          2.9647   -6.0072   -0.7969 H         1 <0>         0.0000
     26 H5          3.2008   -4.1494    3.0788 H         1 <0>         0.0000
     27 H6          0.1238    2.9753    2.6592 H         1 <0>         0.0000
     28 H7         -2.5592    2.1109   -0.5779 H         1 <0>         0.0000
     29 H8         -0.7443   -3.3612   -0.6218 H         1 <0>         0.0000
     30 H9          2.8282    0.7694   -0.3761 H         1 <0>         0.0000
     31 H10        -2.0843    0.4316   -2.1303 H         1 <0>         0.0000
     32 H11        -0.4078    0.0002   -2.3770 H         1 <0>         0.0000
     33 H12        -1.9346   -1.9571   -2.1267 H         1 <0>         0.0000
     34 H13        -2.3973   -1.4360   -0.5133 H         1 <0>         0.0000
     35 H14         4.0452   -1.6697   -0.0184 H         1 <0>         0.0000
     36 H15         4.2678   -0.8412   -1.5696 H         1 <0>         0.0000
     37 H16         3.0220   -2.0914   -1.4052 H         1 <0>         0.0000
     38 H17         4.1797   -6.0923    2.5713 H         1 <0>         0.0000
     39 H18        -1.7475    4.1227    2.2496 H         1 <0>         0.0000
@<TRIPOS>BOND
     1    1    4 ar
     2    1    8 ar
     3    1   22 1
     4    2    5 ar
     5    2    8 ar
     6    2   23 1
     7    3    6 ar
     8    3    9 ar
     9    3   24 1
    10    4   11 ar
    11    4   25 1
    12    5   11 ar
    13    5   26 1
    14    6   12 ar
    15    6   27 1
    16    7   10 ar
    17    7   12 ar
    18    7   28 1
    19    8   14 1
    20    9   10 ar
    21    9   15 1
    22   10   17 1
    23   11   20 1
    24   12   21 1
    25   13   14 2
    26   13   18 1
    27   13   29 1
    28   14   15 1
    29   15   16 2
    30   16   19 1
    31   16   30 1
    32   17   18 1
    33   17   31 1
    34   17   32 1
    35   18   33 1
    36   18   34 1
    37   19   35 1
    38   19   36 1
    39   19   37 1
    40   20   38 1
    41   21   39 1
