@<TRIPOS>MOLECULE
*****
   22    22     0     0     0
SMALL
NO_CHARGES

@<TRIPOS>ATOM
      1 C1          1.5772   -1.8382    0.0743 C.ar      1 <0>         0.0000
      2 C2          0.5787   -0.9671    0.5204 C.ar      1 <0>         0.0000
      3 C3          1.9152   -0.4396    2.4739 C.ar      1 <0>         0.0000
      4 C4          2.7508   -2.0219    0.8159 C.ar      1 <0>         0.0000
      5 C5          0.7530   -0.2752    1.7161 C.ar      1 <0>         0.0000
      6 C6          2.9045   -1.3071    2.0199 C.ar      1 <0>         0.0000
      7 C7          5.0305   -4.1948   -1.0188 C.2       1 <0>         0.0000
      8 C8          3.7320   -3.4580   -0.8386 C.3       1 <0>         0.0000
      9 N1          4.9525   -5.3533   -1.5824 N.2       1 <0>         0.0000
     10 N2          6.1840   -3.5303   -0.6671 N.pl3     1 <0>         0.0000
     11 O1          6.2661   -5.8840   -1.7568 O.3       1 <0>         0.0000
     12 O2          3.7662   -2.8571    0.4630 O.3       1 <0>         0.0000
     13 Cl1        -0.4950    0.8189    2.2858 Cl        1 <0>         0.0000
     14 Cl2         4.3677   -1.5085    2.9570 Cl        1 <0>         0.0000
     15 H1          1.4260   -2.3768   -0.8540 H         1 <0>         0.0000
     16 H2         -0.3274   -0.8339   -0.0614 H         1 <0>         0.0000
     17 H3          2.0533    0.1016    3.4034 H         1 <0>         0.0000
     18 H4          2.9032   -4.1644   -0.9332 H         1 <0>         0.0000
     19 H5          3.6366   -2.6709   -1.5979 H         1 <0>         0.0000
     20 H6          7.0077   -4.1199   -0.6238 H         1 <0>         0.0000
     21 H7          6.0774   -2.8916    0.1135 H         1 <0>         0.0000
     22 H8          6.0865   -6.7602   -2.1315 H         1 <0>         0.0000
@<TRIPOS>BOND
     1    1    2 ar
     2    1    4 ar
     3    1   15 1
     4    2    5 ar
     5    2   16 1
     6    3    5 ar
     7    3    6 ar
     8    3   17 1
     9    4    6 ar
    10    4   12 1
    11    5   13 1
    12    6   14 1
    13    7    8 1
    14    7    9 2
    15    7   10 1
    16    8   12 1
    17    8   18 1
    18    8   19 1
    19    9   11 1
    20   10   20 1
    21   10   21 1
    22   11   22 1
