@<TRIPOS>MOLECULE
*****
   32    34     0     0     0
SMALL
NO_CHARGES

@<TRIPOS>ATOM
      1 C1          7.9554   -2.4553    1.7671 C.1       1 <0>         0.0000
      2 C2          0.3479   -1.3538    1.9370 C.ar      1 <0>         0.0000
      3 C3          0.4290   -0.3797    0.9374 C.ar      1 <0>         0.0000
      4 C4          1.4758   -2.1099    2.2436 C.ar      1 <0>         0.0000
      5 C5          1.6320   -0.1802    0.2577 C.ar      1 <0>         0.0000
      6 C6          8.9421   -6.5537    4.0701 C.2       1 <0>         0.0000
      7 C7          8.6063   -7.7135    4.7034 C.2       1 <0>         0.0000
      8 C8          6.6122   -6.4473    3.9248 C.2       1 <0>         0.0000
      9 C9          2.6914   -1.9072    1.5633 C.ar      1 <0>         0.0000
     10 C10         7.7987   -5.7956    3.6075 C.2       1 <0>         0.0000
     11 C11         2.7842   -0.9279    0.5457 C.ar      1 <0>         0.0000
     12 C12         3.8339   -2.7520    1.9511 C.2       1 <0>         0.0000
     13 C13         5.8047   -3.4260    2.2986 C.2       1 <0>         0.0000
     14 C14         8.0350   -4.5446    2.9182 C.2       1 <0>         0.0000
     15 C15         7.2534   -3.5590    2.3728 C.2       1 <0>         0.0000
     16 C16         4.0432   -0.6634   -0.2480 C.3       1 <0>         0.0000
     17 N1          8.5598   -1.5838    1.2847 N.1       1 <0>         0.0000
     18 N2          5.1616   -2.4117    1.7802 N.2       1 <0>         0.0000
     19 N3          3.6597   -3.9251    2.5384 N.2       1 <0>         0.0000
     20 O1          4.9748   -4.3752    2.7788 O.3       1 <0>         0.0000
     21 S1          6.8828   -7.9235    4.7548 S.3       1 <0>         0.0000
     22 H1         -0.5815   -1.5182    2.4751 H         1 <0>         0.0000
     23 H2         -0.4404    0.2229    0.6868 H         1 <0>         0.0000
     24 H3          1.4320   -2.8639    3.0232 H         1 <0>         0.0000
     25 H4          1.6832    0.5747   -0.5231 H         1 <0>         0.0000
     26 H5          9.9678   -6.2282    3.9276 H         1 <0>         0.0000
     27 H6          9.2612   -8.4555    5.1412 H         1 <0>         0.0000
     28 H7          5.6036   -6.1353    3.7101 H         1 <0>         0.0000
     29 H8          9.0971   -4.3361    2.8113 H         1 <0>         0.0000
     30 H9          4.8276   -0.2274    0.3753 H         1 <0>         0.0000
     31 H10         4.4611   -1.5831   -0.6664 H         1 <0>         0.0000
     32 H11         3.8293    0.0225   -1.0717 H         1 <0>         0.0000
@<TRIPOS>BOND
     1    1   15 1
     2    1   17 3
     3    2    3 ar
     4    2    4 ar
     5    2   22 1
     6    3    5 ar
     7    3   23 1
     8    4    9 ar
     9    4   24 1
    10    5   11 ar
    11    5   25 1
    12    6    7 2
    13    6   10 1
    14    6   26 1
    15    7   21 1
    16    7   27 1
    17    8   10 2
    18    8   21 1
    19    8   28 1
    20    9   11 ar
    21    9   12 1
    22   10   14 1
    23   11   16 1
    24   12   18 1
    25   12   19 2
    26   13   15 1
    27   13   18 2
    28   13   20 1
    29   14   15 2
    30   14   29 1
    31   16   30 1
    32   16   31 1
    33   16   32 1
    34   19   20 1
