@<TRIPOS>MOLECULE
*****
   25    26     0     0     0
SMALL
NO_CHARGES

@<TRIPOS>ATOM
      1 C1         -0.1279   -2.5690    2.7923 C.ar      1 <0>         0.0000
      2 C2         -0.2399   -1.6362    1.7565 C.ar      1 <0>         0.0000
      3 C3          1.1349   -2.9451    3.2553 C.ar      1 <0>         0.0000
      4 C4          0.9088   -1.0856    1.1822 C.ar      1 <0>         0.0000
      5 C5          7.4602   -2.8613    4.5642 C.2       1 <0>         0.0000
      6 C6          5.5308   -3.5917    5.3821 C.2       1 <0>         0.0000
      7 C7          6.8904   -3.8465    5.4217 C.2       1 <0>         0.0000
      8 C8          2.2933   -2.4005    2.6900 C.ar      1 <0>         0.0000
      9 C9          2.1695   -1.4670    1.6474 C.ar      1 <0>         0.0000
     10 C10         4.1286   -1.9450    4.1104 C.3       1 <0>         0.0000
     11 N1          6.5303   -2.0708    4.0301 N.2       1 <0>         0.0000
     12 N2          5.3604   -2.5117    4.5458 N.pl3     1 <0>         0.0000
     13 N3          7.5882   -4.7922    6.2033 N.pl3     1 <0>         0.0000
     14 O1          3.5262   -2.8242    3.1343 O.3       1 <0>         0.0000
     15 Cl1         3.6057   -0.7903    0.9104 Cl        1 <0>         0.0000
     16 H1         -1.0189   -3.0046    3.2357 H         1 <0>         0.0000
     17 H2         -1.2175   -1.3382    1.3885 H         1 <0>         0.0000
     18 H3          1.2491   -3.6771    4.0503 H         1 <0>         0.0000
     19 H4          0.8355   -0.3668    0.3719 H         1 <0>         0.0000
     20 H5          8.5063   -2.7008    4.3303 H         1 <0>         0.0000
     21 H6          4.6920   -4.0794    5.8597 H         1 <0>         0.0000
     22 H7          3.4411   -1.8384    4.9577 H         1 <0>         0.0000
     23 H8          4.3483   -0.9713    3.6684 H         1 <0>         0.0000
     24 H9          8.4292   -5.1184    5.7373 H         1 <0>         0.0000
     25 H10         7.0140   -5.5952    6.4395 H         1 <0>         0.0000
@<TRIPOS>BOND
     1    1    2 ar
     2    1    3 ar
     3    1   16 1
     4    2    4 ar
     5    2   17 1
     6    3    8 ar
     7    3   18 1
     8    4    9 ar
     9    4   19 1
    10    5    7 1
    11    5   11 2
    12    5   20 1
    13    6    7 2
    14    6   12 1
    15    6   21 1
    16    7   13 1
    17    8    9 ar
    18    8   14 1
    19    9   15 1
    20   10   12 1
    21   10   14 1
    22   10   22 1
    23   10   23 1
    24   11   12 1
    25   13   24 1
    26   13   25 1
