@<TRIPOS>MOLECULE
*****
   42    45     0     0     0
SMALL
NO_CHARGES

@<TRIPOS>ATOM
      1 C1         -3.2556   -0.4820    1.5589 C.ar      1 <0>         0.0000
      2 C2         -2.0279   -1.0215    1.1659 C.ar      1 <0>         0.0000
      3 C3         -4.3284   -1.3362    1.8581 C.ar      1 <0>         0.0000
      4 C4         -1.8359   -2.4078    1.0762 C.ar      1 <0>         0.0000
      5 C5         -0.1827   -5.7532   -0.9052 C.ar      1 <0>         0.0000
      6 C6          1.2288   -4.1397    0.1954 C.ar      1 <0>         0.0000
      7 C7         -4.1482   -2.7111    1.7778 C.ar      1 <0>         0.0000
      8 C8          0.1670   -5.0495    0.2509 C.ar      1 <0>         0.0000
      9 C9         -2.9002   -3.2484    1.4120 C.ar      1 <0>         0.0000
     10 C10         0.5116   -5.5581   -2.1012 C.ar      1 <0>         0.0000
     11 C11         1.5846   -4.6449   -2.1683 C.ar      1 <0>         0.0000
     12 C12         1.9175   -3.9409   -1.0008 C.ar      1 <0>         0.0000
     13 C13        -2.0301   -5.6468    1.3905 C.2       1 <0>         0.0000
     14 C14        -5.1283   -3.8329    2.0399 C.3       1 <0>         0.0000
     15 C15         0.9132   -5.1102   -5.1849 C.3       1 <0>         0.0000
     16 C16        -4.4178   -5.0576    1.4288 C.3       1 <0>         0.0000
     17 C17        -0.2568   -5.6504   -4.3711 C.3       1 <0>         0.0000
     18 C18         1.6864   -4.0083   -4.4722 C.3       1 <0>         0.0000
     19 C19        -0.5670   -5.2662    1.5644 C.3       1 <0>         0.0000
     20 N1         -2.9895   -4.6630    1.3884 N.am      1 <0>         0.0000
     21 O1         -2.3569   -6.8313    1.2798 O.2       1 <0>         0.0000
     22 O2          0.1542   -6.3368   -3.1763 O.3       1 <0>         0.0000
     23 O3          2.3529   -4.4797   -3.2878 O.3       1 <0>         0.0000
     24 Cl1         3.2325   -2.7843   -1.0481 Cl        1 <0>         0.0000
     25 H1         -3.3846    0.5953    1.6139 H         1 <0>         0.0000
     26 H2         -1.2055   -0.3608    0.9045 H         1 <0>         0.0000
     27 H3         -5.2945   -0.9264    2.1437 H         1 <0>         0.0000
     28 H4         -0.8933   -2.7921    0.7114 H         1 <0>         0.0000
     29 H5         -0.9895   -6.4792   -0.8949 H         1 <0>         0.0000
     30 H6          1.5225   -3.5752    1.0756 H         1 <0>         0.0000
     31 H7         -5.2812   -3.9655    3.1180 H         1 <0>         0.0000
     32 H8         -6.1070   -3.6581    1.5859 H         1 <0>         0.0000
     33 H9          1.5948   -5.9314   -5.4305 H         1 <0>         0.0000
     34 H10         0.5225   -4.7077   -6.1293 H         1 <0>         0.0000
     35 H11        -4.5232   -5.9749    2.0063 H         1 <0>         0.0000
     36 H12        -4.7636   -5.2579    0.4084 H         1 <0>         0.0000
     37 H13        -0.9529   -4.8437   -4.1029 H         1 <0>         0.0000
     38 H14        -0.8059   -6.4002   -4.9457 H         1 <0>         0.0000
     39 H15         2.4886   -3.6268   -5.1081 H         1 <0>         0.0000
     40 H16         1.0269   -3.1709   -4.2077 H         1 <0>         0.0000
     41 H17        -0.1182   -6.1160    2.0879 H         1 <0>         0.0000
     42 H18        -0.4576   -4.3874    2.2048 H         1 <0>         0.0000
@<TRIPOS>BOND
     1    1    2 ar
     2    1    3 ar
     3    1   25 1
     4    2    4 ar
     5    2   26 1
     6    3    7 ar
     7    3   27 1
     8    4    9 ar
     9    4   28 1
    10    5    8 ar
    11    5   10 ar
    12    5   29 1
    13    6    8 ar
    14    6   12 ar
    15    6   30 1
    16    7    9 ar
    17    7   14 1
    18    8   19 1
    19    9   20 1
    20   10   11 ar
    21   10   22 1
    22   11   12 ar
    23   11   23 1
    24   12   24 1
    25   13   19 1
    26   13   20 am
    27   13   21 2
    28   14   16 1
    29   14   31 1
    30   14   32 1
    31   15   17 1
    32   15   18 1
    33   15   33 1
    34   15   34 1
    35   16   20 1
    36   16   35 1
    37   16   36 1
    38   17   22 1
    39   17   37 1
    40   17   38 1
    41   18   23 1
    42   18   39 1
    43   18   40 1
    44   19   41 1
    45   19   42 1
