@<TRIPOS>MOLECULE
*****
   22    22     0     0     0
SMALL
NO_CHARGES

@<TRIPOS>ATOM
      1 C1          1.7048   -1.3616    0.1123 C.ar      1 <0>         0.0000
      2 C2          0.7078   -0.6796    0.8159 C.ar      1 <0>         0.0000
      3 C3          2.0597   -0.7707    2.8261 C.ar      1 <0>         0.0000
      4 C4          2.8896   -1.7498    0.7511 C.ar      1 <0>         0.0000
      5 C5          0.8913   -0.3869    2.1649 C.ar      1 <0>         0.0000
      6 C6          3.0477   -1.4500    2.1179 C.ar      1 <0>         0.0000
      7 C7          2.8340   -3.9038   -1.4396 C.2       1 <0>         0.0000
      8 C8          3.8052   -2.7664   -1.2347 C.3       1 <0>         0.0000
      9 N1          2.0085   -3.7891   -2.4254 N.2       1 <0>         0.0000
     10 N2          2.9650   -4.9907   -0.6093 N.pl3     1 <0>         0.0000
     11 O1          1.2039   -4.9660   -2.5111 O.3       1 <0>         0.0000
     12 O2          3.9268   -2.4068    0.1477 O.3       1 <0>         0.0000
     13 Cl1        -0.3572    0.4675    3.0554 Cl        1 <0>         0.0000
     14 Cl2         4.5081   -1.9417    2.9457 Cl        1 <0>         0.0000
     15 H1          1.5366   -1.6023   -0.9302 H         1 <0>         0.0000
     16 H2         -0.2067   -0.3853    0.3115 H         1 <0>         0.0000
     17 H3          2.2030   -0.5469    3.8775 H         1 <0>         0.0000
     18 H4          3.5169   -1.9147   -1.8554 H         1 <0>         0.0000
     19 H5          4.8125   -3.0843   -1.5136 H         1 <0>         0.0000
     20 H6          2.1831   -5.6353   -0.6154 H         1 <0>         0.0000
     21 H7          3.3640   -4.7978    0.3020 H         1 <0>         0.0000
     22 H8          0.6209   -4.7651   -3.2596 H         1 <0>         0.0000
@<TRIPOS>BOND
     1    1    2 ar
     2    1    4 ar
     3    1   15 1
     4    2    5 ar
     5    2   16 1
     6    3    5 ar
     7    3    6 ar
     8    3   17 1
     9    4    6 ar
    10    4   12 1
    11    5   13 1
    12    6   14 1
    13    7    8 1
    14    7    9 2
    15    7   10 1
    16    8   12 1
    17    8   18 1
    18    8   19 1
    19    9   11 1
    20   10   20 1
    21   10   21 1
    22   11   22 1
