@<TRIPOS>MOLECULE
*****
   38    40     0     0     0
SMALL
NO_CHARGES

@<TRIPOS>ATOM
      1 C1         -2.9806    3.9466   -8.8101 C.ar      1 <0>         0.0000
      2 C2         -2.1169    3.4605   -7.8293 C.ar      1 <0>         0.0000
      3 C3         -4.2583    3.4030   -8.9777 C.ar      1 <0>         0.0000
      4 C4         -3.7988    1.8274   -7.1763 C.ar      1 <0>         0.0000
      5 C5         -0.6452    1.1676   -4.1661 C.2       1 <0>         0.0000
      6 C6         -2.5355    2.4057   -7.0088 C.ar      1 <0>         0.0000
      7 C7         -4.6475    2.3463   -8.1538 C.ar      1 <0>         0.0000
      8 C8          0.2948    1.3661   -5.2306 C.2       1 <0>         0.0000
      9 C9         -1.8610    1.5362   -4.7278 C.2       1 <0>         0.0000
     10 C10        -0.4346    0.7142   -2.8026 C.2       1 <0>         0.0000
     11 C11         0.0096    0.1398   -0.0414 C.3       1 <0>         0.0000
     12 C12         2.3408    0.1988   -0.6780 C.3       1 <0>         0.0000
     13 C13         0.1472    1.5609    0.5142 C.3       1 <0>         0.0000
     14 C14         2.4332    1.6104   -0.0943 C.3       1 <0>         0.0000
     15 C15         1.7704    1.1272   -5.2169 C.3       1 <0>         0.0000
     16 N1         -0.3056    1.8149   -6.3288 N.2       1 <0>         0.0000
     17 N2          0.7532    0.4309   -2.3811 N.2       1 <0>         0.0000
     18 N3         -1.6398    1.9114   -6.0261 N.pl3     1 <0>         0.0000
     19 N4          0.9727   -0.0868   -1.1321 N.pl3     1 <0>         0.0000
     20 O1          1.4846    1.7935    0.9613 O.3       1 <0>         0.0000
     21 Cl1        -6.2369    1.6291   -8.3619 Cl        1 <0>         0.0000
     22 Cl2        -3.4022    1.6340   -3.9519 Cl        1 <0>         0.0000
     23 H1         -2.6615    4.7653   -9.4488 H         1 <0>         0.0000
     24 H2         -1.1248    3.8753   -7.6933 H         1 <0>         0.0000
     25 H3         -4.9359    3.7854   -9.7340 H         1 <0>         0.0000
     26 H4         -4.1119    0.9819   -6.5768 H         1 <0>         0.0000
     27 H5         -1.3319    0.6248   -2.1864 H         1 <0>         0.0000
     28 H6          0.2501   -0.5800    0.7472 H         1 <0>         0.0000
     29 H7         -1.0089   -0.0743   -0.3712 H         1 <0>         0.0000
     30 H8          3.0131    0.0822   -1.5305 H         1 <0>         0.0000
     31 H9          2.6050   -0.5373    0.0889 H         1 <0>         0.0000
     32 H10        -0.1265    2.3008   -0.2523 H         1 <0>         0.0000
     33 H11        -0.4979    1.7058    1.3851 H         1 <0>         0.0000
     34 H12         3.4179    1.7939    0.3445 H         1 <0>         0.0000
     35 H13         2.2561    2.3504   -0.8899 H         1 <0>         0.0000
     36 H14         1.9929    0.0891   -4.9535 H         1 <0>         0.0000
     37 H15         2.1870    1.3531   -6.2013 H         1 <0>         0.0000
     38 H16         2.2574    1.7514   -4.4616 H         1 <0>         0.0000
@<TRIPOS>BOND
     1    1    2 ar
     2    1    3 ar
     3    1   23 1
     4    2    6 ar
     5    2   24 1
     6    3    7 ar
     7    3   25 1
     8    4    6 ar
     9    4    7 ar
    10    4   26 1
    11    5    8 1
    12    5    9 2
    13    5   10 1
    14    6   18 1
    15    7   21 1
    16    8   15 1
    17    8   16 2
    18    9   18 1
    19    9   22 1
    20   10   17 2
    21   10   27 1
    22   11   13 1
    23   11   19 1
    24   11   28 1
    25   11   29 1
    26   12   14 1
    27   12   19 1
    28   12   30 1
    29   12   31 1
    30   13   20 1
    31   13   32 1
    32   13   33 1
    33   14   20 1
    34   14   34 1
    35   14   35 1
    36   15   36 1
    37   15   37 1
    38   15   38 1
    39   16   18 1
    40   17   19 1
