@<TRIPOS>MOLECULE
*****
   32    34     0     0     0
SMALL
NO_CHARGES

@<TRIPOS>ATOM
      1 C1          7.9224   -3.3486    4.4977 C.1       1 <0>         0.0000
      2 C2          0.8664   -0.1505    2.0314 C.ar      1 <0>         0.0000
      3 C3          0.4445   -0.7271    0.8298 C.ar      1 <0>         0.0000
      4 C4          2.0369   -0.6061    2.6333 C.ar      1 <0>         0.0000
      5 C5          1.1927   -1.7547    0.2520 C.ar      1 <0>         0.0000
      6 C6          9.2632   -3.7473   -0.1166 C.2       1 <0>         0.0000
      7 C7          9.0385   -3.6200   -1.4553 C.2       1 <0>         0.0000
      8 C8          7.0700   -2.9301   -0.0976 C.2       1 <0>         0.0000
      9 C9          2.7982   -1.6333    2.0465 C.ar      1 <0>         0.0000
     10 C10         8.1311   -3.3526    0.6947 C.2       1 <0>         0.0000
     11 C11         2.3752   -2.2304    0.8377 C.ar      1 <0>         0.0000
     12 C12         4.0219   -2.0561    2.7509 C.2       1 <0>         0.0000
     13 C13         6.0003   -2.6917    3.1399 C.2       1 <0>         0.0000
     14 C14         8.2316   -3.4234    2.1331 C.2       1 <0>         0.0000
     15 C15         7.3825   -3.1516    3.1764 C.2       1 <0>         0.0000
     16 C16         3.1212   -3.3599    0.1639 C.3       1 <0>         0.0000
     17 N1          8.3900   -3.5189    5.5513 N.1       1 <0>         0.0000
     18 N2          5.1897   -2.4696    2.1345 N.2       1 <0>         0.0000
     19 N3          4.1029   -2.0306    4.0680 N.2       1 <0>         0.0000
     20 O1          5.4144   -2.4454    4.3336 O.3       1 <0>         0.0000
     21 S1          7.4394   -3.0112   -1.7692 S.3       1 <0>         0.0000
     22 H1          0.2915    0.6473    2.4932 H         1 <0>         0.0000
     23 H2         -0.4661   -0.3828    0.3463 H         1 <0>         0.0000
     24 H3          2.3814   -0.1662    3.5640 H         1 <0>         0.0000
     25 H4          0.8490   -2.2088   -0.6744 H         1 <0>         0.0000
     26 H5         10.1983   -4.1090    0.2996 H         1 <0>         0.0000
     27 H6          9.7089   -3.8439   -2.2749 H         1 <0>         0.0000
     28 H7          6.1075   -2.5857    0.2500 H         1 <0>         0.0000
     29 H8          9.2092   -3.7663    2.4652 H         1 <0>         0.0000
     30 H9          3.9691   -2.9832   -0.4173 H         1 <0>         0.0000
     31 H10         3.5225   -4.0794    0.8806 H         1 <0>         0.0000
     32 H11         2.4593   -3.8919   -0.5246 H         1 <0>         0.0000
@<TRIPOS>BOND
     1    1   15 1
     2    1   17 3
     3    2    3 ar
     4    2    4 ar
     5    2   22 1
     6    3    5 ar
     7    3   23 1
     8    4    9 ar
     9    4   24 1
    10    5   11 ar
    11    5   25 1
    12    6    7 2
    13    6   10 1
    14    6   26 1
    15    7   21 1
    16    7   27 1
    17    8   10 2
    18    8   21 1
    19    8   28 1
    20    9   11 ar
    21    9   12 1
    22   10   14 1
    23   11   16 1
    24   12   18 1
    25   12   19 2
    26   13   15 1
    27   13   18 2
    28   13   20 1
    29   14   15 2
    30   14   29 1
    31   16   30 1
    32   16   31 1
    33   16   32 1
    34   19   20 1
