@<TRIPOS>MOLECULE
*****
   18    19     0     0     0
SMALL
NO_CHARGES

@<TRIPOS>ATOM
      1 C1         -0.1745    0.4646    0.9628 C.ar      1 <0>         0.0000
      2 C2          0.7128    1.9045    2.7342 C.ar      1 <0>         0.0000
      3 C3         -1.3904    0.2827    1.6693 C.ar      1 <0>         0.0000
      4 C4         -0.4772    1.7144    3.4045 C.ar      1 <0>         0.0000
      5 C5         -1.5160    0.9245    2.8981 C.ar      1 <0>         0.0000
      6 C6          0.8356    1.2521    1.4893 C.ar      1 <0>         0.0000
      7 C7         -2.4287   -0.5745    1.0448 C.2       1 <0>         0.0000
      8 C8         -2.1643    1.7492    4.8878 C.3       1 <0>         0.0000
      9 O1         -2.3023   -1.1293   -0.0327 O.2       1 <0>         0.0000
     10 O2         -0.8385    2.2365    4.6225 O.3       1 <0>         0.0000
     11 O3         -2.5622    0.9237    3.7783 O.3       1 <0>         0.0000
     12 O4         -3.5544   -0.6891    1.7933 O.3       1 <0>         0.0000
     13 Br1         2.4659    1.4761    0.5070 Br        1 <0>         0.0000
     14 H1         -0.0649   -0.0301    0.0049 H         1 <0>         0.0000
     15 H2          1.5058    2.5203    3.1432 H         1 <0>         0.0000
     16 H3         -2.1545    1.1446    5.8003 H         1 <0>         0.0000
     17 H4         -2.8536    2.5955    4.9714 H         1 <0>         0.0000
     18 H5         -4.1537   -1.2687    1.2843 H         1 <0>         0.0000
@<TRIPOS>BOND
     1    1    3 ar
     2    1    6 ar
     3    1   14 1
     4    2    4 ar
     5    2    6 ar
     6    2   15 1
     7    3    5 ar
     8    3    7 1
     9    4    5 ar
    10    4   10 1
    11    5   11 1
    12    6   13 1
    13    7    9 2
    14    7   12 1
    15    8   10 1
    16    8   11 1
    17    8   16 1
    18    8   17 1
    19   12   18 1
