@<TRIPOS>MOLECULE
*****
   25    26     0     0     0
SMALL
NO_CHARGES

@<TRIPOS>ATOM
      1 C1          0.8816   -4.9189   -0.3520 C.ar      1 <0>         0.0000
      2 C2          1.7866   -5.0461    0.7046 C.ar      1 <0>         0.0000
      3 C3         -0.0664   -4.9361    2.2841 C.ar      1 <0>         0.0000
      4 C4         -0.4909   -4.8048   -0.1204 C.ar      1 <0>         0.0000
      5 C5          1.2928   -5.0446    2.0044 C.ar      1 <0>         0.0000
      6 C6         -0.9380   -4.8271    1.2069 C.ar      1 <0>         0.0000
      7 C7         -1.7250   -0.1233   -1.7188 C.3       1 <0>         0.0000
      8 C8         -0.3125   -0.5031   -1.2665 C.3       1 <0>         0.0000
      9 C9         -1.3535   -2.4064   -1.8978 C.3       1 <0>         0.0000
     10 C10        -2.1558   -3.5623   -1.3187 C.3       1 <0>         0.0000
     11 O1         -2.2471   -1.3494   -2.2568 O.3       1 <0>         0.0000
     12 O2         -0.4582   -1.8864   -0.9325 O.3       1 <0>         0.0000
     13 O3         -1.3601   -4.7509   -1.1857 O.3       1 <0>         0.0000
     14 F1          2.1599   -5.1570    3.0436 F         1 <0>         0.0000
     15 F2         -2.2686   -4.7417    1.4571 F         1 <0>         0.0000
     16 H1          1.2285   -4.9028   -1.3804 H         1 <0>         0.0000
     17 H2          2.8539   -5.1355    0.5307 H         1 <0>         0.0000
     18 H3         -0.4389   -4.9489    3.3028 H         1 <0>         0.0000
     19 H4         -2.3490    0.1997   -0.8776 H         1 <0>         0.0000
     20 H5         -1.7367    0.6440   -2.4984 H         1 <0>         0.0000
     21 H6          0.4195   -0.3786   -2.0767 H         1 <0>         0.0000
     22 H7          0.0308    0.0280   -0.3771 H         1 <0>         0.0000
     23 H8         -0.7989   -2.7278   -2.7942 H         1 <0>         0.0000
     24 H9         -2.9524   -3.8189   -2.0194 H         1 <0>         0.0000
     25 H10        -2.5975   -3.2598   -0.3661 H         1 <0>         0.0000
@<TRIPOS>BOND
     1    1    2 ar
     2    1    4 ar
     3    1   16 1
     4    2    5 ar
     5    2   17 1
     6    3    5 ar
     7    3    6 ar
     8    3   18 1
     9    4    6 ar
    10    4   13 1
    11    5   14 1
    12    6   15 1
    13    7    8 1
    14    7   11 1
    15    7   19 1
    16    7   20 1
    17    8   12 1
    18    8   21 1
    19    8   22 1
    20    9   10 1
    21    9   12 1
    22    9   11 1
    23    9   23 1
    24   10   13 1
    25   10   24 1
    26   10   25 1
