@<TRIPOS>MOLECULE
*****
   32    34     0     0     0
SMALL
NO_CHARGES

@<TRIPOS>ATOM
      1 C1          7.5719   -3.7037    4.9558 C.1       1 <0>         0.0000
      2 C2          0.1497   -1.9012    2.1731 C.ar      1 <0>         0.0000
      3 C3          0.2198   -1.1932    0.9698 C.ar      1 <0>         0.0000
      4 C4          1.3259   -2.3369    2.7786 C.ar      1 <0>         0.0000
      5 C5          1.4620   -0.9382    0.3854 C.ar      1 <0>         0.0000
      6 C6          9.1770    0.4764    3.1674 C.2       1 <0>         0.0000
      7 C7          9.0045    1.6448    2.4864 C.2       1 <0>         0.0000
      8 C8          6.9243    0.2805    2.5635 C.2       1 <0>         0.0000
      9 C9          2.5790   -2.0708    2.1971 C.ar      1 <0>         0.0000
     10 C10         7.9801   -0.3357    3.2250 C.2       1 <0>         0.0000
     11 C11         2.6607   -1.3653    0.9756 C.ar      1 <0>         0.0000
     12 C12         3.7726   -2.5703    2.9030 C.2       1 <0>         0.0000
     13 C13         5.7193   -2.7029    3.7170 C.2       1 <0>         0.0000
     14 C14         8.0130   -1.5970    3.9265 C.2       1 <0>         0.0000
     15 C15         7.1028   -2.5968    4.1617 C.2       1 <0>         0.0000
     16 C16         3.9665   -1.0688    0.2732 C.3       1 <0>         0.0000
     17 N1          7.9836   -4.5828    5.6004 N.1       1 <0>         0.0000
     18 N2          4.9956   -1.9248    2.9499 N.2       1 <0>         0.0000
     19 N3          3.7429   -3.6920    3.5980 N.2       1 <0>         0.0000
     20 O1          5.0289   -3.7838    4.1458 O.3       1 <0>         0.0000
     21 S1          7.3747    1.7936    1.8964 S.3       1 <0>         0.0000
     22 H1         -0.8106   -2.1094    2.6366 H         1 <0>         0.0000
     23 H2         -0.6884   -0.8452    0.4845 H         1 <0>         0.0000
     24 H3          1.2898   -2.8839    3.7155 H         1 <0>         0.0000
     25 H4          1.5068   -0.4008   -0.5590 H         1 <0>         0.0000
     26 H5         10.1188    0.1840    3.6212 H         1 <0>         0.0000
     27 H6          9.7286    2.4260    2.2948 H         1 <0>         0.0000
     28 H7          5.9227   -0.1075    2.4531 H         1 <0>         0.0000
     29 H8          8.9829   -1.7972    4.3768 H         1 <0>         0.0000
     30 H9          4.4626   -0.1969    0.7117 H         1 <0>         0.0000
     31 H10         4.6715   -1.9003    0.3367 H         1 <0>         0.0000
     32 H11         3.7861   -0.8497   -0.7825 H         1 <0>         0.0000
@<TRIPOS>BOND
     1    1   15 1
     2    1   17 3
     3    2    3 ar
     4    2    4 ar
     5    2   22 1
     6    3    5 ar
     7    3   23 1
     8    4    9 ar
     9    4   24 1
    10    5   11 ar
    11    5   25 1
    12    6    7 2
    13    6   10 1
    14    6   26 1
    15    7   21 1
    16    7   27 1
    17    8   10 2
    18    8   21 1
    19    8   28 1
    20    9   11 ar
    21    9   12 1
    22   10   14 1
    23   11   16 1
    24   12   18 1
    25   12   19 2
    26   13   15 1
    27   13   18 2
    28   13   20 1
    29   14   15 2
    30   14   29 1
    31   16   30 1
    32   16   31 1
    33   16   32 1
    34   19   20 1
