@<TRIPOS>MOLECULE
*****
   25    26     0     0     0
SMALL
NO_CHARGES

@<TRIPOS>ATOM
      1 C1         -2.9620    0.7289   -4.8120 C.ar      1 <0>         0.0000
      2 C2         -4.1178    0.3328   -5.5000 C.ar      1 <0>         0.0000
      3 C3         -3.4575   -1.9953   -5.2577 C.ar      1 <0>         0.0000
      4 C4         -2.0456   -0.2184   -4.3419 C.ar      1 <0>         0.0000
      5 C5         -4.3440   -1.0184   -5.7103 C.ar      1 <0>         0.0000
      6 C6         -2.3228   -1.5767   -4.5804 C.ar      1 <0>         0.0000
      7 C7          2.9234    1.8816   -2.9438 C.3       1 <0>         0.0000
      8 C8          2.2843    3.1606   -2.3874 C.3       1 <0>         0.0000
      9 C9          0.7319    1.4638   -2.6666 C.3       1 <0>         0.0000
     10 C10        -0.5877    1.4223   -3.4135 C.3       1 <0>         0.0000
     11 O1          1.8113    1.2098   -3.5402 O.3       1 <0>         0.0000
     12 O2          0.9187    2.7812   -2.1436 O.3       1 <0>         0.0000
     13 O3         -0.8951    0.0543   -3.6638 O.3       1 <0>         0.0000
     14 F1         -5.4599   -1.4152   -6.3761 F         1 <0>         0.0000
     15 F2         -1.4490   -2.5026   -4.1292 F         1 <0>         0.0000
     16 H1         -2.7872    1.7858   -4.6491 H         1 <0>         0.0000
     17 H2         -4.8298    1.0651   -5.8662 H         1 <0>         0.0000
     18 H3         -3.6426   -3.0507   -5.4263 H         1 <0>         0.0000
     19 H4          3.6719    2.0573   -3.7181 H         1 <0>         0.0000
     20 H5          3.3589    1.2666   -2.1440 H         1 <0>         0.0000
     21 H6          2.7411    3.4948   -1.4510 H         1 <0>         0.0000
     22 H7          2.3021    3.9793   -3.1152 H         1 <0>         0.0000
     23 H8          0.7315    0.7367   -1.8390 H         1 <0>         0.0000
     24 H9         -0.4866    1.9847   -4.3491 H         1 <0>         0.0000
     25 H10        -1.3596    1.8858   -2.7874 H         1 <0>         0.0000
@<TRIPOS>BOND
     1    1    2 ar
     2    1    4 ar
     3    1   16 1
     4    2    5 ar
     5    2   17 1
     6    3    5 ar
     7    3    6 ar
     8    3   18 1
     9    4    6 ar
    10    4   13 1
    11    5   14 1
    12    6   15 1
    13    7    8 1
    14    7   11 1
    15    7   19 1
    16    7   20 1
    17    8   12 1
    18    8   21 1
    19    8   22 1
    20    9   10 1
    21    9   12 1
    22    9   11 1
    23    9   23 1
    24   10   13 1
    25   10   24 1
    26   10   25 1
