@<TRIPOS>MOLECULE
*****
   19    19     0     0     0
SMALL
NO_CHARGES

@<TRIPOS>ATOM
      1 C1          5.7660    1.3710    0.5850 C.ar      1 <0>         0.0000
      2 C2          4.6700    1.4120    1.4450 C.ar      1 <0>         0.0000
      3 C3          5.7520    0.5310   -0.5270 C.ar      1 <0>         0.0000
      4 C4          3.5560    0.6160    1.1970 C.ar      1 <0>         0.0000
      5 C5          4.6420   -0.2680   -0.7840 C.ar      1 <0>         0.0000
      6 C6          3.5440   -0.2200    0.0760 C.ar      1 <0>         0.0000
      7 C7          1.1260   -0.8580    0.0530 C.2       1 <0>         0.0000
      8 C8          0.1820   -1.9520   -0.3620 C.3       1 <0>         0.0000
      9 N1          2.4510   -1.0700   -0.2220 N.am      1 <0>         0.0000
     10 O1          0.7400    0.1610    0.5800 O.2       1 <0>         0.0000
     11 H1          6.6120    1.9800    0.7780 H         1 <0>         0.0000
     12 H2          4.6840    2.0510    2.2900 H         1 <0>         0.0000
     13 H3          6.5880    0.5030   -1.1780 H         1 <0>         0.0000
     14 H4          2.7300    0.6440    1.8580 H         1 <0>         0.0000
     15 H5          4.6290   -0.9030   -1.6310 H         1 <0>         0.0000
     16 H6         -0.8090   -1.6470   -0.0590 H         1 <0>         0.0000
     17 H7          0.4970   -2.8530    0.1430 H         1 <0>         0.0000
     18 H8          0.2610   -2.0470   -1.4350 H         1 <0>         0.0000
     19 H9          2.6660   -1.9290   -0.7390 H         1 <0>         0.0000
@<TRIPOS>BOND
     1    1    2 ar
     2    1    3 ar
     3    1   11 1
     4    2    4 ar
     5    2   12 1
     6    3    5 ar
     7    3   13 1
     8    4    6 ar
     9    4   14 1
    10    5    6 ar
    11    5   15 1
    12    6    9 1
    13    7    8 1
    14    7    9 am
    15    7   10 2
    16    8   16 1
    17    8   17 1
    18    8   18 1
    19    9   19 1
