@<TRIPOS>MOLECULE
*****
   18    19     0     0     0
SMALL
NO_CHARGES

@<TRIPOS>ATOM
      1 C1          1.6756   -0.7186   -2.8730 C.ar      1 <0>         0.0000
      2 C2          1.3776   -0.1269   -1.6421 C.ar      1 <0>         0.0000
      3 C3         -0.6742   -1.4085   -1.4795 C.ar      1 <0>         0.0000
      4 C4          0.7916   -1.6713   -3.4245 C.ar      1 <0>         0.0000
      5 C5          0.2175   -0.4688   -0.9561 C.ar      1 <0>         0.0000
      6 C6         -0.3685   -1.9990   -2.7163 C.ar      1 <0>         0.0000
      7 C7         -0.0585   -3.1484   -4.8253 C.2       1 <0>         0.0000
      8 C8         -1.2556    0.8713    0.3655 C.3       1 <0>         0.0000
      9 N1          0.9552   -2.3379   -4.6301 N.2       1 <0>         0.0000
     10 O1         -0.0549    0.1189    0.2433 O.3       1 <0>         0.0000
     11 F1         -1.6064    1.4228   -0.8156 F         1 <0>         0.0000
     12 F2         -1.0511    1.8746    1.2491 F         1 <0>         0.0000
     13 F3         -2.2645    0.1055    0.8324 F         1 <0>         0.0000
     14 S1         -1.2595   -3.1758   -3.6075 S.3       1 <0>         0.0000
     15 Br1        -0.1839   -4.2374   -6.3892 Br        1 <0>         0.0000
     16 H1          2.5845   -0.4443   -3.4004 H         1 <0>         0.0000
     17 H2          2.0640    0.6054   -1.2246 H         1 <0>         0.0000
     18 H3         -1.5798   -1.6747   -0.9421 H         1 <0>         0.0000
@<TRIPOS>BOND
     1    1    2 ar
     2    1    4 ar
     3    1   16 1
     4    2    5 ar
     5    2   17 1
     6    3    5 ar
     7    3    6 ar
     8    3   18 1
     9    4    6 ar
    10    4    9 1
    11    5   10 1
    12    6   14 1
    13    7    9 2
    14    7   14 1
    15    7   15 1
    16    8   10 1
    17    8   11 1
    18    8   12 1
    19    8   13 1
