@<TRIPOS>MOLECULE
*****
   24    25     0     0     0
SMALL
NO_CHARGES

@<TRIPOS>ATOM
      1 C1          6.2904   -0.4808    2.7756 C.1       1 <0>         0.0000
      2 C2          5.0478   -3.8708    3.6813 C.ar      1 <0>         0.0000
      3 C3          5.9145   -2.8116    3.4121 C.ar      1 <0>         0.0000
      4 C4          3.6685   -3.6840    3.5893 C.ar      1 <0>         0.0000
      5 C5          4.0228   -1.3787    2.9592 C.ar      1 <0>         0.0000
      6 C6          5.4020   -1.5655    3.0511 C.ar      1 <0>         0.0000
      7 C7          3.1560   -2.4379    3.2283 C.ar      1 <0>         0.0000
      8 C8          0.8130   -3.1629    2.8067 C.2       1 <0>         0.0000
      9 C9         -0.3714   -4.9491    2.2312 C.3       1 <0>         0.0000
     10 C10        -1.3624   -3.7952    2.4302 C.3       1 <0>         0.0000
     11 N1          7.0119    0.4002    2.5518 N.1       1 <0>         0.0000
     12 N2          1.0013   -4.4251    2.5037 N.2       1 <0>         0.0000
     13 N3         -0.4785   -2.7283    2.7886 N.pl3     1 <0>         0.0000
     14 N4          1.7708   -2.2509    3.1362 N.pl3     1 <0>         0.0000
     15 H1          5.4468   -4.8411    3.9624 H         1 <0>         0.0000
     16 H2          6.9872   -2.9729    3.4880 H         1 <0>         0.0000
     17 H3          3.0023   -4.5163    3.8012 H         1 <0>         0.0000
     18 H4          3.6186   -0.4081    2.6779 H         1 <0>         0.0000
     19 H5         -0.5832   -5.7733    2.9204 H         1 <0>         0.0000
     20 H6         -0.4128   -5.3286    1.2048 H         1 <0>         0.0000
     21 H7         -1.9095   -3.5718    1.5097 H         1 <0>         0.0000
     22 H8         -2.0743   -4.0113    3.2322 H         1 <0>         0.0000
     23 H9         -0.7883   -1.7868    2.9959 H         1 <0>         0.0000
     24 H10         1.4227   -1.3239    3.3369 H         1 <0>         0.0000
@<TRIPOS>BOND
     1    1    6 1
     2    1   11 3
     3    2    3 ar
     4    2    4 ar
     5    2   15 1
     6    3    6 ar
     7    3   16 1
     8    4    7 ar
     9    4   17 1
    10    5    6 ar
    11    5    7 ar
    12    5   18 1
    13    7   14 1
    14    8   12 2
    15    8   13 1
    16    8   14 1
    17    9   10 1
    18    9   12 1
    19    9   19 1
    20    9   20 1
    21   10   13 1
    22   10   21 1
    23   10   22 1
    24   13   23 1
    25   14   24 1
