@<TRIPOS>MOLECULE
*****
   37    39     0     0     0
SMALL
NO_CHARGES

@<TRIPOS>ATOM
      1 C1          2.2369    2.8914    4.5429 C.1       1 <0>         0.0000
      2 C2         -2.9678    2.4126    7.3068 C.ar      1 <0>         0.0000
      3 C3         -1.0829    3.7925    7.9932 C.ar      1 <0>         0.0000
      4 C4         -3.6999    2.8437    8.4165 C.ar      1 <0>         0.0000
      5 C5         -1.8073    4.2248    9.1073 C.ar      1 <0>         0.0000
      6 C6         -1.6675    2.8963    7.0821 C.ar      1 <0>         0.0000
      7 C7         -3.0958    3.7248    9.3154 C.ar      1 <0>         0.0000
      8 C8          0.3501    1.4715    3.6469 C.2       1 <0>         0.0000
      9 C9         -0.0177    0.1504    1.9439 C.2       1 <0>         0.0000
     10 C10         0.8932    2.3979    4.6404 C.2       1 <0>         0.0000
     11 C11         0.1840   -0.6363    0.6918 C.3       1 <0>         0.0000
     12 C12         1.3973   -1.5874    0.7490 C.3       1 <0>         0.0000
     13 C13         2.7626   -0.8957    0.6223 C.3       1 <0>         0.0000
     14 C14         3.1224    0.1009    1.7343 C.3       1 <0>         0.0000
     15 C15         2.2008    1.3222    1.8270 C.3       1 <0>         0.0000
     16 N1          3.3357    3.2732    4.4514 N.1       1 <0>         0.0000
     17 N2         -0.8539    0.9161    3.7876 N.2       1 <0>         0.0000
     18 N3         -1.0806    0.0847    2.7227 N.2       1 <0>         0.0000
     19 N4          0.2489    2.8298    5.7067 N.2       1 <0>         0.0000
     20 N5          0.9149    1.0141    2.4708 N.pl3     1 <0>         0.0000
     21 N6         -0.9794    2.4290    5.9535 N.pl3     1 <0>         0.0000
     22 I1         -4.5005    4.9761   10.6564 I         1 <0>         0.0000
     23 H1         -3.4131    1.7064    6.6099 H         1 <0>         0.0000
     24 H2         -0.0733    4.1488    7.8219 H         1 <0>         0.0000
     25 H3         -4.7103    2.4813    8.5732 H         1 <0>         0.0000
     26 H4         -1.3596    4.9269    9.8027 H         1 <0>         0.0000
     27 H5         -0.7361   -1.2057    0.5411 H         1 <0>         0.0000
     28 H6          0.2866    0.0409   -0.1669 H         1 <0>         0.0000
     29 H7          1.3524   -2.1670    1.6790 H         1 <0>         0.0000
     30 H8          1.2994   -2.3066   -0.0716 H         1 <0>         0.0000
     31 H9          3.5405   -1.6669    0.5865 H         1 <0>         0.0000
     32 H10         2.8069   -0.3740   -0.3438 H         1 <0>         0.0000
     33 H11         3.1456   -0.3979    2.7104 H         1 <0>         0.0000
     34 H12         4.1358    0.4753    1.5520 H         1 <0>         0.0000
     35 H13         2.6823    2.1142    2.3915 H         1 <0>         0.0000
     36 H14         1.9863    1.7206    0.8292 H         1 <0>         0.0000
     37 H15        -1.4173    1.7501    5.3070 H         1 <0>         0.0000
@<TRIPOS>BOND
     1    1   10 1
     2    1   16 3
     3    2    4 ar
     4    2    6 ar
     5    2   23 1
     6    3    5 ar
     7    3    6 ar
     8    3   24 1
     9    4    7 ar
    10    4   25 1
    11    5    7 ar
    12    5   26 1
    13    6   21 1
    14    7   22 1
    15    8   10 1
    16    8   17 2
    17    8   20 1
    18    9   11 1
    19    9   18 2
    20    9   20 1
    21   10   19 2
    22   11   12 1
    23   11   27 1
    24   11   28 1
    25   12   13 1
    26   12   29 1
    27   12   30 1
    28   13   14 1
    29   13   31 1
    30   13   32 1
    31   14   15 1
    32   14   33 1
    33   14   34 1
    34   15   20 1
    35   15   35 1
    36   15   36 1
    37   17   18 1
    38   19   21 1
    39   21   37 1
