@<TRIPOS>MOLECULE
*****
   22    23     0     0     0
SMALL
NO_CHARGES

@<TRIPOS>ATOM
      1 C1         -1.6939    0.6313   -1.5241 C.2       1 <0>         0.0000
      2 C2         -0.4286    0.0939   -1.1130 C.2       1 <0>         0.0000
      3 C3         -1.9401    0.3857   -2.8421 C.2       1 <0>         0.0000
      4 C4          0.2608   -0.5347   -2.1250 C.2       1 <0>         0.0000
      5 C5         -1.3218   -4.6408    0.8110 C.2       1 <0>         0.0000
      6 C6         -0.9479   -2.2829    1.0382 C.2       1 <0>         0.0000
      7 C7         -1.7273   -6.0786    0.8917 C.3       1 <0>         0.0000
      8 N1         -0.5303   -4.1514   -0.0944 N.2       1 <0>         0.0000
      9 N2         -0.3174   -2.7980    0.0237 N.2       1 <0>         0.0000
     10 N3         -0.8812   -0.9454    1.3963 N.pl3     1 <0>         0.0000
     11 O1         -0.4810    1.4713    1.1215 O.2       1 <0>         0.0000
     12 O2          1.4708   -0.1308    0.7171 O.2       1 <0>         0.0000
     13 S1         -0.6404   -0.4901   -3.6169 S.3       1 <0>         0.0000
     14 S2         -1.8927   -3.4320    1.9716 S.3       1 <0>         0.0000
     15 S3          0.0731    0.2301    0.5835 S.o2      1 <0>         0.0000
     16 Cl1        -3.3283    0.8680   -3.7499 Cl        1 <0>         0.0000
     17 Cl2         1.7819   -1.3125   -2.1060 Cl        1 <0>         0.0000
     18 H1         -2.3538    1.1883   -0.8699 H         1 <0>         0.0000
     19 H2         -1.4143   -6.5273    1.8398 H         1 <0>         0.0000
     20 H3         -2.8130   -6.1906    0.8068 H         1 <0>         0.0000
     21 H4         -1.2504   -6.6175    0.0709 H         1 <0>         0.0000
     22 H5         -1.6589   -0.5272    1.8973 H         1 <0>         0.0000
@<TRIPOS>BOND
     1    1    2 1
     2    1    3 2
     3    1   18 1
     4    2    4 2
     5    2   15 1
     6    3   13 1
     7    3   16 1
     8    4   13 1
     9    4   17 1
    10    5    7 1
    11    5    8 2
    12    5   14 1
    13    6    9 2
    14    6   10 1
    15    6   14 1
    16    7   19 1
    17    7   20 1
    18    7   21 1
    19    8    9 1
    20   10   15 1
    21   10   22 1
    22   11   15 2
    23   12   15 2
