@<TRIPOS>MOLECULE
*****
   41    43     0     0     0
SMALL
NO_CHARGES

@<TRIPOS>ATOM
      1 C1         -6.4783    7.9680   -3.4236 C.ar      1 <0>         0.0000
      2 C2         -5.5826    6.9074   -3.2799 C.ar      1 <0>         0.0000
      3 C3         -2.0357    0.5003   -0.7294 C.ar      1 <0>         0.0000
      4 C4         -1.9073    0.8525    0.6120 C.ar      1 <0>         0.0000
      5 C5         -1.8242    3.8162   -2.4245 C.2       1 <0>         0.0000
      6 C6         -1.7179    3.1985    0.0020 C.ar      1 <0>         0.0000
      7 C7         -4.2866    7.7962   -5.1193 C.ar      1 <0>         0.0000
      8 C8         -1.8484    2.8519   -1.3580 C.ar      1 <0>         0.0000
      9 C9         -1.9685    3.4476   -3.7277 C.2       1 <0>         0.0000
     10 C10        -6.3049    8.9544   -4.4012 C.ar      1 <0>         0.0000
     11 C11        -5.1873    8.8562   -5.2599 C.ar      1 <0>         0.0000
     12 C12        -4.4748    6.8177   -4.1324 C.ar      1 <0>         0.0000
     13 C13        -2.0079    1.4987   -1.7054 C.ar      1 <0>         0.0000
     14 C14        -1.7510    2.2023    0.9665 C.ar      1 <0>         0.0000
     15 C15        -2.1624    2.0251   -4.0677 C.2       1 <0>         0.0000
     16 C16        -1.9043    4.4403   -4.8390 C.2       1 <0>         0.0000
     17 C17        -7.2914   10.0914   -4.5314 C.3       1 <0>         0.0000
     18 C18        -4.9568    9.8930   -6.3349 C.3       1 <0>         0.0000
     19 C19        -0.8976    4.2182   -5.9379 C.3       1 <0>         0.0000
     20 N1         -2.6292    5.5091   -4.8950 N.2       1 <0>         0.0000
     21 N2         -3.5576    5.7692   -3.9409 N.pl3     1 <0>         0.0000
     22 O1         -2.3417    1.5786   -5.1792 O.2       1 <0>         0.0000
     23 O2         -2.1425    1.1167   -3.0093 O.3       1 <0>         0.0000
     24 Br1        -1.5849    2.6720    2.8154 Br        1 <0>         0.0000
     25 H1         -7.3356    8.0250   -2.7564 H         1 <0>         0.0000
     26 H2         -5.7459    6.1551   -2.5101 H         1 <0>         0.0000
     27 H3         -2.1591   -0.5354   -1.0300 H         1 <0>         0.0000
     28 H4         -1.9293    0.0869    1.3804 H         1 <0>         0.0000
     29 H5         -1.6808    4.8658   -2.1769 H         1 <0>         0.0000
     30 H6         -1.5949    4.2401    0.2822 H         1 <0>         0.0000
     31 H7         -3.4288    7.7146   -5.7776 H         1 <0>         0.0000
     32 H8         -6.8082   11.0666   -4.3953 H         1 <0>         0.0000
     33 H9         -7.7646   10.1082   -5.5207 H         1 <0>         0.0000
     34 H10        -8.0864   10.0084   -3.7852 H         1 <0>         0.0000
     35 H11        -5.8010    9.9404   -7.0327 H         1 <0>         0.0000
     36 H12        -4.8441   10.8958   -5.9059 H         1 <0>         0.0000
     37 H13        -4.0559    9.6717   -6.9126 H         1 <0>         0.0000
     38 H14        -1.1257    3.3061   -6.4960 H         1 <0>         0.0000
     39 H15        -0.9133    5.0720   -6.6181 H         1 <0>         0.0000
     40 H16         0.1131    4.1085   -5.5257 H         1 <0>         0.0000
     41 H17        -3.8763    5.0005   -3.3534 H         1 <0>         0.0000
@<TRIPOS>BOND
     1    1    2 ar
     2    1   10 ar
     3    1   25 1
     4    2   12 ar
     5    2   26 1
     6    3    4 ar
     7    3   13 ar
     8    3   27 1
     9    4   14 ar
    10    4   28 1
    11    5    8 1
    12    5    9 2
    13    5   29 1
    14    6    8 ar
    15    6   14 ar
    16    6   30 1
    17    7   11 ar
    18    7   12 ar
    19    7   31 1
    20    8   13 ar
    21    9   15 1
    22    9   16 1
    23   10   11 ar
    24   10   17 1
    25   11   18 1
    26   12   21 1
    27   13   23 1
    28   14   24 1
    29   15   22 2
    30   15   23 1
    31   16   19 1
    32   16   20 2
    33   17   32 1
    34   17   33 1
    35   17   34 1
    36   18   35 1
    37   18   36 1
    38   18   37 1
    39   19   38 1
    40   19   39 1
    41   19   40 1
    42   20   21 1
    43   21   41 1
