@<TRIPOS>MOLECULE
*****
   40    43     0     0     0
SMALL
NO_CHARGES

@<TRIPOS>ATOM
      1 C1         -0.0242   -4.1162    1.5054 C.ar      1 <0>         0.0000
      2 C2          1.1981   -4.7996    1.5044 C.ar      1 <0>         0.0000
      3 C3         -0.6315   -3.7875    0.2936 C.ar      1 <0>         0.0000
      4 C4          1.7912   -5.1465    0.2912 C.ar      1 <0>         0.0000
      5 C5          4.4490   -8.8086   -6.5749 C.ar      1 <0>         0.0000
      6 C6          3.9137   -8.0027   -5.5726 C.ar      1 <0>         0.0000
      7 C7          2.3500   -6.9127   -7.1192 C.ar      1 <0>         0.0000
      8 C8         -0.0443   -4.1377   -0.9315 C.ar      1 <0>         0.0000
      9 C9          1.1770   -4.8264   -0.9278 C.ar      1 <0>         0.0000
     10 C10         3.9293   -8.6680   -7.8645 C.ar      1 <0>         0.0000
     11 C11         2.8798   -7.0651   -5.8262 C.ar      1 <0>         0.0000
     12 C12         2.9082   -7.7345   -8.0879 C.ar      1 <0>         0.0000
     13 C13         3.4300   -8.7670   -9.9403 C.2       1 <0>         0.0000
     14 C14         1.4653   -5.3260   -4.6828 C.2       1 <0>         0.0000
     15 C15        -0.6865   -3.7661   -2.2478 C.3       1 <0>         0.0000
     16 C16         1.8597   -5.2709   -2.2102 C.3       1 <0>         0.0000
     17 C17         0.3741   -3.6094   -3.3329 C.3       1 <0>         0.0000
     18 C18         3.3026   -9.0558  -11.3934 C.3       1 <0>         0.0000
     19 N1          4.2323   -9.3059   -9.0756 N.2       1 <0>         0.0000
     20 N2          1.1764   -4.8300   -3.4212 N.am      1 <0>         0.0000
     21 N3          2.4301   -6.3239   -4.7120 N.am      1 <0>         0.0000
     22 O1          0.8982   -4.9152   -5.6974 O.2       1 <0>         0.0000
     23 O2          2.5838   -7.7954   -9.4264 O.3       1 <0>         0.0000
     24 H1         -0.4938   -3.8359    2.4446 H         1 <0>         0.0000
     25 H2          1.6851   -5.0554    2.4416 H         1 <0>         0.0000
     26 H3         -1.5748   -3.2451    0.2906 H         1 <0>         0.0000
     27 H4          2.7436   -5.6746    0.2892 H         1 <0>         0.0000
     28 H5          5.2406   -9.5202   -6.3612 H         1 <0>         0.0000
     29 H6          4.3001   -8.0951   -4.5593 H         1 <0>         0.0000
     30 H7          1.5674   -6.1970   -7.3260 H         1 <0>         0.0000
     31 H8         -1.3983   -4.5418   -2.5566 H         1 <0>         0.0000
     32 H9         -1.2501   -2.8329   -2.1426 H         1 <0>         0.0000
     33 H10         2.9051   -4.9198   -2.1920 H         1 <0>         0.0000
     34 H11         1.8811   -6.3675   -2.1937 H         1 <0>         0.0000
     35 H12        -0.0727   -3.4448   -4.3115 H         1 <0>         0.0000
     36 H13         1.0230   -2.7522   -3.1010 H         1 <0>         0.0000
     37 H14         2.2926   -9.4057  -11.6308 H         1 <0>         0.0000
     38 H15         3.4888   -8.1533  -11.9847 H         1 <0>         0.0000
     39 H16         4.0252   -9.8243  -11.6688 H         1 <0>         0.0000
     40 H17         2.9204   -6.5324   -3.8556 H         1 <0>         0.0000
@<TRIPOS>BOND
     1    1    2 ar
     2    1    3 ar
     3    1   24 1
     4    2    4 ar
     5    2   25 1
     6    3    8 ar
     7    3   26 1
     8    4    9 ar
     9    4   27 1
    10    5    6 ar
    11    5   10 ar
    12    5   28 1
    13    6   11 ar
    14    6   29 1
    15    7   11 ar
    16    7   12 ar
    17    7   30 1
    18    8    9 ar
    19    8   15 1
    20    9   16 1
    21   10   12 ar
    22   10   19 1
    23   11   21 1
    24   12   23 1
    25   13   18 1
    26   13   19 2
    27   13   23 1
    28   14   20 am
    29   14   21 am
    30   14   22 2
    31   15   17 1
    32   15   31 1
    33   15   32 1
    34   16   20 1
    35   16   33 1
    36   16   34 1
    37   17   20 1
    38   17   35 1
    39   17   36 1
    40   18   37 1
    41   18   38 1
    42   18   39 1
    43   21   40 1
