@<TRIPOS>MOLECULE
*****
   42    45     0     0     0
SMALL
NO_CHARGES

@<TRIPOS>ATOM
      1 C1          5.4892   11.2499   -5.7349 C.ar      1 <0>         0.0000
      2 C2          6.0126    9.9344   -5.7360 C.ar      1 <0>         0.0000
      3 C3          9.4810    1.3386   -5.7934 C.ar      1 <0>         0.0000
      4 C4          9.7908    2.3404   -6.7202 C.ar      1 <0>         0.0000
      5 C5          4.5948   11.6169   -4.7538 C.ar      1 <0>         0.0000
      6 C6          5.6425    9.0161   -4.7729 C.ar      1 <0>         0.0000
      7 C7          3.2731   11.0857   -2.7453 C.ar      1 <0>         0.0000
      8 C8          8.5833    1.5786   -4.7451 C.ar      1 <0>         0.0000
      9 C9          2.8732   10.2077   -1.7642 C.ar      1 <0>         0.0000
     10 C10         9.2042    3.6097   -6.6147 C.ar      1 <0>         0.0000
     11 C11         4.1941   10.6946   -3.7486 C.ar      1 <0>         0.0000
     12 C12         4.7202    9.3590   -3.7425 C.ar      1 <0>         0.0000
     13 C13         4.3017    8.4367   -2.7140 C.ar      1 <0>         0.0000
     14 C14         8.0002    2.8444   -4.6425 C.ar      1 <0>         0.0000
     15 C15         3.3836    8.8875   -1.7459 C.ar      1 <0>         0.0000
     16 C16         8.3117    3.8536   -5.5752 C.ar      1 <0>         0.0000
     17 C17         6.6724    4.5742   -3.8068 C.2       1 <0>         0.0000
     18 C18         4.7483    7.0524   -2.5783 C.2       1 <0>         0.0000
     19 C19         6.6174    2.4036   -2.6019 C.3       1 <0>         0.0000
     20 C20         2.0796    8.3925    0.2199 C.3       1 <0>         0.0000
     21 N1          5.8322    5.1381   -3.0007 N.2       1 <0>         0.0000
     22 N2          5.5863    6.4545   -3.3637 N.2       1 <0>         0.0000
     23 N3          7.0916    3.2659   -3.6750 N.pl3     1 <0>         0.0000
     24 O1          3.0060    7.9882   -0.7829 O.3       1 <0>         0.0000
     25 S1          7.4419    5.3527   -5.2186 S.3       1 <0>         0.0000
     26 H1          5.7915   11.9596   -6.5007 H         1 <0>         0.0000
     27 H2          6.7190    9.6392   -6.5081 H         1 <0>         0.0000
     28 H3          9.9410    0.3585   -5.8839 H         1 <0>         0.0000
     29 H4         10.4890    2.1374   -7.5270 H         1 <0>         0.0000
     30 H5          4.1789   12.6218   -4.7320 H         1 <0>         0.0000
     31 H6          6.0528    8.0176   -4.7905 H         1 <0>         0.0000
     32 H7          2.8790   12.0993   -2.7565 H         1 <0>         0.0000
     33 H8          8.3481    0.7966   -4.0301 H         1 <0>         0.0000
     34 H9          2.1677   10.5348   -1.0101 H         1 <0>         0.0000
     35 H10         9.4425    4.3899   -7.3324 H         1 <0>         0.0000
     36 H11         4.3315    6.4926   -1.7417 H         1 <0>         0.0000
     37 H12         7.4576    2.0714   -1.9828 H         1 <0>         0.0000
     38 H13         6.1072    1.5277   -3.0167 H         1 <0>         0.0000
     39 H14         5.9200    2.9742   -1.9912 H         1 <0>         0.0000
     40 H15         1.9399    7.5187    0.8578 H         1 <0>         0.0000
     41 H16         1.1149    8.6796   -0.2153 H         1 <0>         0.0000
     42 H17         2.4736    9.2197    0.8222 H         1 <0>         0.0000
@<TRIPOS>BOND
     1    1    2 ar
     2    1    5 ar
     3    1   26 1
     4    2    6 ar
     5    2   27 1
     6    3    4 ar
     7    3    8 ar
     8    3   28 1
     9    4   10 ar
    10    4   29 1
    11    5   11 ar
    12    5   30 1
    13    6   12 ar
    14    6   31 1
    15    7    9 ar
    16    7   11 ar
    17    7   32 1
    18    8   14 ar
    19    8   33 1
    20    9   15 ar
    21    9   34 1
    22   10   16 ar
    23   10   35 1
    24   11   12 ar
    25   12   13 ar
    26   13   15 ar
    27   13   18 1
    28   14   16 ar
    29   14   23 1
    30   15   24 1
    31   16   25 1
    32   17   21 2
    33   17   23 1
    34   17   25 1
    35   18   22 2
    36   18   36 1
    37   19   23 1
    38   19   37 1
    39   19   38 1
    40   19   39 1
    41   20   24 1
    42   20   40 1
    43   20   41 1
    44   20   42 1
    45   21   22 1
