@<TRIPOS>MOLECULE
*****
   22    23     0     0     0
SMALL
NO_CHARGES

@<TRIPOS>ATOM
      1 C1          1.5217    2.2623    1.7061 C.2       1 <0>         0.0000
      2 C2          1.4800    0.9862    1.0572 C.2       1 <0>         0.0000
      3 C3          1.7363    3.2704    0.8104 C.2       1 <0>         0.0000
      4 C4          1.6641    1.0529   -0.3027 C.2       1 <0>         0.0000
      5 C5         -0.5490   -4.7311    0.2852 C.2       1 <0>         0.0000
      6 C6         -0.3996   -2.4682    1.0248 C.2       1 <0>         0.0000
      7 C7         -0.3675   -6.1219   -0.2376 C.3       1 <0>         0.0000
      8 N1         -1.6284   -4.3179    0.8855 N.2       1 <0>         0.0000
      9 N2         -1.5468   -3.0162    1.3177 N.2       1 <0>         0.0000
     10 N3         -0.1918   -1.1007    1.2628 N.pl3     1 <0>         0.0000
     11 O1          0.9729   -0.1094    3.3598 O.2       1 <0>         0.0000
     12 O2          2.2948   -1.4772    1.6495 O.2       1 <0>         0.0000
     13 S1          1.8910    2.6943   -0.8342 S.3       1 <0>         0.0000
     14 S2          0.7180   -3.5126    0.1829 S.3       1 <0>         0.0000
     15 S3          1.2517   -0.5156    1.9849 S.o2      1 <0>         0.0000
     16 Cl1         1.8613    4.9572    1.1504 Cl        1 <0>         0.0000
     17 Cl2         1.6672   -0.2362   -1.4366 Cl        1 <0>         0.0000
     18 H1          1.3992    2.3957    2.7741 H         1 <0>         0.0000
     19 H2         -0.1501   -6.1204   -1.3104 H         1 <0>         0.0000
     20 H3          0.4565   -6.6310    0.2727 H         1 <0>         0.0000
     21 H4         -1.2892   -6.6802   -0.0633 H         1 <0>         0.0000
     22 H5         -1.0117   -0.6989    1.7220 H         1 <0>         0.0000
@<TRIPOS>BOND
     1    1    2 1
     2    1    3 2
     3    1   18 1
     4    2    4 2
     5    2   15 1
     6    3   13 1
     7    3   16 1
     8    4   13 1
     9    4   17 1
    10    5    7 1
    11    5    8 2
    12    5   14 1
    13    6    9 2
    14    6   10 1
    15    6   14 1
    16    7   19 1
    17    7   20 1
    18    7   21 1
    19    8    9 1
    20   10   15 1
    21   10   22 1
    22   11   15 2
    23   12   15 2
