@<TRIPOS>MOLECULE
*****
   28    29     0     0     0
SMALL
NO_CHARGES

@<TRIPOS>ATOM
      1 C1          0.3526    0.9388   -9.3271 C.ar      1 <0>         0.0000
      2 C2          0.0681   -0.3852   -8.9859 C.ar      1 <0>         0.0000
      3 C3          0.2428    1.9535   -8.3721 C.ar      1 <0>         0.0000
      4 C4         -0.4282    0.2980   -6.6683 C.ar      1 <0>         0.0000
      5 C5         -0.3169   -0.6642   -7.6814 C.ar      1 <0>         0.0000
      6 C6         -0.1463    1.6136   -7.0842 C.ar      1 <0>         0.0000
      7 C7          1.1843   -4.7956   -2.0986 C.2       1 <0>         0.0000
      8 C8          1.6184   -4.9809   -3.4927 C.2       1 <0>         0.0000
      9 C9          0.5209   -2.8439   -3.8091 C.2       1 <0>         0.0000
     10 C10        -0.8706    0.0818   -5.2695 C.2       1 <0>         0.0000
     11 C11         1.5371   -5.8669   -1.1107 C.3       1 <0>         0.0000
     12 N1          0.5119   -3.7493   -1.7005 N.2       1 <0>         0.0000
     13 N2          0.1655   -2.7342   -2.5589 N.2       1 <0>         0.0000
     14 N3         -0.5882   -0.8403   -4.4171 N.2       1 <0>         0.0000
     15 N4          1.2233   -3.9165   -4.3061 N.am      1 <0>         0.0000
     16 N5          0.2422   -1.8581   -4.7419 N.pl3     1 <0>         0.0000
     17 O1          2.2470   -5.9327   -3.9446 O.2       1 <0>         0.0000
     18 F1         -0.6217   -1.9623   -7.3797 F         1 <0>         0.0000
     19 F2         -0.2555    2.5994   -6.1654 F         1 <0>         0.0000
     20 H1          0.6537    1.1815  -10.3415 H         1 <0>         0.0000
     21 H2          0.1233   -1.1916   -9.7098 H         1 <0>         0.0000
     22 H3          0.4539    2.9912   -8.6084 H         1 <0>         0.0000
     23 H4         -1.4939    0.8713   -4.8577 H         1 <0>         0.0000
     24 H5          2.6228   -6.0025   -1.0618 H         1 <0>         0.0000
     25 H6          1.1149   -6.8291   -1.4193 H         1 <0>         0.0000
     26 H7          1.1545   -5.5947   -0.1261 H         1 <0>         0.0000
     27 H8          1.4847   -3.9871   -5.2868 H         1 <0>         0.0000
     28 H9          0.4456   -2.0655   -5.7153 H         1 <0>         0.0000
@<TRIPOS>BOND
     1    1    3 ar
     2    1    2 ar
     3    1   20 1
     4    2    5 ar
     5    2   21 1
     6    3    6 ar
     7    3   22 1
     8    4    6 ar
     9    4    5 ar
    10    4   10 1
    11    5   18 1
    12    6   19 1
    13    7    8 1
    14    7   11 1
    15    7   12 2
    16    8   15 am
    17    8   17 2
    18    9   13 2
    19    9   15 1
    20    9   16 1
    21   10   14 2
    22   10   23 1
    23   11   24 1
    24   11   25 1
    25   11   26 1
    26   12   13 1
    27   14   16 1
    28   15   27 1
    29   16   28 1
