@<TRIPOS>MOLECULE
*****
   35    37     0     0     0
SMALL
NO_CHARGES

@<TRIPOS>ATOM
      1 C1          0.1465   -0.3573   -0.6180 C.ar      1 <0>         0.0000
      2 C2          1.0067    0.2928   -1.5231 C.ar      1 <0>         0.0000
      3 C3          4.2824   -5.7174   -4.9711 C.ar      1 <0>         0.0000
      4 C4          3.2853   -5.8913   -2.7789 C.ar      1 <0>         0.0000
      5 C5         -0.4974   -1.5451   -0.9630 C.ar      1 <0>         0.0000
      6 C6          3.0173   -5.6877   -5.5562 C.ar      1 <0>         0.0000
      7 C7          2.0097   -5.8674   -3.3438 C.ar      1 <0>         0.0000
      8 C8          4.4362   -5.8158   -3.5782 C.ar      1 <0>         0.0000
      9 C9          1.2564   -0.2134   -2.8000 C.ar      1 <0>         0.0000
     10 C10         0.6061   -1.4129   -3.1543 C.ar      1 <0>         0.0000
     11 C11        -0.2611   -2.0586   -2.2418 C.ar      1 <0>         0.0000
     12 C12         1.8915   -5.7602   -4.7315 C.ar      1 <0>         0.0000
     13 C13         0.0473   -3.1469   -4.4098 C.2       1 <0>         0.0000
     14 C14         5.8113   -5.8754   -2.9581 C.3       1 <0>         0.0000
     15 C15         2.1791    0.4685   -3.7773 C.3       1 <0>         0.0000
     16 N1          0.7658   -2.0668   -4.3720 N.2       1 <0>         0.0000
     17 N2         -0.0353   -3.9410   -5.5578 N.pl3     1 <0>         0.0000
     18 O1         -0.7109   -6.1606   -4.5176 O.2       1 <0>         0.0000
     19 O2          0.3341   -6.0525   -6.8622 O.2       1 <0>         0.0000
     20 S1         -0.9201   -3.5139   -2.9738 S.3       1 <0>         0.0000
     21 S2          0.2677   -5.6361   -5.4646 S.o2      1 <0>         0.0000
     22 H1         -0.0206    0.0747    0.3649 H         1 <0>         0.0000
     23 H2          1.4924    1.2168   -1.2189 H         1 <0>         0.0000
     24 H3          5.1635   -5.6654   -5.6061 H         1 <0>         0.0000
     25 H4          3.3857   -5.9717   -1.6993 H         1 <0>         0.0000
     26 H5         -1.1624   -2.0447   -0.2648 H         1 <0>         0.0000
     27 H6          2.9003   -5.6244   -6.6338 H         1 <0>         0.0000
     28 H7          1.1214   -5.9378   -2.7257 H         1 <0>         0.0000
     29 H8          6.1611   -6.9130   -2.8973 H         1 <0>         0.0000
     30 H9          6.5415   -5.3168   -3.5503 H         1 <0>         0.0000
     31 H10         5.8098   -5.4686   -1.9431 H         1 <0>         0.0000
     32 H11         2.9956   -0.1977   -4.0741 H         1 <0>         0.0000
     33 H12         1.6458    0.7409   -4.6940 H         1 <0>         0.0000
     34 H13         2.6090    1.3750   -3.3433 H         1 <0>         0.0000
     35 H14         0.4910   -3.5264   -6.3275 H         1 <0>         0.0000
@<TRIPOS>BOND
     1    1    2 ar
     2    1    5 ar
     3    1   22 1
     4    2    9 ar
     5    2   23 1
     6    3    6 ar
     7    3    8 ar
     8    3   24 1
     9    4    7 ar
    10    4    8 ar
    11    4   25 1
    12    5   11 ar
    13    5   26 1
    14    6   12 ar
    15    6   27 1
    16    7   12 ar
    17    7   28 1
    18    8   14 1
    19    9   10 ar
    20    9   15 1
    21   10   11 ar
    22   10   16 1
    23   11   20 1
    24   12   21 1
    25   13   16 2
    26   13   17 1
    27   13   20 1
    28   14   29 1
    29   14   30 1
    30   14   31 1
    31   15   32 1
    32   15   33 1
    33   15   34 1
    34   17   21 1
    35   17   35 1
    36   18   21 2
    37   19   21 2
