@<TRIPOS>MOLECULE
*****
   40    43     0     0     0
SMALL
NO_CHARGES

@<TRIPOS>ATOM
      1 C1          0.3386   -0.9644   -0.5119 C.ar      1 <0>         0.0000
      2 C2         -0.7626   -1.2286   -1.3350 C.ar      1 <0>         0.0000
      3 C3          1.4905   -1.7425   -0.6306 C.ar      1 <0>         0.0000
      4 C4         -0.6947   -2.2667   -2.2646 C.ar      1 <0>         0.0000
      5 C5          6.9854   -4.4609   -6.8185 C.ar      1 <0>         0.0000
      6 C6          6.0109   -4.6866   -5.8488 C.ar      1 <0>         0.0000
      7 C7          4.2915   -3.4896   -7.1280 C.ar      1 <0>         0.0000
      8 C8          1.5661   -2.7883   -1.5622 C.ar      1 <0>         0.0000
      9 C9          0.4607   -3.0496   -2.3897 C.ar      1 <0>         0.0000
     10 C10         6.6114   -3.7402   -7.9559 C.ar      1 <0>         0.0000
     11 C11         4.6806   -4.2145   -5.9882 C.ar      1 <0>         0.0000
     12 C12         5.2909   -3.2846   -8.0682 C.ar      1 <0>         0.0000
     13 C13         6.4607   -2.7014   -9.8177 C.2       1 <0>         0.0000
     14 C14         2.4533   -4.2187   -4.8216 C.2       1 <0>         0.0000
     15 C15         2.8337   -3.6157   -1.6789 C.3       1 <0>         0.0000
     16 C16         0.4839   -4.1824   -3.4047 C.3       1 <0>         0.0000
     17 C17         2.5544   -4.9323   -2.4077 C.3       1 <0>         0.0000
     18 C18         6.6566   -2.0521  -11.1411 C.3       1 <0>         0.0000
     19 N1          7.3248   -3.3454   -9.0963 N.2       1 <0>         0.0000
     20 N2          1.8356   -4.6823   -3.6594 N.am      1 <0>         0.0000
     21 N3          3.8050   -4.5075   -4.9203 N.am      1 <0>         0.0000
     22 O1          1.8297   -3.6322   -5.7065 O.2       1 <0>         0.0000
     23 O2          5.1900   -2.6140   -9.2685 O.3       1 <0>         0.0000
     24 H1          0.2983   -0.1579    0.2156 H         1 <0>         0.0000
     25 H2         -1.6637   -0.6260   -1.2557 H         1 <0>         0.0000
     26 H3          2.3469   -1.5402    0.0101 H         1 <0>         0.0000
     27 H4         -1.5461   -2.4684   -2.9119 H         1 <0>         0.0000
     28 H5          7.9981   -4.8317   -6.6944 H         1 <0>         0.0000
     29 H6          6.2778   -5.2443   -4.9531 H         1 <0>         0.0000
     30 H7          3.2803   -3.1286   -7.2480 H         1 <0>         0.0000
     31 H8          3.5951   -3.0516   -2.2329 H         1 <0>         0.0000
     32 H9          3.2472   -3.8162   -0.6838 H         1 <0>         0.0000
     33 H10        -0.1274   -5.0186   -3.0402 H         1 <0>         0.0000
     34 H11         0.0645   -3.8517   -4.3537 H         1 <0>         0.0000
     35 H12         3.4686   -5.5085   -2.5700 H         1 <0>         0.0000
     36 H13         1.9101   -5.5710   -1.7938 H         1 <0>         0.0000
     37 H14         5.9759   -2.4784  -11.8852 H         1 <0>         0.0000
     38 H15         6.4501   -0.9786  -11.0791 H         1 <0>         0.0000
     39 H16         7.6868   -2.2038  -11.4637 H         1 <0>         0.0000
     40 H17         4.2165   -5.0727   -4.1937 H         1 <0>         0.0000
@<TRIPOS>BOND
     1    1    2 ar
     2    1    3 ar
     3    1   24 1
     4    2    4 ar
     5    2   25 1
     6    3    8 ar
     7    3   26 1
     8    4    9 ar
     9    4   27 1
    10    5    6 ar
    11    5   10 ar
    12    5   28 1
    13    6   11 ar
    14    6   29 1
    15    7   11 ar
    16    7   12 ar
    17    7   30 1
    18    8    9 ar
    19    8   15 1
    20    9   16 1
    21   10   12 ar
    22   10   19 1
    23   11   21 1
    24   12   23 1
    25   13   18 1
    26   13   19 2
    27   13   23 1
    28   14   20 am
    29   14   21 am
    30   14   22 2
    31   15   17 1
    32   15   31 1
    33   15   32 1
    34   16   20 1
    35   16   33 1
    36   16   34 1
    37   17   20 1
    38   17   35 1
    39   17   36 1
    40   18   37 1
    41   18   38 1
    42   18   39 1
    43   21   40 1
