@<TRIPOS>MOLECULE
*****
   48    51     0     0     0
SMALL
NO_CHARGES

@<TRIPOS>ATOM
      1 C1         -3.7535   -0.3663    7.2135 C.2       1 <0>         0.0000
      2 C2         -3.7406   -1.6325    6.6912 C.2       1 <0>         0.0000
      3 C3         -1.5828   -0.4698    6.7800 C.2       1 <0>         0.0000
      4 C4          1.4103    0.3946    2.3114 C.2       1 <0>         0.0000
      5 C5          2.0371   -2.3652    2.8798 C.3       1 <0>         0.0000
      6 C6          0.8909   -1.7215    3.6501 C.3       1 <0>         0.0000
      7 C7          2.1894    0.2507    4.6828 C.3       1 <0>         0.0000
      8 C8          0.9120    0.7844   -0.7006 C.3       1 <0>         0.0000
      9 C9          3.3343    1.0462   -0.0739 C.3       1 <0>         0.0000
     10 C10         2.0010   -1.8905    1.4345 C.3       1 <0>         0.0000
     11 C11         1.5099    1.3295    5.5587 C.3       1 <0>         0.0000
     12 C12        -0.2075    0.5207    4.2673 C.3       1 <0>         0.0000
     13 C13         1.3058    1.2521   -2.1050 C.3       1 <0>         0.0000
     14 C14         3.5788    1.5051   -1.5147 C.3       1 <0>         0.0000
     15 C15         2.1194    0.1081   -0.0358 C.3       1 <0>         0.0000
     16 C16         1.0648   -0.1965    3.6890 C.3       1 <0>         0.0000
     17 C17        -0.1375   -0.0640    6.6767 C.3       1 <0>         0.0000
     18 N1         -2.5374    0.2769    7.2616 N.2       1 <0>         0.0000
     19 N2          1.8404   -0.4358    1.3104 N.am      1 <0>         0.0000
     20 N3          0.0919    0.9524    5.6400 N.3       1 <0>         0.0000
     21 O1          1.3313    1.6180    2.1440 O.2       1 <0>         0.0000
     22 O2          2.4297    2.1295   -2.0822 O.3       1 <0>         0.0000
     23 S1         -2.1253   -2.0520    6.2312 S.3       1 <0>         0.0000
     24 H1         -4.6379    0.1407    7.5849 H         1 <0>         0.0000
     25 H2         -4.5666   -2.3200    6.5647 H         1 <0>         0.0000
     26 H3          2.9955   -2.0954    3.3381 H         1 <0>         0.0000
     27 H4          1.9665   -3.4582    2.8930 H         1 <0>         0.0000
     28 H5         -0.0596   -1.9747    3.1627 H         1 <0>         0.0000
     29 H6          0.8329   -2.1178    4.6689 H         1 <0>         0.0000
     30 H7          3.0739    0.6406    4.1737 H         1 <0>         0.0000
     31 H8          2.5093   -0.6036    5.2896 H         1 <0>         0.0000
     32 H9          0.5948    1.6398   -0.1025 H         1 <0>         0.0000
     33 H10         0.0733    0.0802   -0.7683 H         1 <0>         0.0000
     34 H11         4.2249    0.5278    0.3034 H         1 <0>         0.0000
     35 H12         3.1431    1.9104    0.5647 H         1 <0>         0.0000
     36 H13         2.9303   -2.1722    0.9262 H         1 <0>         0.0000
     37 H14         1.1797   -2.3912    0.9001 H         1 <0>         0.0000
     38 H15         1.9509    1.4251    6.5551 H         1 <0>         0.0000
     39 H16         1.5766    2.2999    5.0578 H         1 <0>         0.0000
     40 H17        -0.4054    1.4143    3.6731 H         1 <0>         0.0000
     41 H18        -1.0923   -0.1175    4.2367 H         1 <0>         0.0000
     42 H19         1.5309    0.3830   -2.7479 H         1 <0>         0.0000
     43 H20         0.4926    1.8147   -2.5708 H         1 <0>         0.0000
     44 H21         4.3791    2.2484   -1.5574 H         1 <0>         0.0000
     45 H22         3.8777    0.6463   -2.1412 H         1 <0>         0.0000
     46 H23         2.3667   -0.7697   -0.6456 H         1 <0>         0.0000
     47 H24         0.1443    0.3822    7.6354 H         1 <0>         0.0000
     48 H25         0.4734   -0.9748    6.5535 H         1 <0>         0.0000
@<TRIPOS>BOND
     1    1    2 2
     2    1   18 1
     3    1   24 1
     4    2   23 1
     5    2   25 1
     6    3   17 1
     7    3   18 2
     8    3   23 1
     9    4   16 1
    10    4   19 am
    11    4   21 2
    12    5    6 1
    13    5   10 1
    14    5   26 1
    15    5   27 1
    16    6   16 1
    17    6   28 1
    18    6   29 1
    19    7   11 1
    20    7   16 1
    21    7   30 1
    22    7   31 1
    23    8   13 1
    24    8   15 1
    25    8   32 1
    26    8   33 1
    27    9   14 1
    28    9   15 1
    29    9   34 1
    30    9   35 1
    31   10   19 1
    32   10   36 1
    33   10   37 1
    34   11   20 1
    35   11   38 1
    36   11   39 1
    37   12   16 1
    38   12   20 1
    39   12   40 1
    40   12   41 1
    41   13   22 1
    42   13   42 1
    43   13   43 1
    44   14   22 1
    45   14   44 1
    46   14   45 1
    47   15   19 1
    48   15   46 1
    49   17   20 1
    50   17   47 1
    51   17   48 1
