@<TRIPOS>MOLECULE
*****
   41    44     0     0     0
SMALL
NO_CHARGES

@<TRIPOS>ATOM
      1 C1          2.2907   -5.8194    6.4727 C.ar      1 <0>         0.0000
      2 C2          2.7393   -7.0963    6.0802 C.ar      1 <0>         0.0000
      3 C3          2.3740   -2.1223   -0.8016 C.ar      1 <0>         0.0000
      4 C4          1.9593   -4.8418    5.5305 C.ar      1 <0>         0.0000
      5 C5          2.8727   -7.4369    4.7293 C.ar      1 <0>         0.0000
      6 C6          1.6513   -0.9586   -1.0663 C.ar      1 <0>         0.0000
      7 C7          0.7005   -2.0353   -3.0288 C.ar      1 <0>         0.0000
      8 C8          2.2753   -3.2589   -1.6228 C.ar      1 <0>         0.0000
      9 C9          2.0838   -5.1650    4.1741 C.ar      1 <0>         0.0000
     10 C10         2.5345   -6.4563    3.7959 C.ar      1 <0>         0.0000
     11 C11         1.4396   -3.1916   -2.7538 C.ar      1 <0>         0.0000
     12 C12         0.8111   -0.9354   -2.1814 C.ar      1 <0>         0.0000
     13 C13         2.1243   -5.1918    2.0302 C.2       1 <0>         0.0000
     14 C14         3.0404   -4.4958   -1.2964 C.2       1 <0>         0.0000
     15 C15         4.0163   -5.0305   -2.3153 C.3       1 <0>         0.0000
     16 C16         3.3113   -5.6703   -3.5243 C.3       1 <0>         0.0000
     17 C17         2.4350   -4.7109   -4.3221 C.3       1 <0>         0.0000
     18 C18         2.8062   -7.6020    1.5484 C.3       1 <0>         0.0000
     19 N1          1.8466   -4.3925    3.0391 N.2       1 <0>         0.0000
     20 N2          2.9156   -5.1676   -0.2029 N.2       1 <0>         0.0000
     21 N3          2.5340   -6.4557    2.4007 N.pl3     1 <0>         0.0000
     22 N4          1.9464   -4.8114    0.7060 N.pl3     1 <0>         0.0000
     23 O1          1.2664   -4.2576   -3.6040 O.3       1 <0>         0.0000
     24 Br1        -0.1951    0.6472   -2.5727 Br        1 <0>         0.0000
     25 H1          2.2030   -5.5923    7.5319 H         1 <0>         0.0000
     26 H2          2.9897   -7.8313    6.8404 H         1 <0>         0.0000
     27 H3          3.0369   -2.1471    0.0600 H         1 <0>         0.0000
     28 H4          1.6148   -3.8565    5.8316 H         1 <0>         0.0000
     29 H5          3.2270   -8.4206    4.4331 H         1 <0>         0.0000
     30 H6          1.7404   -0.0926   -0.4194 H         1 <0>         0.0000
     31 H7          0.0564   -2.0203   -3.9013 H         1 <0>         0.0000
     32 H8          4.6650   -4.2158   -2.6622 H         1 <0>         0.0000
     33 H9          4.6449   -5.7770   -1.8227 H         1 <0>         0.0000
     34 H10         4.0694   -6.0724   -4.2084 H         1 <0>         0.0000
     35 H11         2.6981   -6.5132   -3.1871 H         1 <0>         0.0000
     36 H12         3.0098   -3.8373   -4.6561 H         1 <0>         0.0000
     37 H13         2.0337   -5.2146   -5.2048 H         1 <0>         0.0000
     38 H14         2.5157   -8.5101    2.0824 H         1 <0>         0.0000
     39 H15         2.2204   -7.5260    0.6330 H         1 <0>         0.0000
     40 H16         3.8653   -7.6592    1.2802 H         1 <0>         0.0000
     41 H17         1.5183   -3.8898    0.6286 H         1 <0>         0.0000
@<TRIPOS>BOND
     1    1    2 ar
     2    1    4 ar
     3    1   25 1
     4    2    5 ar
     5    2   26 1
     6    3    6 ar
     7    3    8 ar
     8    3   27 1
     9    4    9 ar
    10    4   28 1
    11    5   10 ar
    12    5   29 1
    13    6   12 ar
    14    6   30 1
    15    7   11 ar
    16    7   12 ar
    17    7   31 1
    18    8   11 ar
    19    8   14 1
    20    9   10 ar
    21    9   19 1
    22   10   21 1
    23   11   23 1
    24   12   24 1
    25   13   19 2
    26   13   21 1
    27   13   22 1
    28   14   15 1
    29   14   20 2
    30   15   16 1
    31   15   32 1
    32   15   33 1
    33   16   17 1
    34   16   34 1
    35   16   35 1
    36   17   23 1
    37   17   36 1
    38   17   37 1
    39   18   21 1
    40   18   38 1
    41   18   39 1
    42   18   40 1
    43   20   22 1
    44   22   41 1
