@<TRIPOS>MOLECULE
*****
   41    43     0     0     0
SMALL
NO_CHARGES

@<TRIPOS>ATOM
      1 C1         -8.9982    4.5828   -6.0530 C.ar      1 <0>         0.0000
      2 C2         -7.8720    4.2433   -5.3028 C.ar      1 <0>         0.0000
      3 C3         -2.1314    2.3652    0.4505 C.ar      1 <0>         0.0000
      4 C4         -0.9248    2.7017    1.0593 C.ar      1 <0>         0.0000
      5 C5         -1.7123    3.8069   -2.9601 C.2       1 <0>         0.0000
      6 C6         -0.1724    3.7927   -0.9828 C.ar      1 <0>         0.0000
      7 C7         -6.4720    5.0686   -7.0975 C.ar      1 <0>         0.0000
      8 C8         -1.3931    3.4587   -1.6084 C.ar      1 <0>         0.0000
      9 C9         -2.9182    3.5041   -3.5469 C.2       1 <0>         0.0000
     10 C10        -8.8937    5.1631   -7.3228 C.ar      1 <0>         0.0000
     11 C11        -7.6032    5.4050   -7.8456 C.ar      1 <0>         0.0000
     12 C12        -6.5955    4.4867   -5.8269 C.ar      1 <0>         0.0000
     13 C13        -2.3548    2.7495   -0.8720 C.ar      1 <0>         0.0000
     14 C14         0.0439    3.4152    0.3335 C.ar      1 <0>         0.0000
     15 C15        -3.8850    2.7245   -2.7480 C.2       1 <0>         0.0000
     16 C16        -3.1562    3.8891   -4.9603 C.2       1 <0>         0.0000
     17 C17       -10.1328    5.5195   -8.1104 C.3       1 <0>         0.0000
     18 C18        -7.4373    6.0280   -9.2126 C.3       1 <0>         0.0000
     19 C19        -1.9168    4.0873   -5.8163 C.3       1 <0>         0.0000
     20 N1         -4.2628    4.1825   -5.5837 N.2       1 <0>         0.0000
     21 N2         -5.4789    4.1646   -5.0391 N.pl3     1 <0>         0.0000
     22 O1         -4.9651    2.2995   -3.1253 O.2       1 <0>         0.0000
     23 O2         -3.5456    2.4090   -1.4459 O.3       1 <0>         0.0000
     24 Br1         1.6952    3.8734    1.1883 Br        1 <0>         0.0000
     25 H1         -9.9844    4.3870   -5.6375 H         1 <0>         0.0000
     26 H2         -7.9815    3.7890   -4.3206 H         1 <0>         0.0000
     27 H3         -2.8987    1.8143    0.9851 H         1 <0>         0.0000
     28 H4         -0.7335    2.4154    2.0879 H         1 <0>         0.0000
     29 H5         -0.9589    4.3425   -3.5274 H         1 <0>         0.0000
     30 H6          0.5836    4.3423   -1.5351 H         1 <0>         0.0000
     31 H7         -5.4786    5.2504   -7.4929 H         1 <0>         0.0000
     32 H8        -10.1751    6.5915   -8.3389 H         1 <0>         0.0000
     33 H9        -10.1708    4.9898   -9.0701 H         1 <0>         0.0000
     34 H10       -11.0385    5.2627   -7.5541 H         1 <0>         0.0000
     35 H11        -7.9050    5.4147   -9.9919 H         1 <0>         0.0000
     36 H12        -7.9088    7.0167   -9.2624 H         1 <0>         0.0000
     37 H13        -6.3813    6.1467   -9.4683 H         1 <0>         0.0000
     38 H14        -1.2203    3.2462   -5.7275 H         1 <0>         0.0000
     39 H15        -2.2240    4.1839   -6.8579 H         1 <0>         0.0000
     40 H16        -1.3690    5.0012   -5.5507 H         1 <0>         0.0000
     41 H17        -5.6390    3.5854   -4.2133 H         1 <0>         0.0000
@<TRIPOS>BOND
     1    1    2 ar
     2    1   10 ar
     3    1   25 1
     4    2   12 ar
     5    2   26 1
     6    3    4 ar
     7    3   13 ar
     8    3   27 1
     9    4   14 ar
    10    4   28 1
    11    5    8 1
    12    5    9 2
    13    5   29 1
    14    6    8 ar
    15    6   14 ar
    16    6   30 1
    17    7   11 ar
    18    7   12 ar
    19    7   31 1
    20    8   13 ar
    21    9   15 1
    22    9   16 1
    23   10   11 ar
    24   10   17 1
    25   11   18 1
    26   12   21 1
    27   13   23 1
    28   14   24 1
    29   15   22 2
    30   15   23 1
    31   16   19 1
    32   16   20 2
    33   17   32 1
    34   17   33 1
    35   17   34 1
    36   18   35 1
    37   18   36 1
    38   18   37 1
    39   19   38 1
    40   19   39 1
    41   19   40 1
    42   20   21 1
    43   21   41 1
