@<TRIPOS>MOLECULE
*****
   22    23     0     0     0
SMALL
NO_CHARGES

@<TRIPOS>ATOM
      1 C1          2.4603    0.0414    1.0279 C.2       1 <0>         0.0000
      2 C2          1.0689    0.2987    1.2541 C.2       1 <0>         0.0000
      3 C3          3.1969    0.2522    2.1570 C.2       1 <0>         0.0000
      4 C4          0.7837    0.7032    2.5369 C.2       1 <0>         0.0000
      5 C5         -0.0016   -4.6109    1.1305 C.2       1 <0>         0.0000
      6 C6         -0.8416   -2.4078    0.7263 C.2       1 <0>         0.0000
      7 C7          0.7640   -5.8557    1.4512 C.3       1 <0>         0.0000
      8 N1         -1.1746   -4.6008    0.5676 N.2       1 <0>         0.0000
      9 N2         -1.6588   -3.3390    0.3237 N.2       1 <0>         0.0000
     10 N3         -1.1773   -1.0520    0.6816 N.pl3     1 <0>         0.0000
     11 O1          0.6055   -0.5001   -1.1705 O.2       1 <0>         0.0000
     12 O2         -0.9569    1.2758   -0.2093 O.2       1 <0>         0.0000
     13 S1          2.2222    0.7701    3.5150 S.3       1 <0>         0.0000
     14 S2          0.6318   -2.9985    1.4651 S.3       1 <0>         0.0000
     15 S3         -0.1237    0.0901   -0.0517 S.o2      1 <0>         0.0000
     16 Cl1         4.9013    0.0566    2.3414 Cl        1 <0>         0.0000
     17 Cl2        -0.7389    1.1022    3.2176 Cl        1 <0>         0.0000
     18 H1          2.8584   -0.2916    0.0773 H         1 <0>         0.0000
     19 H2          1.7017   -5.8969    0.8877 H         1 <0>         0.0000
     20 H3          1.0069   -5.9120    2.5168 H         1 <0>         0.0000
     21 H4          0.1513   -6.7174    1.1802 H         1 <0>         0.0000
     22 H5         -2.1335   -0.8990    0.3553 H         1 <0>         0.0000
@<TRIPOS>BOND
     1    1    2 1
     2    1    3 2
     3    1   18 1
     4    2    4 2
     5    2   15 1
     6    3   13 1
     7    3   16 1
     8    4   13 1
     9    4   17 1
    10    5    7 1
    11    5    8 2
    12    5   14 1
    13    6    9 2
    14    6   10 1
    15    6   14 1
    16    7   19 1
    17    7   20 1
    18    7   21 1
    19    8    9 1
    20   10   15 1
    21   10   22 1
    22   11   15 2
    23   12   15 2
