@<TRIPOS>MOLECULE
*****
   37    39     0     0     0
SMALL
NO_CHARGES

@<TRIPOS>ATOM
      1 C1          5.0101   -5.2492    2.1213 C.ar      1 <0>         0.0000
      2 C2          5.3656   -3.8940    2.1550 C.ar      1 <0>         0.0000
      3 C3          3.9629   -5.6978    1.3067 C.ar      1 <0>         0.0000
      4 C4         -3.0390   -8.6497   -4.1456 C.ar      1 <0>         0.0000
      5 C5         -2.4088   -9.6433   -3.3973 C.ar      1 <0>         0.0000
      6 C6          4.6793   -2.9551    1.3720 C.ar      1 <0>         0.0000
      7 C7         -1.5638   -7.0082   -3.2092 C.ar      1 <0>         0.0000
      8 C8          3.2777   -4.7638    0.5258 C.ar      1 <0>         0.0000
      9 C9         -0.9191   -8.0043   -2.4477 C.ar      1 <0>         0.0000
     10 C10        -2.6224   -7.3097   -4.0630 C.ar      1 <0>         0.0000
     11 C11        -1.3422   -9.3499   -2.5369 C.ar      1 <0>         0.0000
     12 C12         3.6473   -3.4221    0.5743 C.ar      1 <0>         0.0000
     13 C13         2.1377   -4.9364   -0.4250 C.2       1 <0>         0.0000
     14 C14         0.1883   -7.6333   -1.5644 C.2       1 <0>         0.0000
     15 C15        -3.2965   -6.2385   -4.8885 C.3       1 <0>         0.0000
     16 C16        -0.6914  -10.4635   -1.7437 C.3       1 <0>         0.0000
     17 N1          1.6784   -3.8835   -1.0350 N.2       1 <0>         0.0000
     18 N2          0.5909   -6.4141   -1.4644 N.2       1 <0>         0.0000
     19 N3          1.6303   -6.1854   -0.6113 N.pl3     1 <0>         0.0000
     20 O1          1.6932   -1.6143    0.2109 O.2       1 <0>         0.0000
     21 O2          3.3286   -1.9961   -1.6804 O.2       1 <0>         0.0000
     22 S1          2.5590   -2.5146   -0.5500 S.o2      1 <0>         0.0000
     23 H1          5.5536   -5.9617    2.7351 H         1 <0>         0.0000
     24 H2          6.1813   -3.5681    2.7942 H         1 <0>         0.0000
     25 H3          3.7081   -6.7549    1.2999 H         1 <0>         0.0000
     26 H4         -3.8654   -8.9164   -4.8014 H         1 <0>         0.0000
     27 H5         -2.7534  -10.6714   -3.4806 H         1 <0>         0.0000
     28 H6          4.9450   -1.9024    1.3890 H         1 <0>         0.0000
     29 H7         -1.2129   -5.9848   -3.1141 H         1 <0>         0.0000
     30 H8          0.6704   -8.4308   -0.9846 H         1 <0>         0.0000
     31 H9         -4.3863   -6.2933   -4.7958 H         1 <0>         0.0000
     32 H10        -2.9800   -5.2390   -4.5798 H         1 <0>         0.0000
     33 H11        -3.0534   -6.3520   -5.9514 H         1 <0>         0.0000
     34 H12         0.3727  -10.5711   -1.9834 H         1 <0>         0.0000
     35 H13        -0.7721  -10.2997   -0.6630 H         1 <0>         0.0000
     36 H14        -1.1717  -11.4199   -1.9637 H         1 <0>         0.0000
     37 H15         2.0422   -6.9621   -0.0970 H         1 <0>         0.0000
@<TRIPOS>BOND
     1    1    2 ar
     2    1    3 ar
     3    1   23 1
     4    2    6 ar
     5    2   24 1
     6    3    8 ar
     7    3   25 1
     8    4    5 ar
     9    4   10 ar
    10    4   26 1
    11    5   11 ar
    12    5   27 1
    13    6   12 ar
    14    6   28 1
    15    7    9 ar
    16    7   10 ar
    17    7   29 1
    18    8   12 ar
    19    8   13 1
    20    9   11 ar
    21    9   14 1
    22   10   15 1
    23   11   16 1
    24   12   22 1
    25   13   17 2
    26   13   19 1
    27   14   18 2
    28   14   30 1
    29   15   31 1
    30   15   32 1
    31   15   33 1
    32   16   34 1
    33   16   35 1
    34   16   36 1
    35   17   22 1
    36   18   19 1
    37   19   37 1
    38   20   22 2
    39   21   22 2
