@<TRIPOS>MOLECULE
*****
   49    52     0     0     0
SMALL
NO_CHARGES

@<TRIPOS>ATOM
      1 C1         -0.7566    3.4076    2.2702 C.2       1 <0>         0.0000
      2 C2         -1.3262    3.5032   -0.0656 C.2       1 <0>         0.0000
      3 C3         -2.5813   -0.3588    0.2233 C.2       1 <0>         0.0000
      4 C4         -3.4594    2.2650   -1.9526 C.3       1 <0>         0.0000
      5 C5         -2.9832   -0.2210   -2.3342 C.3       1 <0>         0.0000
      6 C6         -2.7819    3.6373   -1.9860 C.3       1 <0>         0.0000
      7 C7         -4.0276   -1.3114    1.9580 C.3       1 <0>         0.0000
      8 C8         -3.7430   -2.5878   -0.1031 C.3       1 <0>         0.0000
      9 C9         -5.5418   -1.4213    1.7944 C.3       1 <0>         0.0000
     10 C10        -5.2653   -2.6839   -0.2332 C.3       1 <0>         0.0000
     11 C11        -0.5700    2.6726   -2.2610 C.3       1 <0>         0.0000
     12 C12        -1.9683   -0.4923   -1.1876 C.3       1 <0>         0.0000
     13 C13        -2.6617    1.2219   -2.7590 C.3       1 <0>         0.0000
     14 C14        -1.1462    1.2736   -2.4930 C.3       1 <0>         0.0000
     15 C15        -0.1650    3.2159    3.6312 C.3       1 <0>         0.0000
     16 C16        -7.3442   -2.8138    0.9828 C.3       1 <0>         0.0000
     17 N1         -1.9568    3.8490    2.0512 N.2       1 <0>         0.0000
     18 N2         -2.2945    3.9059    0.7207 N.2       1 <0>         0.0000
     19 N3         -1.4197    3.5293   -1.4430 N.pl3     1 <0>         0.0000
     20 N4         -3.3717   -1.3960    0.6529 N.am      1 <0>         0.0000
     21 N5         -5.8985   -2.6517    1.0827 N.3       1 <0>         0.0000
     22 O1         -2.3690    0.6333    0.9140 O.2       1 <0>         0.0000
     23 O2         -0.9302    0.4699   -1.3279 O.3       1 <0>         0.0000
     24 S1          0.1231    3.0048    0.7960 S.3       1 <0>         0.0000
     25 H1         -3.5385    1.9650   -0.9048 H         1 <0>         0.0000
     26 H2         -4.4778    2.3309   -2.3540 H         1 <0>         0.0000
     27 H3         -2.8049   -0.9180   -3.1597 H         1 <0>         0.0000
     28 H4         -4.0224   -0.3347   -2.0160 H         1 <0>         0.0000
     29 H5         -2.6957    4.0153   -3.0125 H         1 <0>         0.0000
     30 H6         -3.3361    4.3643   -1.3940 H         1 <0>         0.0000
     31 H7         -3.7506   -0.3615    2.4136 H         1 <0>         0.0000
     32 H8         -3.6672   -2.1322    2.5914 H         1 <0>         0.0000
     33 H9         -3.3741   -3.4765    0.4263 H         1 <0>         0.0000
     34 H10        -3.2936   -2.5780   -1.0943 H         1 <0>         0.0000
     35 H11        -6.0109   -1.4405    2.7839 H         1 <0>         0.0000
     36 H12        -5.9138   -0.5234    1.2641 H         1 <0>         0.0000
     37 H13        -5.6253   -1.8574   -0.8788 H         1 <0>         0.0000
     38 H14        -5.5241   -3.6272   -0.7273 H         1 <0>         0.0000
     39 H15         0.4242    2.5865   -1.8170 H         1 <0>         0.0000
     40 H16        -0.4465    3.1599   -3.2362 H         1 <0>         0.0000
     41 H17        -1.5223   -1.4886   -1.2897 H         1 <0>         0.0000
     42 H18        -2.8505    1.3682   -3.8285 H         1 <0>         0.0000
     43 H19        -0.6095    0.8229   -3.3443 H         1 <0>         0.0000
     44 H20         0.0536    2.1593    3.8204 H         1 <0>         0.0000
     45 H21         0.7660    3.7802    3.7515 H         1 <0>         0.0000
     46 H22        -0.8872    3.5634    4.3732 H         1 <0>         0.0000
     47 H23        -7.7819   -2.8336    1.9857 H         1 <0>         0.0000
     48 H24        -7.5769   -3.7645    0.4921 H         1 <0>         0.0000
     49 H25        -7.8313   -2.0016    0.4108 H         1 <0>         0.0000
@<TRIPOS>BOND
     1    1   15 1
     2    1   17 2
     3    1   24 1
     4    2   18 2
     5    2   19 1
     6    2   24 1
     7    3   12 1
     8    3   20 am
     9    3   22 2
    10    4    6 1
    11    4   13 1
    12    4   25 1
    13    4   26 1
    14    5   12 1
    15    5   13 1
    16    5   27 1
    17    5   28 1
    18    6   19 1
    19    6   29 1
    20    6   30 1
    21    7    9 1
    22    7   20 1
    23    7   31 1
    24    7   32 1
    25    8   10 1
    26    8   20 1
    27    8   33 1
    28    8   34 1
    29    9   21 1
    30    9   35 1
    31    9   36 1
    32   10   21 1
    33   10   37 1
    34   10   38 1
    35   11   14 1
    36   11   19 1
    37   11   39 1
    38   11   40 1
    39   12   23 1
    40   12   41 1
    41   13   14 1
    42   13   42 1
    43   14   23 1
    44   14   43 1
    45   15   44 1
    46   15   45 1
    47   15   46 1
    48   16   21 1
    49   16   47 1
    50   16   48 1
    51   16   49 1
    52   17   18 1
