@<TRIPOS>MOLECULE
*****
   22    23     0     0     0
SMALL
NO_CHARGES

@<TRIPOS>ATOM
      1 C1          0.4634   -1.3038    5.2484 C.2       1 <0>         0.0000
      2 C2          1.1780   -1.2667    4.0047 C.2       1 <0>         0.0000
      3 C3          1.0025   -2.2110    6.1110 C.2       1 <0>         0.0000
      4 C4          2.2459   -2.1336    3.9538 C.2       1 <0>         0.0000
      5 C5         -1.2283   -4.5189    0.7568 C.2       1 <0>         0.0000
      6 C6         -0.7766   -2.3365    1.6423 C.2       1 <0>         0.0000
      7 C7         -1.7743   -5.7832    0.1720 C.3       1 <0>         0.0000
      8 N1         -0.0059   -4.3684    1.1673 N.2       1 <0>         0.0000
      9 N2          0.2593   -3.1222    1.6845 N.2       1 <0>         0.0000
     10 N3         -0.7708   -1.0199    2.0758 N.pl3     1 <0>         0.0000
     11 O1          1.6139   -0.1291    1.6545 O.2       1 <0>         0.0000
     12 O2          0.0005    0.9731    3.3043 O.2       1 <0>         0.0000
     13 S1          2.3940   -3.0309    5.4415 S.3       1 <0>         0.0000
     14 S2         -2.2181   -3.0640    0.9515 S.3       1 <0>         0.0000
     15 S3          0.6106   -0.2090    2.6980 S.o2      1 <0>         0.0000
     16 Cl1         0.4714   -2.5654    7.7161 Cl        1 <0>         0.0000
     17 Cl2         3.3655   -2.4323    2.6983 Cl        1 <0>         0.0000
     18 H1         -0.3814   -0.6655    5.4778 H         1 <0>         0.0000
     19 H2         -2.6092   -6.1677    0.7664 H         1 <0>         0.0000
     20 H3         -2.1314   -5.6262   -0.8507 H         1 <0>         0.0000
     21 H4         -0.9768   -6.5284    0.1576 H         1 <0>         0.0000
     22 H5         -1.6379   -0.5987    2.3941 H         1 <0>         0.0000
@<TRIPOS>BOND
     1    1    2 1
     2    1    3 2
     3    1   18 1
     4    2    4 2
     5    2   15 1
     6    3   13 1
     7    3   16 1
     8    4   13 1
     9    4   17 1
    10    5    7 1
    11    5    8 2
    12    5   14 1
    13    6    9 2
    14    6   10 1
    15    6   14 1
    16    7   19 1
    17    7   20 1
    18    7   21 1
    19    8    9 1
    20   10   15 1
    21   10   22 1
    22   11   15 2
    23   12   15 2
