@<TRIPOS>MOLECULE
*****
   22    23     0     0     0
SMALL
NO_CHARGES

@<TRIPOS>ATOM
      1 C1          1.6785    2.1610    1.8169 C.2       1 <0>         0.0000
      2 C2          1.7551    0.7332    1.7350 C.2       1 <0>         0.0000
      3 C3          2.4957    2.6488    2.7962 C.2       1 <0>         0.0000
      4 C4          2.6215    0.1744    2.6430 C.2       1 <0>         0.0000
      5 C5         -0.5484   -4.8572    0.8179 C.2       1 <0>         0.0000
      6 C6         -0.4090   -2.5096    1.2175 C.2       1 <0>         0.0000
      7 C7         -0.3693   -6.3036    0.4767 C.3       1 <0>         0.0000
      8 N1         -1.6914   -4.3266    1.1471 N.2       1 <0>         0.0000
      9 N2         -1.6183   -2.9734    1.3743 N.2       1 <0>         0.0000
     10 N3         -0.1185   -1.1764    1.5463 N.pl3     1 <0>         0.0000
     11 O1          1.7045   -1.0661   -0.2254 O.2       1 <0>         0.0000
     12 O2         -0.0465    0.7967   -0.1384 O.2       1 <0>         0.0000
     13 S1          3.3720    1.3897    3.6371 S.3       1 <0>         0.0000
     14 S2          0.7803   -3.7032    0.7597 S.3       1 <0>         0.0000
     15 S3          0.8240   -0.1742    0.5193 S.o2      1 <0>         0.0000
     16 Cl1         2.7198    4.3011    3.2390 Cl        1 <0>         0.0000
     17 Cl2         2.9831   -1.4871    2.8796 Cl        1 <0>         0.0000
     18 H1          1.0490    2.7651    1.1749 H         1 <0>         0.0000
     19 H2         -0.0199   -6.4259   -0.5536 H         1 <0>         0.0000
     20 H3          0.3587   -6.7829    1.1388 H         1 <0>         0.0000
     21 H4         -1.3321   -6.8065    0.5850 H         1 <0>         0.0000
     22 H5         -0.9731   -0.6946    1.8329 H         1 <0>         0.0000
@<TRIPOS>BOND
     1    1    2 1
     2    1    3 2
     3    1   18 1
     4    2    4 2
     5    2   15 1
     6    3   13 1
     7    3   16 1
     8    4   13 1
     9    4   17 1
    10    5    7 1
    11    5    8 2
    12    5   14 1
    13    6    9 2
    14    6   10 1
    15    6   14 1
    16    7   19 1
    17    7   20 1
    18    7   21 1
    19    8    9 1
    20   10   15 1
    21   10   22 1
    22   11   15 2
    23   12   15 2
