@<TRIPOS>MOLECULE
*****
   37    39     0     0     0
SMALL
NO_CHARGES

@<TRIPOS>ATOM
      1 C1         -0.4057   -3.7367    1.9029 C.ar      1 <0>         0.0000
      2 C2          0.3226   -2.9759    2.8261 C.ar      1 <0>         0.0000
      3 C3          0.2099   -4.7343    1.1363 C.ar      1 <0>         0.0000
      4 C4         -2.9858   -8.0639   -3.8173 C.ar      1 <0>         0.0000
      5 C5         -2.0394   -9.0818   -3.9353 C.ar      1 <0>         0.0000
      6 C6          1.6942   -3.2009    3.0097 C.ar      1 <0>         0.0000
      7 C7         -1.5113   -6.8713   -2.3526 C.ar      1 <0>         0.0000
      8 C8          1.5798   -4.9578    1.3113 C.ar      1 <0>         0.0000
      9 C9         -0.5495   -7.8952   -2.4574 C.ar      1 <0>         0.0000
     10 C10        -2.7342   -6.9365   -3.0181 C.ar      1 <0>         0.0000
     11 C11        -0.8094   -9.0252   -3.2669 C.ar      1 <0>         0.0000
     12 C12         2.2841   -4.1912    2.2428 C.ar      1 <0>         0.0000
     13 C13         2.5156   -5.9350    0.6798 C.2       1 <0>         0.0000
     14 C14         0.7219   -7.7815   -1.7395 C.2       1 <0>         0.0000
     15 C15        -3.7643   -5.8402   -2.8745 C.3       1 <0>         0.0000
     16 C16         0.1829  -10.1575   -3.4224 C.3       1 <0>         0.0000
     17 N1          3.7615   -5.9362    1.0710 N.2       1 <0>         0.0000
     18 N2          0.9189   -6.8737   -0.8451 N.2       1 <0>         0.0000
     19 N3          2.1516   -6.8418   -0.2690 N.pl3     1 <0>         0.0000
     20 O1          4.8796   -3.7020    1.7313 O.2       1 <0>         0.0000
     21 O2          4.3150   -5.3790    3.5374 O.2       1 <0>         0.0000
     22 S1          4.0002   -4.7462    2.2567 S.o2      1 <0>         0.0000
     23 H1         -1.4693   -3.5524    1.7793 H         1 <0>         0.0000
     24 H2         -0.1789   -2.2079    3.4085 H         1 <0>         0.0000
     25 H3         -0.3548   -5.3245    0.4277 H         1 <0>         0.0000
     26 H4         -3.9269   -8.1420   -4.3575 H         1 <0>         0.0000
     27 H5         -2.2595   -9.9417   -4.5635 H         1 <0>         0.0000
     28 H6          2.2722   -2.6256    3.7266 H         1 <0>         0.0000
     29 H7         -1.2741   -6.0022   -1.7459 H         1 <0>         0.0000
     30 H8          1.5169   -8.4933   -1.9874 H         1 <0>         0.0000
     31 H9         -4.5280   -6.1153   -2.1372 H         1 <0>         0.0000
     32 H10        -3.3072   -4.9034   -2.5436 H         1 <0>         0.0000
     33 H11        -4.2788   -5.6498   -3.8214 H         1 <0>         0.0000
     34 H12         1.1224   -9.8203   -3.8755 H         1 <0>         0.0000
     35 H13         0.4287  -10.6218   -2.4611 H         1 <0>         0.0000
     36 H14        -0.2260  -10.9383   -4.0679 H         1 <0>         0.0000
     37 H15         2.8962   -7.4616   -0.5946 H         1 <0>         0.0000
@<TRIPOS>BOND
     1    1    2 ar
     2    1    3 ar
     3    1   23 1
     4    2    6 ar
     5    2   24 1
     6    3    8 ar
     7    3   25 1
     8    4    5 ar
     9    4   10 ar
    10    4   26 1
    11    5   11 ar
    12    5   27 1
    13    6   12 ar
    14    6   28 1
    15    7    9 ar
    16    7   10 ar
    17    7   29 1
    18    8   12 ar
    19    8   13 1
    20    9   11 ar
    21    9   14 1
    22   10   15 1
    23   11   16 1
    24   12   22 1
    25   13   17 2
    26   13   19 1
    27   14   18 2
    28   14   30 1
    29   15   31 1
    30   15   32 1
    31   15   33 1
    32   16   34 1
    33   16   35 1
    34   16   36 1
    35   17   22 1
    36   18   19 1
    37   19   37 1
    38   20   22 2
    39   21   22 2
