@<TRIPOS>MOLECULE
*****
   22    23     0     0     0
SMALL
NO_CHARGES

@<TRIPOS>ATOM
      1 C1          1.6937    0.7788    2.0901 C.2       1 <0>         0.0000
      2 C2          0.3596    1.1692    1.7483 C.2       1 <0>         0.0000
      3 C3          2.0019    1.1341    3.3695 C.2       1 <0>         0.0000
      4 C4         -0.3134    1.7973    2.7669 C.2       1 <0>         0.0000
      5 C5         -1.0512   -3.9886    1.0669 C.2       1 <0>         0.0000
      6 C6         -1.2713   -1.6142    0.8193 C.2       1 <0>         0.0000
      7 C7         -1.1489   -5.4815    1.0702 C.3       1 <0>         0.0000
      8 N1         -0.1811   -3.3107    1.7562 N.2       1 <0>         0.0000
      9 N2         -0.3082   -1.9509    1.6284 N.2       1 <0>         0.0000
     10 N3         -1.5720   -0.2869    0.5235 N.pl3     1 <0>         0.0000
     11 O1          0.7379    0.1632   -0.6235 O.2       1 <0>         0.0000
     12 O2         -1.0456    1.9710   -0.3821 O.2       1 <0>         0.0000
     13 S1          0.6792    1.9359    4.1892 S.3       1 <0>         0.0000
     14 S2         -2.1374   -2.9691    0.1187 S.3       1 <0>         0.0000
     15 S3         -0.3112    0.8244    0.1429 S.o2      1 <0>         0.0000
     16 Cl1         3.4912    0.8613    4.1983 Cl        1 <0>         0.0000
     17 Cl2        -1.9298    2.3789    2.7831 Cl        1 <0>         0.0000
     18 H1          2.3526    0.2501    1.4131 H         1 <0>         0.0000
     19 H2         -2.1234   -5.8139    1.4419 H         1 <0>         0.0000
     20 H3         -1.0124   -5.8918    0.0647 H         1 <0>         0.0000
     21 H4         -0.3678   -5.8761    1.7228 H         1 <0>         0.0000
     22 H5         -2.3930   -0.0946   -0.0445 H         1 <0>         0.0000
@<TRIPOS>BOND
     1    1    2 1
     2    1    3 2
     3    1   18 1
     4    2    4 2
     5    2   15 1
     6    3   13 1
     7    3   16 1
     8    4   13 1
     9    4   17 1
    10    5    7 1
    11    5    8 2
    12    5   14 1
    13    6    9 2
    14    6   10 1
    15    6   14 1
    16    7   19 1
    17    7   20 1
    18    7   21 1
    19    8    9 1
    20   10   15 1
    21   10   22 1
    22   11   15 2
    23   12   15 2
