@<TRIPOS>MOLECULE
*****
   29    30     0     0     0
SMALL
NO_CHARGES

@<TRIPOS>ATOM
      1 C1          1.9056   -1.0315   -0.3188 C.ar      1 <0>         0.0000
      2 C2          0.7893   -0.6347    0.4307 C.ar      1 <0>         0.0000
      3 C3          3.0021   -1.6123    0.3245 C.ar      1 <0>         0.0000
      4 C4          0.7690   -0.8168    1.8112 C.ar      1 <0>         0.0000
      5 C5          2.9819   -1.7938    1.7088 C.ar      1 <0>         0.0000
      6 C6          2.4974    0.5785    7.3351 C.ar      1 <0>         0.0000
      7 C7          0.1150    0.4846    7.8360 C.ar      1 <0>         0.0000
      8 C8          2.5720    1.8443    7.9154 C.ar      1 <0>         0.0000
      9 C9          0.1860    1.7522    8.4175 C.ar      1 <0>         0.0000
     10 C10         1.8679   -1.4000    2.4728 C.ar      1 <0>         0.0000
     11 C11         1.2688   -0.0853    7.2947 C.ar      1 <0>         0.0000
     12 C12         1.4132    2.4198    8.4474 C.ar      1 <0>         0.0000
     13 C13         1.9063   -1.6148    3.9222 C.2       1 <0>         0.0000
     14 C14         0.9429   -1.3232    4.8088 C.2       1 <0>         0.0000
     15 O1          2.4809   -2.3619    6.6888 O.2       1 <0>         0.0000
     16 O2         -0.0689   -2.3437    7.0134 O.2       1 <0>         0.0000
     17 S1          1.1694   -1.7119    6.5319 S.o2      1 <0>         0.0000
     18 Cl1         1.5056    4.0096    9.1763 Cl        1 <0>         0.0000
     19 H1          1.9169   -0.8886   -1.3960 H         1 <0>         0.0000
     20 H2         -0.0649   -0.1838   -0.0672 H         1 <0>         0.0000
     21 H3          3.8701   -1.9239   -0.2500 H         1 <0>         0.0000
     22 H4         -0.1050   -0.5050    2.3760 H         1 <0>         0.0000
     23 H5          3.8349   -2.2480    2.2075 H         1 <0>         0.0000
     24 H6          3.3857    0.1021    6.9319 H         1 <0>         0.0000
     25 H7         -0.8193   -0.0679    7.8187 H         1 <0>         0.0000
     26 H8          3.5162    2.3772    7.9630 H         1 <0>         0.0000
     27 H9         -0.6962    2.2133    8.8496 H         1 <0>         0.0000
     28 H10         2.8134   -2.0694    4.3191 H         1 <0>         0.0000
     29 H11        -0.0256   -0.8876    4.5847 H         1 <0>         0.0000
@<TRIPOS>BOND
     1    1    3 ar
     2    1    2 ar
     3    1   19 1
     4    2    4 ar
     5    2   20 1
     6    3    5 ar
     7    3   21 1
     8    4   10 ar
     9    4   22 1
    10    5   10 ar
    11    5   23 1
    12    6    8 ar
    13    6   11 ar
    14    6   24 1
    15    7    9 ar
    16    7   11 ar
    17    7   25 1
    18    8   12 ar
    19    8   26 1
    20    9   12 ar
    21    9   27 1
    22   10   13 1
    23   11   17 1
    24   12   18 1
    25   13   14 2
    26   13   28 1
    27   14   17 1
    28   14   29 1
    29   15   17 2
    30   16   17 2
