@<TRIPOS>MOLECULE
*****
   40    43     0     0     0
SMALL
NO_CHARGES

@<TRIPOS>ATOM
      1 C1          1.3764   -1.0544    0.0149 C.ar      1 <0>         0.0000
      2 C2          0.0753   -0.8393    0.4845 C.ar      1 <0>         0.0000
      3 C3          2.2054   -1.9637    0.6725 C.ar      1 <0>         0.0000
      4 C4         -0.3769   -1.5366    1.6051 C.ar      1 <0>         0.0000
      5 C5          5.0371   -3.6164    8.7270 C.ar      1 <0>         0.0000
      6 C6          4.3117   -3.9439    7.5836 C.ar      1 <0>         0.0000
      7 C7          2.7036   -2.1234    7.9382 C.ar      1 <0>         0.0000
      8 C8          1.7577   -2.6691    1.7990 C.ar      1 <0>         0.0000
      9 C9          0.4522   -2.4493    2.2707 C.ar      1 <0>         0.0000
     10 C10         4.5935   -2.5296    9.4852 C.ar      1 <0>         0.0000
     11 C11         3.1608   -3.2176    7.1835 C.ar      1 <0>         0.0000
     12 C12         3.4540   -1.8289    9.0673 C.ar      1 <0>         0.0000
     13 C13         4.2606   -0.9665   10.9043 C.2       1 <0>         0.0000
     14 C14         1.3766   -3.1682    5.4122 C.2       1 <0>         0.0000
     15 C15         2.6819   -3.6462    2.5036 C.3       1 <0>         0.0000
     16 C16        -0.0881   -3.2003    3.4781 C.3       1 <0>         0.0000
     17 C17         1.8834   -4.5963    3.3994 C.3       1 <0>         0.0000
     18 C18         4.2825    0.0053   12.0297 C.3       1 <0>         0.0000
     19 N1          5.0773   -1.9448   10.6639 N.2       1 <0>         0.0000
     20 N2          0.9691   -3.8422    4.2604 N.am      1 <0>         0.0000
     21 N3          2.5344   -3.6560    5.9967 N.am      1 <0>         0.0000
     22 O1          0.7294   -2.2360    5.8898 O.2       1 <0>         0.0000
     23 O2          3.2362   -0.8197    9.9808 O.3       1 <0>         0.0000
     24 H1          1.7406   -0.5165   -0.8566 H         1 <0>         0.0000
     25 H2         -0.5781   -0.1293   -0.0159 H         1 <0>         0.0000
     26 H3          3.2167   -2.1339    0.3076 H         1 <0>         0.0000
     27 H4         -1.3849   -1.3645    1.9779 H         1 <0>         0.0000
     28 H5          5.9148   -4.1854    9.0178 H         1 <0>         0.0000
     29 H6          4.6376   -4.7857    6.9757 H         1 <0>         0.0000
     30 H7          1.8259   -1.5651    7.6463 H         1 <0>         0.0000
     31 H8          3.2588   -4.2183    1.7678 H         1 <0>         0.0000
     32 H9          3.4059   -3.0946    3.1172 H         1 <0>         0.0000
     33 H10        -0.6289   -2.5229    4.1374 H         1 <0>         0.0000
     34 H11        -0.7891   -3.9780    3.1471 H         1 <0>         0.0000
     35 H12         1.2655   -5.2598    2.7847 H         1 <0>         0.0000
     36 H13         2.5362   -5.2560    3.9763 H         1 <0>         0.0000
     37 H14         4.3758    1.0295   11.6540 H         1 <0>         0.0000
     38 H15         3.3549   -0.0528   12.6084 H         1 <0>         0.0000
     39 H16         5.1288   -0.2202   12.6791 H         1 <0>         0.0000
     40 H17         2.9544   -4.4770    5.5888 H         1 <0>         0.0000
@<TRIPOS>BOND
     1    1    2 ar
     2    1    3 ar
     3    1   24 1
     4    2    4 ar
     5    2   25 1
     6    3    8 ar
     7    3   26 1
     8    4    9 ar
     9    4   27 1
    10    5    6 ar
    11    5   10 ar
    12    5   28 1
    13    6   11 ar
    14    6   29 1
    15    7   11 ar
    16    7   12 ar
    17    7   30 1
    18    8    9 ar
    19    8   15 1
    20    9   16 1
    21   10   12 ar
    22   10   19 1
    23   11   21 1
    24   12   23 1
    25   13   18 1
    26   13   19 2
    27   13   23 1
    28   14   20 am
    29   14   21 am
    30   14   22 2
    31   15   17 1
    32   15   31 1
    33   15   32 1
    34   16   20 1
    35   16   33 1
    36   16   34 1
    37   17   20 1
    38   17   35 1
    39   17   36 1
    40   18   37 1
    41   18   38 1
    42   18   39 1
    43   21   40 1
