@<TRIPOS>MOLECULE
*****
   39    41     0     0     0
SMALL
NO_CHARGES

@<TRIPOS>ATOM
      1 C1         -1.0337   -1.7504    0.0422 C.ar      1 <0>         0.0000
      2 C2         -1.7096   -0.6596    0.5830 C.ar      1 <0>         0.0000
      3 C3          2.2459   -2.3237    3.1284 C.ar      1 <0>         0.0000
      4 C4          0.1162   -1.5427   -0.7186 C.ar      1 <0>         0.0000
      5 C5          2.1713   -0.9520    2.9015 C.ar      1 <0>         0.0000
      6 C6          2.9588   -2.6801    0.8694 C.ar      1 <0>         0.0000
      7 C7         -1.2607    0.6534    0.3715 C.ar      1 <0>         0.0000
      8 C8          2.6484   -3.2147    2.1208 C.ar      1 <0>         0.0000
      9 C9          0.6117   -0.2500   -0.9147 C.ar      1 <0>         0.0000
     10 C10        -0.0879    0.8527   -0.3857 C.ar      1 <0>         0.0000
     11 C11         2.4988   -0.4224    1.6486 C.ar      1 <0>         0.0000
     12 C12         2.8814   -1.3033    0.6278 C.ar      1 <0>         0.0000
     13 C13        -2.0695    1.7479    1.0231 C.2       1 <0>         0.0000
     14 C14         1.9341    1.3005   -2.2339 C.3       1 <0>         0.0000
     15 C15         1.6268    2.3760   -1.2100 C.3       1 <0>         0.0000
     16 C16         2.7419   -4.6992    2.3871 C.3       1 <0>         0.0000
     17 N1          1.8154   -0.0322   -1.6307 N.pl3     1 <0>         0.0000
     18 O1         -3.0282    1.5013    1.7282 O.2       1 <0>         0.0000
     19 O2          4.2828    0.3280   -1.0145 O.2       1 <0>         0.0000
     20 O3          3.5356   -1.9513   -1.8213 O.2       1 <0>         0.0000
     21 O4          0.3290    2.1458   -0.6058 O.3       1 <0>         0.0000
     22 O5          2.4269    0.9158    1.3846 O.3       1 <0>         0.0000
     23 O6         -1.6930    3.0300    0.8136 O.3       1 <0>         0.0000
     24 S1          3.2837   -0.7448   -1.0331 S.o2      1 <0>         0.0000
     25 H1         -1.4030   -2.7587    0.2021 H         1 <0>         0.0000
     26 H2         -2.6072   -0.7885    1.1781 H         1 <0>         0.0000
     27 H3          1.9817   -2.7088    4.1107 H         1 <0>         0.0000
     28 H4          0.6514   -2.3749   -1.1655 H         1 <0>         0.0000
     29 H5          1.8505   -0.2828    3.6978 H         1 <0>         0.0000
     30 H6          3.2540   -3.3267    0.0494 H         1 <0>         0.0000
     31 H7          1.2296    1.3380   -3.0707 H         1 <0>         0.0000
     32 H8          2.9420    1.4412   -2.6232 H         1 <0>         0.0000
     33 H9          2.3831    2.3765   -0.4253 H         1 <0>         0.0000
     34 H10         1.5551    3.3643   -1.6688 H         1 <0>         0.0000
     35 H11         1.8204   -5.0796    2.8402 H         1 <0>         0.0000
     36 H12         2.9196   -5.2580    1.4648 H         1 <0>         0.0000
     37 H13         3.5633   -4.9249    3.0764 H         1 <0>         0.0000
     38 H14         2.0445    1.3714    2.1522 H         1 <0>         0.0000
     39 H15        -0.9086    3.0515    0.2261 H         1 <0>         0.0000
@<TRIPOS>BOND
     1    1    2 ar
     2    1    4 ar
     3    1   25 1
     4    2    7 ar
     5    2   26 1
     6    3    5 ar
     7    3    8 ar
     8    3   27 1
     9    4    9 ar
    10    4   28 1
    11    5   11 ar
    12    5   29 1
    13    6    8 ar
    14    6   12 ar
    15    6   30 1
    16    7   10 ar
    17    7   13 1
    18    8   16 1
    19    9   10 ar
    20    9   17 1
    21   10   21 1
    22   11   12 ar
    23   11   22 1
    24   12   24 1
    25   13   18 2
    26   13   23 1
    27   14   15 1
    28   14   17 1
    29   14   31 1
    30   14   32 1
    31   15   21 1
    32   15   33 1
    33   15   34 1
    34   16   35 1
    35   16   36 1
    36   16   37 1
    37   17   24 1
    38   19   24 2
    39   20   24 2
    40   22   38 1
    41   23   39 1
