@<TRIPOS>MOLECULE
*****
   42    45     0     0     0
SMALL
NO_CHARGES

@<TRIPOS>ATOM
      1 C1          0.7713    1.8413   -8.2418 C.ar      1 <0>         0.0000
      2 C2          0.3498    2.9650   -7.5229 C.ar      1 <0>         0.0000
      3 C3          1.6827    0.9521   -7.6615 C.ar      1 <0>         0.0000
      4 C4          6.7036   -1.6891    0.7086 C.ar      1 <0>         0.0000
      5 C5          0.8291    3.2053   -6.2340 C.ar      1 <0>         0.0000
      6 C6          2.1725    1.1768   -6.3741 C.ar      1 <0>         0.0000
      7 C7          7.8829   -0.9532    0.7883 C.ar      1 <0>         0.0000
      8 C8          6.8508    0.7572   -0.6075 C.ar      1 <0>         0.0000
      9 C9          5.5853   -1.2377   -0.0063 C.ar      1 <0>         0.0000
     10 C10         1.7390    2.3052   -5.6685 C.ar      1 <0>         0.0000
     11 C11         5.6633    0.0057   -0.6663 C.ar      1 <0>         0.0000
     12 C12         7.9233    0.2648    0.1148 C.ar      1 <0>         0.0000
     13 C13         3.2966    2.2898   -2.5560 C.2       1 <0>         0.0000
     14 C14         2.5513    3.5005   -2.4923 C.2       1 <0>         0.0000
     15 C15         4.2754    1.8195   -1.5368 C.2       1 <0>         0.0000
     16 C16         4.3504   -2.1153   -0.0725 C.3       1 <0>         0.0000
     17 C17         3.1563   -1.3890   -0.6894 C.3       1 <0>         0.0000
     18 C18         3.6176   -0.5728   -1.8956 C.3       1 <0>         0.0000
     19 C19         2.4656    4.5199   -1.4036 C.3       1 <0>         0.0000
     20 N1          3.0762    1.7139   -3.7468 N.2       1 <0>         0.0000
     21 N2          1.8804    3.6266   -3.6390 N.2       1 <0>         0.0000
     22 N3          2.2307    2.5425   -4.3564 N.pl3     1 <0>         0.0000
     23 N4          4.5630    0.4670   -1.4532 N.am      1 <0>         0.0000
     24 O1          4.8168    2.6716   -0.8293 O.2       1 <0>         0.0000
     25 F1          9.0655    1.0014    0.1613 F         1 <0>         0.0000
     26 H1          0.3946    1.6609   -9.2447 H         1 <0>         0.0000
     27 H2         -0.3567    3.6619   -7.9655 H         1 <0>         0.0000
     28 H3          2.0182    0.0781   -8.2131 H         1 <0>         0.0000
     29 H4          6.6407   -2.6471    1.2202 H         1 <0>         0.0000
     30 H5          0.5119    4.0720   -5.6662 H         1 <0>         0.0000
     31 H6          2.8823    0.4981   -5.9159 H         1 <0>         0.0000
     32 H7          8.7453   -1.3003    1.3481 H         1 <0>         0.0000
     33 H8          6.9392    1.7143   -1.1028 H         1 <0>         0.0000
     34 H9          4.5827   -3.0036   -0.6749 H         1 <0>         0.0000
     35 H10         4.1030   -2.4808    0.9300 H         1 <0>         0.0000
     36 H11         2.3878   -2.1048   -0.9994 H         1 <0>         0.0000
     37 H12         2.6989   -0.7092    0.0386 H         1 <0>         0.0000
     38 H13         4.1152   -1.2162   -2.6311 H         1 <0>         0.0000
     39 H14         2.7758   -0.1013   -2.3903 H         1 <0>         0.0000
     40 H15         3.4245    5.0314   -1.2867 H         1 <0>         0.0000
     41 H16         1.6876    5.2494   -1.6383 H         1 <0>         0.0000
     42 H17         2.2427    4.0477   -0.4429 H         1 <0>         0.0000
@<TRIPOS>BOND
     1    1    3 ar
     2    1    2 ar
     3    1   26 1
     4    2    5 ar
     5    2   27 1
     6    3    6 ar
     7    3   28 1
     8    4    7 ar
     9    4    9 ar
    10    4   29 1
    11    5   10 ar
    12    5   30 1
    13    6   10 ar
    14    6   31 1
    15    7   12 ar
    16    7   32 1
    17    8   11 ar
    18    8   12 ar
    19    8   33 1
    20    9   11 ar
    21    9   16 1
    22   10   22 1
    23   11   23 1
    24   12   25 1
    25   13   14 1
    26   13   15 1
    27   13   20 2
    28   14   19 1
    29   14   21 2
    30   15   23 am
    31   15   24 2
    32   16   17 1
    33   16   34 1
    34   16   35 1
    35   17   18 1
    36   17   36 1
    37   17   37 1
    38   18   23 1
    39   18   38 1
    40   18   39 1
    41   19   40 1
    42   19   41 1
    43   19   42 1
    44   20   22 1
    45   21   22 1
