@<TRIPOS>MOLECULE
*****
   35    37     0     0     0
SMALL
NO_CHARGES

@<TRIPOS>ATOM
      1 C1          0.1908   -0.3828   -0.3395 C.ar      1 <0>         0.0000
      2 C2          0.2208    0.5519   -1.3916 C.ar      1 <0>         0.0000
      3 C3         -4.8629   -3.0258   -3.8932 C.ar      1 <0>         0.0000
      4 C4         -4.8526   -2.5647   -6.2634 C.ar      1 <0>         0.0000
      5 C5          0.0394   -1.7459   -0.5912 C.ar      1 <0>         0.0000
      6 C6         -3.7459   -3.8495   -4.0362 C.ar      1 <0>         0.0000
      7 C7         -3.7336   -3.3799   -6.4282 C.ar      1 <0>         0.0000
      8 C8         -5.4308   -2.3723   -4.9977 C.ar      1 <0>         0.0000
      9 C9          0.1016    0.1656   -2.7280 C.ar      1 <0>         0.0000
     10 C10        -0.0495   -1.2117   -2.9877 C.ar      1 <0>         0.0000
     11 C11        -0.0736   -2.1464   -1.9260 C.ar      1 <0>         0.0000
     12 C12        -3.1898   -4.0127   -5.3072 C.ar      1 <0>         0.0000
     13 C13        -0.3310   -3.0524   -4.1826 C.2       1 <0>         0.0000
     14 C14        -6.6591   -1.5095   -4.8359 C.3       1 <0>         0.0000
     15 C15         0.1243    1.1556   -3.8641 C.3       1 <0>         0.0000
     16 N1         -0.2101   -1.7622   -4.2553 N.2       1 <0>         0.0000
     17 N2         -0.4186   -3.8529   -5.3258 N.pl3     1 <0>         0.0000
     18 O1         -1.5928   -5.4359   -6.8793 O.2       1 <0>         0.0000
     19 O2         -1.5918   -5.8864   -4.3498 O.2       1 <0>         0.0000
     20 S1         -0.2644   -3.7715   -2.5668 S.3       1 <0>         0.0000
     21 S2         -1.7057   -4.9884   -5.4944 S.o2      1 <0>         0.0000
     22 H1          0.2901   -0.0369    0.6858 H         1 <0>         0.0000
     23 H2          0.3396    1.6070   -1.1573 H         1 <0>         0.0000
     24 H3         -5.2998   -2.8913   -2.9067 H         1 <0>         0.0000
     25 H4         -5.2843   -2.0720   -7.1312 H         1 <0>         0.0000
     26 H5          0.0186   -2.4664    0.2212 H         1 <0>         0.0000
     27 H6         -3.3160   -4.3637   -3.1835 H         1 <0>         0.0000
     28 H7         -3.2949   -3.5373   -7.4089 H         1 <0>         0.0000
     29 H8         -7.5688   -2.1053   -4.9772 H         1 <0>         0.0000
     30 H9         -6.7075   -1.0665   -3.8374 H         1 <0>         0.0000
     31 H10        -6.6788   -0.7004   -5.5714 H         1 <0>         0.0000
     32 H11         0.9377    0.9319   -4.5620 H         1 <0>         0.0000
     33 H12        -0.8060    1.1109   -4.4399 H         1 <0>         0.0000
     34 H13         0.2552    2.1754   -3.4928 H         1 <0>         0.0000
     35 H14        -0.3255   -3.2914   -6.1727 H         1 <0>         0.0000
@<TRIPOS>BOND
     1    1    2 ar
     2    1    5 ar
     3    1   22 1
     4    2    9 ar
     5    2   23 1
     6    3    6 ar
     7    3    8 ar
     8    3   24 1
     9    4    7 ar
    10    4    8 ar
    11    4   25 1
    12    5   11 ar
    13    5   26 1
    14    6   12 ar
    15    6   27 1
    16    7   12 ar
    17    7   28 1
    18    8   14 1
    19    9   10 ar
    20    9   15 1
    21   10   11 ar
    22   10   16 1
    23   11   20 1
    24   12   21 1
    25   13   16 2
    26   13   17 1
    27   13   20 1
    28   14   29 1
    29   14   30 1
    30   14   31 1
    31   15   32 1
    32   15   33 1
    33   15   34 1
    34   17   21 1
    35   17   35 1
    36   18   21 2
    37   19   21 2
