@<TRIPOS>MOLECULE
*****
   41    44     0     0     0
SMALL
NO_CHARGES

@<TRIPOS>ATOM
      1 C1          6.1552   -5.6416    6.3277 C.ar      1 <0>         0.0000
      2 C2          5.4887   -4.6176    7.0291 C.ar      1 <0>         0.0000
      3 C3          1.6209   -1.6707   -0.1270 C.ar      1 <0>         0.0000
      4 C4          5.9881   -5.8104    4.9500 C.ar      1 <0>         0.0000
      5 C5          4.6323   -3.7251    6.3730 C.ar      1 <0>         0.0000
      6 C6          1.1970   -0.3440   -0.2021 C.ar      1 <0>         0.0000
      7 C7          3.1594    0.1682   -1.5438 C.ar      1 <0>         0.0000
      8 C8          2.8080   -2.1097   -0.7394 C.ar      1 <0>         0.0000
      9 C9          5.1336   -4.9299    4.2764 C.ar      1 <0>         0.0000
     10 C10         4.4694   -3.9059    4.9996 C.ar      1 <0>         0.0000
     11 C11         3.5630   -1.1715   -1.4716 C.ar      1 <0>         0.0000
     12 C12         1.9885    0.5673   -0.9054 C.ar      1 <0>         0.0000
     13 C13         3.9719   -3.8524    2.8378 C.2       1 <0>         0.0000
     14 C14         3.2517   -3.5263   -0.5881 C.2       1 <0>         0.0000
     15 C15         3.4806   -4.3566   -1.8264 C.3       1 <0>         0.0000
     16 C16         4.7428   -3.9282   -2.5934 C.3       1 <0>         0.0000
     17 C17         4.7024   -2.4997   -3.1219 C.3       1 <0>         0.0000
     18 C18         2.7808   -2.1410    4.3045 C.3       1 <0>         0.0000
     19 N1          4.8063   -4.8601    2.9232 N.2       1 <0>         0.0000
     20 N2          3.4851   -4.0988    0.5427 N.2       1 <0>         0.0000
     21 N3          3.7051   -3.2293    4.0503 N.pl3     1 <0>         0.0000
     22 N4          3.3286   -3.3764    1.6975 N.pl3     1 <0>         0.0000
     23 O1          4.7462   -1.4898   -2.0873 O.3       1 <0>         0.0000
     24 Br1         1.4495    2.4033   -1.0066 Br        1 <0>         0.0000
     25 H1          6.8151   -6.3121    6.8718 H         1 <0>         0.0000
     26 H2          5.6439   -4.5149    8.0997 H         1 <0>         0.0000
     27 H3          1.0196   -2.3908    0.4219 H         1 <0>         0.0000
     28 H4          6.5030   -6.5978    4.4070 H         1 <0>         0.0000
     29 H5          4.1276   -2.9314    6.9177 H         1 <0>         0.0000
     30 H6          0.2760   -0.0266    0.2751 H         1 <0>         0.0000
     31 H7          3.7730    0.8689   -2.0996 H         1 <0>         0.0000
     32 H8          3.5795   -5.3991   -1.5146 H         1 <0>         0.0000
     33 H9          2.6079   -4.2787   -2.4884 H         1 <0>         0.0000
     34 H10         5.6205   -4.0470   -1.9492 H         1 <0>         0.0000
     35 H11         4.8791   -4.5935   -3.4555 H         1 <0>         0.0000
     36 H12         5.5868   -2.2974   -3.7307 H         1 <0>         0.0000
     37 H13         3.8119   -2.3328   -3.7419 H         1 <0>         0.0000
     38 H14         3.2800   -1.1646    4.2839 H         1 <0>         0.0000
     39 H15         1.9852   -2.1529    3.5558 H         1 <0>         0.0000
     40 H16         2.3223   -2.2781    5.2871 H         1 <0>         0.0000
     41 H17         3.2941   -2.3607    1.6069 H         1 <0>         0.0000
@<TRIPOS>BOND
     1    1    2 ar
     2    1    4 ar
     3    1   25 1
     4    2    5 ar
     5    2   26 1
     6    3    6 ar
     7    3    8 ar
     8    3   27 1
     9    4    9 ar
    10    4   28 1
    11    5   10 ar
    12    5   29 1
    13    6   12 ar
    14    6   30 1
    15    7   11 ar
    16    7   12 ar
    17    7   31 1
    18    8   11 ar
    19    8   14 1
    20    9   10 ar
    21    9   19 1
    22   10   21 1
    23   11   23 1
    24   12   24 1
    25   13   19 2
    26   13   21 1
    27   13   22 1
    28   14   15 1
    29   14   20 2
    30   15   16 1
    31   15   32 1
    32   15   33 1
    33   16   17 1
    34   16   34 1
    35   16   35 1
    36   17   23 1
    37   17   36 1
    38   17   37 1
    39   18   21 1
    40   18   38 1
    41   18   39 1
    42   18   40 1
    43   20   22 1
    44   22   41 1
