@<TRIPOS>MOLECULE
*****
   44    46     0     0     0
SMALL
NO_CHARGES

@<TRIPOS>ATOM
      1 C1         -0.9259   -3.8469   -5.1707 C.2       1 <0>         0.0000
      2 C2          0.1872   -2.5095   -3.4729 C.2       1 <0>         0.0000
      3 C3         -0.2408   -2.6562   -4.7766 C.2       1 <0>         0.0000
      4 C4         -1.1333   -4.8585   -4.2709 C.2       1 <0>         0.0000
      5 C5         -0.0209   -3.5578   -2.4912 C.2       1 <0>         0.0000
      6 C6         -0.1418    0.8215    2.8605 C.2       1 <0>         0.0000
      7 C7          1.0416   -1.3321   -3.0770 C.2       1 <0>         0.0000
      8 C8         -0.5671   -0.7315    0.0520 C.3       1 <0>         0.0000
      9 C9          1.6531    0.4234   -0.1230 C.3       1 <0>         0.0000
     10 C10        -0.7360   -0.5768   -1.4653 C.3       1 <0>         0.0000
     11 C11         1.4162    0.5992   -1.6284 C.3       1 <0>         0.0000
     12 C12        -0.3915    1.7335    0.7312 C.3       1 <0>         0.0000
     13 C13         0.3295    0.3676    0.6346 C.3       1 <0>         0.0000
     14 C14         0.0218   -1.5982   -5.8197 C.3       1 <0>         0.0000
     15 C15        -1.8204   -6.1560   -4.5860 C.3       1 <0>         0.0000
     16 C16        -1.5239    2.8577    2.7024 C.3       1 <0>         0.0000
     17 N1         -0.6860   -4.6899   -2.9890 N.am      1 <0>         0.0000
     18 N2         -0.8642    1.7167    2.1005 N.am      1 <0>         0.0000
     19 N3          0.5571   -0.4699   -2.1338 N.am      1 <0>         0.0000
     20 O1          0.3223   -3.5312   -1.3020 O.2       1 <0>         0.0000
     21 O2         -0.1469    0.7026    4.0685 O.2       1 <0>         0.0000
     22 O3          2.1353   -1.1675   -3.6273 O.2       1 <0>         0.0000
     23 O4          0.6104    0.0398    2.0253 O.3       1 <0>         0.0000
     24 H1         -1.2766   -3.9617   -6.1904 H         1 <0>         0.0000
     25 H2         -1.5483   -0.7048    0.5397 H         1 <0>         0.0000
     26 H3         -0.1091   -1.7018    0.2535 H         1 <0>         0.0000
     27 H4          2.1917   -0.5134    0.0478 H         1 <0>         0.0000
     28 H5          2.2706    1.2419    0.2620 H         1 <0>         0.0000
     29 H6         -1.2907   -1.4214   -1.8688 H         1 <0>         0.0000
     30 H7         -1.3177    0.3274   -1.6989 H         1 <0>         0.0000
     31 H8          0.9395    1.5682   -1.8354 H         1 <0>         0.0000
     32 H9          2.3546    0.5638   -2.1798 H         1 <0>         0.0000
     33 H10         0.2959    2.5755    0.5529 H         1 <0>         0.0000
     34 H11        -1.2224    1.8186    0.0235 H         1 <0>         0.0000
     35 H12        -0.7119   -1.6558   -6.6286 H         1 <0>         0.0000
     36 H13         1.0199   -1.7430   -6.2457 H         1 <0>         0.0000
     37 H14         0.0035   -0.5920   -5.3958 H         1 <0>         0.0000
     38 H15        -1.1478   -7.0049   -4.4183 H         1 <0>         0.0000
     39 H16        -2.1422   -6.1762   -5.6283 H         1 <0>         0.0000
     40 H17        -2.7025   -6.2984   -3.9510 H         1 <0>         0.0000
     41 H18        -0.9025    3.7624    2.6389 H         1 <0>         0.0000
     42 H19        -1.7093    2.6304    3.7530 H         1 <0>         0.0000
     43 H20        -2.4783    3.0512    2.2015 H         1 <0>         0.0000
     44 H21        -0.8202   -5.4246   -2.3000 H         1 <0>         0.0000
@<TRIPOS>BOND
     1    1    3 1
     2    1    4 2
     3    1   24 1
     4    2    3 2
     5    2    5 1
     6    2    7 1
     7    3   14 1
     8    4   15 1
     9    4   17 1
    10    5   17 am
    11    5   20 2
    12    6   18 am
    13    6   21 2
    14    6   23 1
    15    7   19 am
    16    7   22 2
    17    8   10 1
    18    8   13 1
    19    8   25 1
    20    8   26 1
    21    9   11 1
    22    9   13 1
    23    9   27 1
    24    9   28 1
    25   10   19 1
    26   10   29 1
    27   10   30 1
    28   11   19 1
    29   11   31 1
    30   11   32 1
    31   12   13 1
    32   12   18 1
    33   12   33 1
    34   12   34 1
    35   13   23 1
    36   14   35 1
    37   14   36 1
    38   14   37 1
    39   15   38 1
    40   15   39 1
    41   15   40 1
    42   16   18 1
    43   16   41 1
    44   16   42 1
    45   16   43 1
    46   17   44 1
