@<TRIPOS>MOLECULE
*****
   41    43     0     0     0
SMALL
NO_CHARGES

@<TRIPOS>ATOM
      1 C1         -6.6842    7.1445   -7.6084 C.ar      1 <0>         0.0000
      2 C2         -5.4455    6.6211   -7.2326 C.ar      1 <0>         0.0000
      3 C3         -0.9555    2.5086   -0.8711 C.ar      1 <0>         0.0000
      4 C4         -1.0008    3.3049    0.2706 C.ar      1 <0>         0.0000
      5 C5         -1.8250    4.9508   -3.5538 C.2       1 <0>         0.0000
      6 C6         -1.6004    5.2398   -1.0742 C.ar      1 <0>         0.0000
      7 C7         -6.4181    6.0107   -5.1031 C.ar      1 <0>         0.0000
      8 C8         -1.5581    4.4419   -2.2353 C.ar      1 <0>         0.0000
      9 C9         -1.7804    4.1486   -4.6531 C.2       1 <0>         0.0000
     10 C10        -7.7998    7.1180   -6.7628 C.ar      1 <0>         0.0000
     11 C11        -7.6557    6.5354   -5.4844 C.ar      1 <0>         0.0000
     12 C12        -5.3093    6.0470   -5.9636 C.ar      1 <0>         0.0000
     13 C13        -1.2338    3.0788   -2.1152 C.ar      1 <0>         0.0000
     14 C14        -1.3241    4.6667    0.1583 C.ar      1 <0>         0.0000
     15 C15        -1.4616    2.7163   -4.5019 C.2       1 <0>         0.0000
     16 C16        -2.0138    4.6793   -6.0276 C.2       1 <0>         0.0000
     17 C17        -9.1223    7.6958   -7.2101 C.3       1 <0>         0.0000
     18 C18        -8.8266    6.4734   -4.5314 C.3       1 <0>         0.0000
     19 C19        -0.9316    4.4871   -7.0578 C.3       1 <0>         0.0000
     20 N1         -3.0714    5.3337   -6.3781 N.2       1 <0>         0.0000
     21 N2         -4.0835    5.5387   -5.4980 N.pl3     1 <0>         0.0000
     22 O1         -1.4283    1.8990   -5.3950 O.2       1 <0>         0.0000
     23 O2         -1.1810    2.2669   -3.2117 O.3       1 <0>         0.0000
     24 Br1        -1.3837    5.7481    1.7372 Br        1 <0>         0.0000
     25 H1         -6.7831    7.5874   -8.5973 H         1 <0>         0.0000
     26 H2         -4.5958    6.6479   -7.9044 H         1 <0>         0.0000
     27 H3         -0.7086    1.4533   -0.8120 H         1 <0>         0.0000
     28 H4         -0.7873    2.8745    1.2433 H         1 <0>         0.0000
     29 H5         -2.0610    6.0066   -3.6694 H         1 <0>         0.0000
     30 H6         -1.8486    6.2937   -1.1544 H         1 <0>         0.0000
     31 H7         -6.3128    5.5621   -4.1158 H         1 <0>         0.0000
     32 H8         -9.9170    6.9397   -7.2126 H         1 <0>         0.0000
     33 H9         -9.4574    8.5051   -6.5500 H         1 <0>         0.0000
     34 H10        -9.0495    8.1027   -8.2223 H         1 <0>         0.0000
     35 H11        -9.2056    7.4751   -4.2971 H         1 <0>         0.0000
     36 H12        -9.6636    5.9112   -4.9619 H         1 <0>         0.0000
     37 H13        -8.5495    5.9918   -3.5898 H         1 <0>         0.0000
     38 H14        -0.7771    3.4245   -7.2648 H         1 <0>         0.0000
     39 H15        -1.2167    4.9973   -7.9799 H         1 <0>         0.0000
     40 H16         0.0225    4.8966   -6.7032 H         1 <0>         0.0000
     41 H17        -4.1303    4.9483   -4.6691 H         1 <0>         0.0000
@<TRIPOS>BOND
     1    1    2 ar
     2    1   10 ar
     3    1   25 1
     4    2   12 ar
     5    2   26 1
     6    3    4 ar
     7    3   13 ar
     8    3   27 1
     9    4   14 ar
    10    4   28 1
    11    5    8 1
    12    5    9 2
    13    5   29 1
    14    6    8 ar
    15    6   14 ar
    16    6   30 1
    17    7   11 ar
    18    7   12 ar
    19    7   31 1
    20    8   13 ar
    21    9   15 1
    22    9   16 1
    23   10   11 ar
    24   10   17 1
    25   11   18 1
    26   12   21 1
    27   13   23 1
    28   14   24 1
    29   15   22 2
    30   15   23 1
    31   16   19 1
    32   16   20 2
    33   17   32 1
    34   17   33 1
    35   17   34 1
    36   18   35 1
    37   18   36 1
    38   18   37 1
    39   19   38 1
    40   19   39 1
    41   19   40 1
    42   20   21 1
    43   21   41 1
