@<TRIPOS>MOLECULE
*****
   28    29     0     0     0
SMALL
NO_CHARGES

@<TRIPOS>ATOM
      1 C1          0.6433    0.9369   -9.5894 C.ar      1 <0>         0.0000
      2 C2          0.1596   -0.3315   -9.2614 C.ar      1 <0>         0.0000
      3 C3          0.7343    1.9360   -8.6152 C.ar      1 <0>         0.0000
      4 C4         -0.1318    0.3710   -6.9186 C.ar      1 <0>         0.0000
      5 C5         -0.2198   -0.5775   -7.9483 C.ar      1 <0>         0.0000
      6 C6          0.3425    1.6337   -7.3193 C.ar      1 <0>         0.0000
      7 C7          0.8099   -4.9461   -2.4560 C.2       1 <0>         0.0000
      8 C8          0.1289   -3.7435   -1.9400 C.2       1 <0>         0.0000
      9 C9          0.4709   -2.9457   -4.1798 C.2       1 <0>         0.0000
     10 C10        -0.5540    0.1791   -5.5159 C.2       1 <0>         0.0000
     11 C11         1.0154   -6.0873   -1.5059 C.3       1 <0>         0.0000
     12 N1          1.2314   -5.0540   -3.6886 N.2       1 <0>         0.0000
     13 N2          1.0660   -4.0359   -4.5931 N.2       1 <0>         0.0000
     14 N3         -0.3651   -0.8132   -4.7136 N.2       1 <0>         0.0000
     15 N4          0.0013   -2.7542   -2.9165 N.am      1 <0>         0.0000
     16 N5          0.3232   -1.9122   -5.0821 N.pl3     1 <0>         0.0000
     17 O1         -0.2934   -3.5844   -0.7999 O.2       1 <0>         0.0000
     18 F1         -0.7258   -1.8035   -7.6504 F         1 <0>         0.0000
     19 F2          0.4269    2.6002   -6.3760 F         1 <0>         0.0000
     20 H1          0.9446    1.1507  -10.6102 H         1 <0>         0.0000
     21 H2          0.0596   -1.1194  -10.0006 H         1 <0>         0.0000
     22 H3          1.1029    2.9305   -8.8436 H         1 <0>         0.0000
     23 H4         -1.0549    1.0245   -5.0528 H         1 <0>         0.0000
     24 H5          0.0550   -6.4389   -1.1140 H         1 <0>         0.0000
     25 H6          1.6063   -5.7662   -0.6415 H         1 <0>         0.0000
     26 H7          1.5257   -6.9034   -2.0194 H         1 <0>         0.0000
     27 H8         -0.4619   -1.8773   -2.6840 H         1 <0>         0.0000
     28 H9          0.5828   -2.1293   -6.0412 H         1 <0>         0.0000
@<TRIPOS>BOND
     1    1    3 ar
     2    1    2 ar
     3    1   20 1
     4    2    5 ar
     5    2   21 1
     6    3    6 ar
     7    3   22 1
     8    4    6 ar
     9    4    5 ar
    10    4   10 1
    11    5   18 1
    12    6   19 1
    13    7    8 1
    14    7   11 1
    15    7   12 2
    16    8   15 am
    17    8   17 2
    18    9   13 2
    19    9   15 1
    20    9   16 1
    21   10   14 2
    22   10   23 1
    23   11   24 1
    24   11   25 1
    25   11   26 1
    26   12   13 1
    27   14   16 1
    28   15   27 1
    29   16   28 1
