@<TRIPOS>MOLECULE
*****
   40    43     0     0     0
SMALL
NO_CHARGES

@<TRIPOS>ATOM
      1 C1          1.7622   -0.5500    0.3929 C.ar      1 <0>         0.0000
      2 C2          0.3670   -0.4721    0.4775 C.ar      1 <0>         0.0000
      3 C3          2.4461   -1.5041    1.1469 C.ar      1 <0>         0.0000
      4 C4         -0.3229   -1.3490    1.3149 C.ar      1 <0>         0.0000
      5 C5          1.1244   -2.4939    9.5191 C.ar      1 <0>         0.0000
      6 C6          0.8549   -2.7343    8.1704 C.ar      1 <0>         0.0000
      7 C7          2.6452   -4.4095    8.0468 C.ar      1 <0>         0.0000
      8 C8          1.7597   -2.3898    1.9904 C.ar      1 <0>         0.0000
      9 C9          0.3593   -2.3077    2.0760 C.ar      1 <0>         0.0000
     10 C10         2.1530   -3.2087   10.1361 C.ar      1 <0>         0.0000
     11 C11         1.6048   -3.6827    7.4338 C.ar      1 <0>         0.0000
     12 C12         2.8800   -4.1417    9.3850 C.ar      1 <0>         0.0000
     13 C13         3.6144   -4.0724   11.4396 C.2       1 <0>         0.0000
     14 C14         0.3954   -3.4462    5.2342 C.2       1 <0>         0.0000
     15 C15         2.5269   -3.4138    2.8077 C.3       1 <0>         0.0000
     16 C16        -0.4354   -3.2550    2.9621 C.3       1 <0>         0.0000
     17 C17         1.5936   -4.5250    3.2943 C.3       1 <0>         0.0000
     18 C18         4.5058   -4.4848   12.5560 C.3       1 <0>         0.0000
     19 N1          2.6582   -3.1988   11.4454 N.2       1 <0>         0.0000
     20 N2          0.4062   -3.9542    3.9339 N.am      1 <0>         0.0000
     21 N3          1.3836   -3.9525    6.0649 N.am      1 <0>         0.0000
     22 O1         -0.4538   -2.6406    5.6137 O.2       1 <0>         0.0000
     23 O2          3.8239   -4.7028   10.2168 O.3       1 <0>         0.0000
     24 H1          2.3111    0.1282   -0.2552 H         1 <0>         0.0000
     25 H2         -0.1767    0.2705   -0.1006 H         1 <0>         0.0000
     26 H3          3.5308   -1.5680    1.0809 H         1 <0>         0.0000
     27 H4         -1.4069   -1.2845    1.3894 H         1 <0>         0.0000
     28 H5          0.5424   -1.7647   10.0747 H         1 <0>         0.0000
     29 H6          0.0627   -2.1997    7.6671 H         1 <0>         0.0000
     30 H7          3.2334   -5.1424    7.5002 H         1 <0>         0.0000
     31 H8          3.3414   -3.8403    2.2107 H         1 <0>         0.0000
     32 H9          2.9894   -2.9247    3.6748 H         1 <0>         0.0000
     33 H10        -1.2010   -2.7102    3.5125 H         1 <0>         0.0000
     34 H11        -0.9396   -4.0073    2.3410 H         1 <0>         0.0000
     35 H12         1.2412   -5.1168    2.4423 H         1 <0>         0.0000
     36 H13         2.1092   -5.2333    3.9476 H         1 <0>         0.0000
     37 H14         4.3998   -5.5551   12.7612 H         1 <0>         0.0000
     38 H15         5.5546   -4.2968   12.3040 H         1 <0>         0.0000
     39 H16         4.2420   -3.9183   13.4494 H         1 <0>         0.0000
     40 H17         1.9823   -4.6700    5.6862 H         1 <0>         0.0000
@<TRIPOS>BOND
     1    1    2 ar
     2    1    3 ar
     3    1   24 1
     4    2    4 ar
     5    2   25 1
     6    3    8 ar
     7    3   26 1
     8    4    9 ar
     9    4   27 1
    10    5    6 ar
    11    5   10 ar
    12    5   28 1
    13    6   11 ar
    14    6   29 1
    15    7   11 ar
    16    7   12 ar
    17    7   30 1
    18    8    9 ar
    19    8   15 1
    20    9   16 1
    21   10   12 ar
    22   10   19 1
    23   11   21 1
    24   12   23 1
    25   13   18 1
    26   13   19 2
    27   13   23 1
    28   14   20 am
    29   14   21 am
    30   14   22 2
    31   15   17 1
    32   15   31 1
    33   15   32 1
    34   16   20 1
    35   16   33 1
    36   16   34 1
    37   17   20 1
    38   17   35 1
    39   17   36 1
    40   18   37 1
    41   18   38 1
    42   18   39 1
    43   21   40 1
