@<TRIPOS>MOLECULE
*****
   42    45     0     0     0
SMALL
NO_CHARGES

@<TRIPOS>ATOM
      1 C1         -2.7408    2.9757   -2.6342 C.ar      1 <0>         0.0000
      2 C2         -2.0626    3.5791   -3.6986 C.ar      1 <0>         0.0000
      3 C3         -2.0348    2.1707   -1.7333 C.ar      1 <0>         0.0000
      4 C4          6.1204   -1.6798    1.4691 C.ar      1 <0>         0.0000
      5 C5         -0.6908    3.3848   -3.8694 C.ar      1 <0>         0.0000
      6 C6         -0.6631    1.9653   -1.8889 C.ar      1 <0>         0.0000
      7 C7          7.4734   -1.4353    1.2400 C.ar      1 <0>         0.0000
      8 C8          6.8675   -0.2797   -0.8201 C.ar      1 <0>         0.0000
      9 C9          5.1206   -1.2393    0.5929 C.ar      1 <0>         0.0000
     10 C10        -0.0004    2.5760   -2.9600 C.ar      1 <0>         0.0000
     11 C11         5.5072   -0.5243   -0.5632 C.ar      1 <0>         0.0000
     12 C12         7.8113   -0.7362    0.0866 C.ar      1 <0>         0.0000
     13 C13         3.3573    1.6725   -2.7987 C.2       1 <0>         0.0000
     14 C14         3.3493    2.5273   -3.9369 C.2       1 <0>         0.0000
     15 C15         4.5765    1.0972   -2.1588 C.2       1 <0>         0.0000
     16 C16         3.6724   -1.5754    0.9118 C.3       1 <0>         0.0000
     17 C17         2.6724   -0.9536   -0.0696 C.3       1 <0>         0.0000
     18 C18         3.2872   -0.9501   -1.4648 C.3       1 <0>         0.0000
     19 C19         4.4726    2.9550   -4.8240 C.3       1 <0>         0.0000
     20 N1          2.1111    1.6029   -2.3094 N.2       1 <0>         0.0000
     21 N2          2.0954    2.9423   -4.1266 N.2       1 <0>         0.0000
     22 N3          1.3955    2.3719   -3.1283 N.pl3     1 <0>         0.0000
     23 N4          4.4849   -0.0936   -1.4652 N.am      1 <0>         0.0000
     24 O1          5.6246    1.7379   -2.2748 O.2       1 <0>         0.0000
     25 F1          9.1243   -0.4947   -0.1723 F         1 <0>         0.0000
     26 H1         -3.8083    3.1318   -2.5071 H         1 <0>         0.0000
     27 H2         -2.6020    4.2067   -4.4028 H         1 <0>         0.0000
     28 H3         -2.5523    1.6995   -0.9021 H         1 <0>         0.0000
     29 H4          5.8252   -2.2269    2.3619 H         1 <0>         0.0000
     30 H5         -0.1529    3.8466   -4.6889 H         1 <0>         0.0000
     31 H6         -0.1052    1.3468   -1.1956 H         1 <0>         0.0000
     32 H7          8.2454   -1.7726    1.9242 H         1 <0>         0.0000
     33 H8          7.1827    0.2651   -1.6975 H         1 <0>         0.0000
     34 H9          3.5648   -2.6674    0.8895 H         1 <0>         0.0000
     35 H10         3.4436   -1.2683    1.9381 H         1 <0>         0.0000
     36 H11         1.7330   -1.5165   -0.0676 H         1 <0>         0.0000
     37 H12         2.4378    0.0806    0.2006 H         1 <0>         0.0000
     38 H13         3.6062   -1.9618   -1.7450 H         1 <0>         0.0000
     39 H14         2.5859   -0.5999   -2.2135 H         1 <0>         0.0000
     40 H15         5.0504    2.0919   -5.1662 H         1 <0>         0.0000
     41 H16         4.0789    3.4923   -5.6893 H         1 <0>         0.0000
     42 H17         5.1637    3.5999   -4.2753 H         1 <0>         0.0000
@<TRIPOS>BOND
     1    1    3 ar
     2    1    2 ar
     3    1   26 1
     4    2    5 ar
     5    2   27 1
     6    3    6 ar
     7    3   28 1
     8    4    7 ar
     9    4    9 ar
    10    4   29 1
    11    5   10 ar
    12    5   30 1
    13    6   10 ar
    14    6   31 1
    15    7   12 ar
    16    7   32 1
    17    8   11 ar
    18    8   12 ar
    19    8   33 1
    20    9   11 ar
    21    9   16 1
    22   10   22 1
    23   11   23 1
    24   12   25 1
    25   13   14 1
    26   13   15 1
    27   13   20 2
    28   14   19 1
    29   14   21 2
    30   15   23 am
    31   15   24 2
    32   16   17 1
    33   16   34 1
    34   16   35 1
    35   17   18 1
    36   17   36 1
    37   17   37 1
    38   18   23 1
    39   18   38 1
    40   18   39 1
    41   19   40 1
    42   19   41 1
    43   19   42 1
    44   20   22 1
    45   21   22 1
