@<TRIPOS>MOLECULE
*****
   15    15     0     0     0
SMALL
NO_CHARGES

@<TRIPOS>ATOM
      1 C1          0.1553   -0.3829    0.9465 C.ar      1 <0>         0.0000
      2 C2          1.2552    0.0807    1.6824 C.ar      1 <0>         0.0000
      3 C3          1.4977   -0.4666    2.9606 C.ar      1 <0>         0.0000
      4 C4         -0.6572   -1.3658    1.5032 C.ar      1 <0>         0.0000
      5 C5          0.5867   -1.4580    3.3942 C.ar      1 <0>         0.0000
      6 C6          2.1472    1.1363    1.1119 C.2       1 <0>         0.0000
      7 N1         -0.4426   -1.8902    2.7029 N.ar      1 <0>         0.0000
      8 O1          3.1203    1.6176    1.6513 O.2       1 <0>         0.0000
      9 O2          2.5386   -0.0589    3.7100 O.3       1 <0>         0.0000
     10 O3          1.7377    1.5207   -0.1310 O.3       1 <0>         0.0000
     11 Cl1        -2.0377   -1.9624    0.6053 Cl        1 <0>         0.0000
     12 Cl2         0.8511   -2.1712    4.9870 Cl        1 <0>         0.0000
     13 H1         -0.0519    0.0208   -0.0358 H         1 <0>         0.0000
     14 H2          2.5295   -0.5556    4.5501 H         1 <0>         0.0000
     15 H3          2.3719    2.2045   -0.4198 H         1 <0>         0.0000
@<TRIPOS>BOND
     1    1    2 ar
     2    1    4 ar
     3    1   13 1
     4    2    3 ar
     5    2    6 1
     6    3    5 ar
     7    3    9 1
     8    4    7 ar
     9    4   11 1
    10    5    7 ar
    11    5   12 1
    12    6    8 2
    13    6   10 1
    14    9   14 1
    15   10   15 1
