@<TRIPOS>MOLECULE
*****
   30    32     0     0     0
SMALL
NO_CHARGES

@<TRIPOS>ATOM
      1 C1         -0.4966   -2.0341    0.4940 C.ar      1 <0>         0.0000
      2 C2          0.3500   -1.0275    0.0392 C.ar      1 <0>         0.0000
      3 C3          3.0228   -5.3167   -0.2210 C.ar      1 <0>         0.0000
      4 C4         -0.0479   -3.3542    0.5448 C.ar      1 <0>         0.0000
      5 C5          1.6484   -1.3369   -0.3665 C.ar      1 <0>         0.0000
      6 C6          1.7243   -5.0072    0.1848 C.ar      1 <0>         0.0000
      7 C7          3.8693   -4.3100   -0.6758 C.ar      1 <0>         0.0000
      8 C8          4.6340    0.4368   -4.2570 C.2       1 <0>         0.0000
      9 C9          1.2560   -3.6839    0.1403 C.ar      1 <0>         0.0000
     10 C10         2.1168   -2.6602   -0.3222 C.ar      1 <0>         0.0000
     11 C11         3.4207   -2.9899   -0.7267 C.ar      1 <0>         0.0000
     12 C12         5.1608   -0.6017   -3.5308 C.2       1 <0>         0.0000
     13 C13         4.3825   -1.9565   -1.2260 C.3       1 <0>         0.0000
     14 N1          5.5769    1.4151   -4.4101 N.2       1 <0>         0.0000
     15 N2          6.6850    1.0137   -3.7969 N.2       1 <0>         0.0000
     16 N3          6.4334   -0.1959   -3.2705 N.pl3     1 <0>         0.0000
     17 O1          3.1935   -2.2941   -3.5384 O.2       1 <0>         0.0000
     18 O2          5.5355   -3.1676   -3.2254 O.2       1 <0>         0.0000
     19 S1          4.5246   -2.1543   -2.9709 S.o2      1 <0>         0.0000
     20 H1         -1.5073   -1.7925    0.8097 H         1 <0>         0.0000
     21 H2         -0.0002   -0.0000    0.0001 H         1 <0>         0.0000
     22 H3          3.3726   -6.3442   -0.1818 H         1 <0>         0.0000
     23 H4         -0.7268   -4.1249    0.9038 H         1 <0>         0.0000
     24 H5          2.2793   -0.5228   -0.7155 H         1 <0>         0.0000
     25 H6          1.0800   -5.8102    0.5367 H         1 <0>         0.0000
     26 H7          4.8787   -4.5638   -0.9892 H         1 <0>         0.0000
     27 H8          3.6412    0.5310   -4.6707 H         1 <0>         0.0000
     28 H9          5.3771   -2.0762   -0.7873 H         1 <0>         0.0000
     29 H10         4.0323   -0.9398   -1.0259 H         1 <0>         0.0000
     30 H11         7.1656   -0.6712   -2.7567 H         1 <0>         0.0000
@<TRIPOS>BOND
     1    1    2 ar
     2    1    4 ar
     3    1   20 1
     4    2    5 ar
     5    2   21 1
     6    3    6 ar
     7    3    7 ar
     8    3   22 1
     9    4    9 ar
    10    4   23 1
    11    5   10 ar
    12    5   24 1
    13    6    9 ar
    14    6   25 1
    15    7   11 ar
    16    7   26 1
    17    8   12 2
    18    8   14 1
    19    8   27 1
    20    9   10 ar
    21   10   11 ar
    22   11   13 1
    23   12   16 1
    24   12   19 1
    25   13   19 1
    26   13   28 1
    27   13   29 1
    28   14   15 2
    29   15   16 1
    30   16   30 1
    31   17   19 2
    32   18   19 2
