@<TRIPOS>MOLECULE
*****
   25    25     0     0     0
SMALL
NO_CHARGES

@<TRIPOS>ATOM
      1 C1          4.3250    1.2590   -5.2231 C.2       1 <0>         0.0000
      2 C2          4.0432    0.2998   -4.2953 C.2       1 <0>         0.0000
      3 C3          5.7251   -0.7364   -5.2919 C.2       1 <0>         0.0000
      4 C4          1.9285   -0.7779   -3.4723 C.2       1 <0>         0.0000
      5 C5         -0.0152   -1.7594   -2.5501 C.3       1 <0>         0.0000
      6 C6          4.7276   -3.7659   -5.4127 C.3       1 <0>         0.0000
      7 C7          2.9452    0.3409   -3.2786 C.3       1 <0>         0.0000
      8 N1          4.8527   -0.8216   -4.3340 N.2       1 <0>         0.0000
      9 N2          6.6289   -1.7417   -5.6040 N.pl3     1 <0>         0.0000
     10 O1          1.9174   -1.5913   -4.3747 O.2       1 <0>         0.0000
     11 O2          7.3235   -4.1019   -5.9640 O.2       1 <0>         0.0000
     12 O3          6.6467   -3.4014   -3.6079 O.2       1 <0>         0.0000
     13 O4          1.0086   -0.7427   -2.4820 O.3       1 <0>         0.0000
     14 S1          5.6631    0.7552   -6.2303 S.3       1 <0>         0.0000
     15 S2          6.4473   -3.3675   -5.0486 S.o2      1 <0>         0.0000
     16 H1          3.8429    2.2140   -5.3838 H         1 <0>         0.0000
     17 H2         -0.6608   -1.5781   -1.6912 H         1 <0>         0.0000
     18 H3          0.4340   -2.7533   -2.4921 H         1 <0>         0.0000
     19 H4         -0.5776   -1.6709   -3.4824 H         1 <0>         0.0000
     20 H5          4.5816   -4.7851   -5.0498 H         1 <0>         0.0000
     21 H6          4.0796   -3.0642   -4.8877 H         1 <0>         0.0000
     22 H7          4.5907   -3.7184   -6.4935 H         1 <0>         0.0000
     23 H8          3.3550    0.2415   -2.2676 H         1 <0>         0.0000
     24 H9          2.4124    1.2955   -3.3094 H         1 <0>         0.0000
     25 H10         7.1112   -1.7038   -6.4968 H         1 <0>         0.0000
@<TRIPOS>BOND
     1    1    2 2
     2    1   14 1
     3    1   16 1
     4    2    7 1
     5    2    8 1
     6    3    8 2
     7    3    9 1
     8    3   14 1
     9    4    7 1
    10    4   10 2
    11    4   13 1
    12    5   13 1
    13    5   17 1
    14    5   18 1
    15    5   19 1
    16    6   15 1
    17    6   20 1
    18    6   21 1
    19    6   22 1
    20    7   23 1
    21    7   24 1
    22    9   15 1
    23    9   25 1
    24   11   15 2
    25   12   15 2
