@<TRIPOS>MOLECULE
*****
   25    25     0     0     0
SMALL
NO_CHARGES

@<TRIPOS>ATOM
      1 C1          5.3396    1.4578   -4.8941 C.2       1 <0>         0.0000
      2 C2          4.6892    0.2553   -4.9074 C.2       1 <0>         0.0000
      3 C3          6.7617   -0.5161   -4.7275 C.2       1 <0>         0.0000
      4 C4          2.2917    1.1788   -5.1221 C.2       1 <0>         0.0000
      5 C5          0.0128    1.8047   -5.2209 C.3       1 <0>         0.0000
      6 C6          6.6536   -3.8731   -4.1286 C.3       1 <0>         0.0000
      7 C7          3.2141   -0.0177   -5.0118 C.3       1 <0>         0.0000
      8 N1          5.5094   -0.8598   -4.8259 N.2       1 <0>         0.0000
      9 N2          7.7953   -1.4516   -4.6109 N.pl3     1 <0>         0.0000
     10 O1          2.6112    2.3480   -5.2214 O.2       1 <0>         0.0000
     11 O2          9.0873   -3.1413   -3.2732 O.2       1 <0>         0.0000
     12 O3          7.0252   -2.1090   -2.1825 O.2       1 <0>         0.0000
     13 O4          1.0047    0.7611   -5.1063 O.3       1 <0>         0.0000
     14 S1          7.0539    1.2120   -4.7183 S.3       1 <0>         0.0000
     15 S2          7.7117   -2.6457   -3.3552 S.o2      1 <0>         0.0000
     16 H1          4.9166    2.4458   -4.9929 H         1 <0>         0.0000
     17 H2         -0.9491    1.2936   -5.1923 H         1 <0>         0.0000
     18 H3          0.1358    2.3443   -6.1626 H         1 <0>         0.0000
     19 H4          0.1022    2.5065   -4.3887 H         1 <0>         0.0000
     20 H5          6.5126   -4.6656   -3.3912 H         1 <0>         0.0000
     21 H6          5.7121   -3.3826   -4.3760 H         1 <0>         0.0000
     22 H7          7.1619   -4.2450   -5.0178 H         1 <0>         0.0000
     23 H8          3.0237   -0.6611   -5.8789 H         1 <0>         0.0000
     24 H9          2.8946   -0.6098   -4.1471 H         1 <0>         0.0000
     25 H10         8.7453   -1.0875   -4.6500 H         1 <0>         0.0000
@<TRIPOS>BOND
     1    1    2 2
     2    1   14 1
     3    1   16 1
     4    2    7 1
     5    2    8 1
     6    3    8 2
     7    3    9 1
     8    3   14 1
     9    4    7 1
    10    4   10 2
    11    4   13 1
    12    5   13 1
    13    5   17 1
    14    5   18 1
    15    5   19 1
    16    6   15 1
    17    6   20 1
    18    6   21 1
    19    6   22 1
    20    7   23 1
    21    7   24 1
    22    9   15 1
    23    9   25 1
    24   11   15 2
    25   12   15 2
