@<TRIPOS>MOLECULE
*****
   24    24     0     0     0
SMALL
NO_CHARGES

@<TRIPOS>ATOM
      1 C1          4.7190    1.2713   -3.1179 C.2       1 <0>         0.0000
      2 C2          4.1186    0.0627   -3.3257 C.2       1 <0>         0.0000
      3 C3          6.2204   -0.6600   -3.6505 C.2       1 <0>         0.0000
      4 C4          1.9350    0.6868   -2.2830 C.2       1 <0>         0.0000
      5 C5          1.3716    0.9498   -0.0061 C.3       1 <0>         0.0000
      6 C6          8.5978   -0.4345   -5.9752 C.3       1 <0>         0.0000
      7 C7          2.6243   -0.2023   -3.2879 C.3       1 <0>         0.0000
      8 N1          4.9368   -1.0008   -3.6205 N.2       1 <0>         0.0000
      9 N2          7.1954   -1.5478   -3.9257 N.2       1 <0>         0.0000
     10 O1          1.4757    1.7945   -2.5063 O.2       1 <0>         0.0000
     11 O2          9.5771   -2.2346   -4.3083 O.2       1 <0>         0.0000
     12 O3          9.1501    0.1113   -3.4576 O.2       1 <0>         0.0000
     13 O4          1.8936    0.1139   -1.0501 O.3       1 <0>         0.0000
     14 S1          6.4545    1.1105   -3.2516 S.3       1 <0>         0.0000
     15 S2          8.6941   -1.0527   -4.2629 S.o2      1 <0>         0.0000
     16 H1          4.2479    2.2211   -2.8986 H         1 <0>         0.0000
     17 H2          1.4311    0.3525    0.9049 H         1 <0>         0.0000
     18 H3          0.3353    1.2312   -0.2145 H         1 <0>         0.0000
     19 H4          1.9731    1.8575    0.0929 H         1 <0>         0.0000
     20 H5          9.5946   -0.0915   -6.2619 H         1 <0>         0.0000
     21 H6          8.2707   -1.2568   -6.6134 H         1 <0>         0.0000
     22 H7          7.8854    0.3928   -6.0074 H         1 <0>         0.0000
     23 H8          2.1729   -0.0190   -4.2683 H         1 <0>         0.0000
     24 H9          2.4782   -1.2508   -3.0211 H         1 <0>         0.0000
@<TRIPOS>BOND
     1    1    2 2
     2    1   14 1
     3    1   16 1
     4    2    7 1
     5    2    8 1
     6    3    8 2
     7    3    9 1
     8    3   14 1
     9    4    7 1
    10    4   10 2
    11    4   13 1
    12    5   13 1
    13    5   17 1
    14    5   18 1
    15    5   19 1
    16    6   15 1
    17    6   20 1
    18    6   21 1
    19    6   22 1
    20    7   23 1
    21    7   24 1
    22    9   15 1
    23   11   15 2
    24   12   15 2
