@<TRIPOS>MOLECULE
*****
   25    25     0     0     0
SMALL
NO_CHARGES

@<TRIPOS>ATOM
      1 C1          4.4045    1.5028   -4.8253 C.2       1 <0>         0.0000
      2 C2          3.9492    0.3843   -4.1913 C.2       1 <0>         0.0000
      3 C3          6.0599   -0.2403   -4.4155 C.2       1 <0>         0.0000
      4 C4          2.4965   -0.0270   -2.1835 C.2       1 <0>         0.0000
      5 C5          1.0431   -0.5143   -0.3830 C.3       1 <0>         0.0000
      6 C6          6.6854   -1.6587   -1.6260 C.3       1 <0>         0.0000
      7 C7          2.5564    0.1470   -3.6965 C.3       1 <0>         0.0000
      8 N1          4.8932   -0.6041   -3.9767 N.2       1 <0>         0.0000
      9 N2          7.2082   -1.0074   -4.2814 N.pl3     1 <0>         0.0000
     10 O1          3.4270    0.0819   -1.4098 O.2       1 <0>         0.0000
     11 O2          6.4562   -3.4028   -3.6207 O.2       1 <0>         0.0000
     12 O3          8.7763   -2.5046   -3.0640 O.2       1 <0>         0.0000
     13 O4          1.2333   -0.3212   -1.8018 O.3       1 <0>         0.0000
     14 S1          6.1121    1.3514   -5.1725 S.3       1 <0>         0.0000
     15 S2          7.3266   -2.3267   -3.1724 S.o2      1 <0>         0.0000
     16 H1          3.8619    2.3955   -5.1062 H         1 <0>         0.0000
     17 H2         -0.0161   -0.7388   -0.2609 H         1 <0>         0.0000
     18 H3          1.3118    0.3926    0.1635 H         1 <0>         0.0000
     19 H4          1.6570   -1.3452   -0.0283 H         1 <0>         0.0000
     20 H5          6.7317   -2.4826   -0.9112 H         1 <0>         0.0000
     21 H6          7.3367   -0.8414   -1.3145 H         1 <0>         0.0000
     22 H7          5.6585   -1.3269   -1.7787 H         1 <0>         0.0000
     23 H8          1.8924    0.9712   -3.9718 H         1 <0>         0.0000
     24 H9          2.1381   -0.7588   -4.1486 H         1 <0>         0.0000
     25 H10         8.1099   -0.5662   -4.4344 H         1 <0>         0.0000
@<TRIPOS>BOND
     1    1    2 2
     2    1   14 1
     3    1   16 1
     4    2    7 1
     5    2    8 1
     6    3    8 2
     7    3    9 1
     8    3   14 1
     9    4    7 1
    10    4   10 2
    11    4   13 1
    12    5   13 1
    13    5   17 1
    14    5   18 1
    15    5   19 1
    16    6   15 1
    17    6   20 1
    18    6   21 1
    19    6   22 1
    20    7   23 1
    21    7   24 1
    22    9   15 1
    23    9   25 1
    24   11   15 2
    25   12   15 2
