@<TRIPOS>MOLECULE
*****
   25    25     0     0     0
SMALL
NO_CHARGES

@<TRIPOS>ATOM
      1 C1          0.8154    0.4921    3.3684 C.2       1 <0>         0.0000
      2 C2          0.7203   -0.0569    2.1388 C.2       1 <0>         0.0000
      3 C3          2.7443   -1.0320    2.8267 C.2       1 <0>         0.0000
      4 C4         -1.5182    0.9576    1.4070 C.2       1 <0>         0.0000
      5 C5         -3.5905    1.7213    0.5617 C.3       1 <0>         0.0000
      6 C6          4.8826   -4.1155    2.2515 C.3       1 <0>         0.0000
      7 C7         -0.3188    0.0915    1.0669 C.3       1 <0>         0.0000
      8 N1          3.8347   -1.7541    2.8594 N.2       1 <0>         0.0000
      9 N2          1.8043   -0.8918    1.8438 N.pl3     1 <0>         0.0000
     10 O1         -1.6901    1.5998    2.4235 O.2       1 <0>         0.0000
     11 O2          3.1284   -2.9224    0.6438 O.2       1 <0>         0.0000
     12 O3          5.4430   -1.9254    0.8617 O.2       1 <0>         0.0000
     13 O4         -2.3977    0.9230    0.3836 O.3       1 <0>         0.0000
     14 S1          2.2749   -0.0312    4.2011 S.3       1 <0>         0.0000
     15 S2          4.3024   -2.5914    1.4984 S.o2      1 <0>         0.0000
     16 H1          0.1210    1.1787    3.8258 H         1 <0>         0.0000
     17 H2         -4.1711    1.5781   -0.3487 H         1 <0>         0.0000
     18 H3         -3.3257    2.7729    0.6912 H         1 <0>         0.0000
     19 H4         -4.1482    1.3773    1.4353 H         1 <0>         0.0000
     20 H5          5.2731   -4.7335    1.4413 H         1 <0>         0.0000
     21 H6          5.6699   -3.8612    2.9611 H         1 <0>         0.0000
     22 H7          4.0432   -4.6028    2.7474 H         1 <0>         0.0000
     23 H8         -0.6972   -0.8940    0.7696 H         1 <0>         0.0000
     24 H9          0.1375    0.5100    0.1608 H         1 <0>         0.0000
     25 H10         1.8814   -1.4955    1.0216 H         1 <0>         0.0000
@<TRIPOS>BOND
     1    1    2 2
     2    1   14 1
     3    1   16 1
     4    2    7 1
     5    2    9 1
     6    3    8 2
     7    3    9 1
     8    3   14 1
     9    4    7 1
    10    4   10 2
    11    4   13 1
    12    5   13 1
    13    5   17 1
    14    5   18 1
    15    5   19 1
    16    6   15 1
    17    6   20 1
    18    6   21 1
    19    6   22 1
    20    7   23 1
    21    7   24 1
    22    8   15 1
    23    9   25 1
    24   11   15 2
    25   12   15 2
