@<TRIPOS>MOLECULE
*****
   18    18     0     0     0
SMALL
NO_CHARGES

@<TRIPOS>ATOM
      1 C1         -0.2142    3.0363    2.0314 C.3       1 <0>         0.0000
      2 C2         -1.4118    2.1839    2.3915 C.3       1 <0>         0.0000
      3 C3         -1.3536    2.8789    1.0514 C.3       1 <0>         0.0000
      4 C4          1.1729    2.7685   -1.3176 C.3       1 <0>         0.0000
      5 N1         -0.8845    4.3489   -1.6049 N.2       1 <0>         0.0000
      6 N2         -1.1364    2.0356   -0.1017 N.pl3     1 <0>         0.0000
      7 O1         -1.0334    1.8838   -2.6024 O.2       1 <0>         0.0000
      8 S1         -0.6032    2.8316   -1.5496 S.o       1 <0>         0.0000
      9 H1         -0.0938    4.0018    2.5125 H         1 <0>         0.0000
     10 H2          0.7079    2.5113    1.8040 H         1 <0>         0.0000
     11 H3         -1.2718    1.1077    2.3966 H         1 <0>         0.0000
     12 H4         -2.1219    2.5610    3.1211 H         1 <0>         0.0000
     13 H5         -1.9962    3.7468    0.9116 H         1 <0>         0.0000
     14 H6          1.4450    1.7210   -1.1920 H         1 <0>         0.0000
     15 H7          1.6229    3.1936   -2.2152 H         1 <0>         0.0000
     16 H8          1.4338    3.3597   -0.4408 H         1 <0>         0.0000
     17 H9         -1.8528    4.5276   -1.8816 H         1 <0>         0.0000
     18 H10        -1.9505    1.4779   -0.3630 H         1 <0>         0.0000
@<TRIPOS>BOND
     1    1    2 1
     2    1    3 1
     3    1    9 1
     4    1   10 1
     5    2    3 1
     6    2   11 1
     7    2   12 1
     8    3    6 1
     9    3   13 1
    10    4    8 1
    11    4   14 1
    12    4   15 1
    13    4   16 1
    14    5    8 2
    15    5   17 1
    16    6    8 1
    17    6   18 1
    18    7    8 2
