@<TRIPOS>MOLECULE
*****
   24    24     0     0     0
SMALL
NO_CHARGES

@<TRIPOS>ATOM
      1 C1          5.5833    1.1744   -3.7811 C.2       1 <0>         0.0000
      2 C2          4.7039    0.1374   -3.6530 C.2       1 <0>         0.0000
      3 C3          6.5479   -1.1359   -3.8043 C.2       1 <0>         0.0000
      4 C4          2.8399    1.4527   -2.6419 C.2       1 <0>         0.0000
      5 C5          2.6249    2.2101   -0.4169 C.3       1 <0>         0.0000
      6 C6          9.1823   -1.9506   -1.9278 C.3       1 <0>         0.0000
      7 C7          3.1983    0.2739   -3.5128 C.3       1 <0>         0.0000
      8 N1          5.2275   -1.1325   -3.6572 N.2       1 <0>         0.0000
      9 N2          7.2668   -2.2745   -3.8323 N.2       1 <0>         0.0000
     10 O1          2.6074    2.5851   -3.0313 O.2       1 <0>         0.0000
     11 O2          9.5253   -1.1029   -4.3994 O.2       1 <0>         0.0000
     12 O3          9.3930   -3.5964   -3.9828 O.2       1 <0>         0.0000
     13 O4          2.8244    1.1158   -1.3240 O.3       1 <0>         0.0000
     14 S1          7.2096    0.5624   -3.9722 S.3       1 <0>         0.0000
     15 S2          8.8751   -2.2434   -3.7007 S.o2      1 <0>         0.0000
     16 H1          5.3638    2.2343   -3.8096 H         1 <0>         0.0000
     17 H2          2.6571    1.7725    0.5820 H         1 <0>         0.0000
     18 H3          1.6591    2.6921   -0.5943 H         1 <0>         0.0000
     19 H4          3.4190    2.9527   -0.5337 H         1 <0>         0.0000
     20 H5         10.2640   -1.9291   -1.7762 H         1 <0>         0.0000
     21 H6          8.7385   -0.9917   -1.6512 H         1 <0>         0.0000
     22 H7          8.7261   -2.7678   -1.3669 H         1 <0>         0.0000
     23 H8          2.7256    0.4190   -4.4891 H         1 <0>         0.0000
     24 H9          2.8205   -0.6478   -3.0663 H         1 <0>         0.0000
@<TRIPOS>BOND
     1    1    2 2
     2    1   14 1
     3    1   16 1
     4    2    7 1
     5    2    8 1
     6    3    8 2
     7    3    9 1
     8    3   14 1
     9    4    7 1
    10    4   10 2
    11    4   13 1
    12    5   13 1
    13    5   17 1
    14    5   18 1
    15    5   19 1
    16    6   15 1
    17    6   20 1
    18    6   21 1
    19    6   22 1
    20    7   23 1
    21    7   24 1
    22    9   15 1
    23   11   15 2
    24   12   15 2
