@<TRIPOS>MOLECULE
*****
   25    25     0     0     0
SMALL
NO_CHARGES

@<TRIPOS>ATOM
      1 C1          4.3043    0.9444   -5.6243 C.2       1 <0>         0.0000
      2 C2          3.8285    0.5781   -4.3954 C.2       1 <0>         0.0000
      3 C3          5.8051   -0.4136   -4.2701 C.2       1 <0>         0.0000
      4 C4          1.5757   -0.3522   -3.9713 C.2       1 <0>         0.0000
      5 C5          1.0778   -2.4570   -3.0247 C.3       1 <0>         0.0000
      6 C6          5.7456   -2.4038   -1.5308 C.3       1 <0>         0.0000
      7 C7          2.4572    0.8856   -3.8544 C.3       1 <0>         0.0000
      8 N1          4.6964   -0.1768   -3.6301 N.2       1 <0>         0.0000
      9 N2          6.8246   -1.1987   -3.7254 N.pl3     1 <0>         0.0000
     10 O1          0.8278   -0.5765   -4.9022 O.2       1 <0>         0.0000
     11 O2          5.3542   -3.3703   -3.9700 O.2       1 <0>         0.0000
     12 O3          7.7208   -3.4415   -3.0234 O.2       1 <0>         0.0000
     13 O4          1.7619   -1.1878   -2.9284 O.3       1 <0>         0.0000
     14 S1          5.8922    0.2783   -5.8818 S.3       1 <0>         0.0000
     15 S2          6.4163   -2.7892   -3.1511 S.o2      1 <0>         0.0000
     16 H1          3.8255    1.5531   -6.3796 H         1 <0>         0.0000
     17 H2          1.3299   -2.9916   -2.1093 H         1 <0>         0.0000
     18 H3          1.4322   -3.0062   -3.8995 H         1 <0>         0.0000
     19 H4         -0.0010   -2.3042   -3.1001 H         1 <0>         0.0000
     20 H5          5.4592   -3.3592   -1.0868 H         1 <0>         0.0000
     21 H6          6.5276   -1.9165   -0.9491 H         1 <0>         0.0000
     22 H7          4.8836   -1.7532   -1.6797 H         1 <0>         0.0000
     23 H8          2.5369    1.1856   -2.8066 H         1 <0>         0.0000
     24 H9          1.9893    1.6819   -4.4338 H         1 <0>         0.0000
     25 H10         7.6933   -1.2559   -4.2536 H         1 <0>         0.0000
@<TRIPOS>BOND
     1    1    2 2
     2    1   14 1
     3    1   16 1
     4    2    7 1
     5    2    8 1
     6    3    8 2
     7    3    9 1
     8    3   14 1
     9    4    7 1
    10    4   10 2
    11    4   13 1
    12    5   13 1
    13    5   17 1
    14    5   18 1
    15    5   19 1
    16    6   15 1
    17    6   20 1
    18    6   21 1
    19    6   22 1
    20    7   23 1
    21    7   24 1
    22    9   15 1
    23    9   25 1
    24   11   15 2
    25   12   15 2
