@<TRIPOS>MOLECULE
*****
   24    24     0     0     0
SMALL
NO_CHARGES

@<TRIPOS>ATOM
      1 C1          4.3194    2.3779   -5.0602 C.2       1 <0>         0.0000
      2 C2          3.9440    1.5808   -4.0156 C.2       1 <0>         0.0000
      3 C3          6.0645    0.8552   -4.1202 C.2       1 <0>         0.0000
      4 C4          1.4855    1.6841   -4.4234 C.2       1 <0>         0.0000
      5 C5          0.2246    0.5004   -6.0297 C.3       1 <0>         0.0000
      6 C6          6.1715   -2.0699   -2.8162 C.3       1 <0>         0.0000
      7 C7          2.5668    1.5684   -3.3776 C.3       1 <0>         0.0000
      8 N1          4.8946    0.7328   -3.4963 N.2       1 <0>         0.0000
      9 N2          7.2291    0.2156   -3.9624 N.2       1 <0>         0.0000
     10 O1          0.9676    2.7205   -4.8048 O.2       1 <0>         0.0000
     11 O2          7.1966   -0.1050   -1.3677 O.2       1 <0>         0.0000
     12 O3          8.7357   -1.4434   -2.8531 O.2       1 <0>         0.0000
     13 O4          1.1513    0.4684   -4.9338 O.3       1 <0>         0.0000
     14 S1          6.0035    2.0827   -5.4440 S.3       1 <0>         0.0000
     15 S2          7.4334   -0.7667   -2.6717 S.o2      1 <0>         0.0000
     16 H1          3.7221    3.1065   -5.5923 H         1 <0>         0.0000
     17 H2          0.0793   -0.5408   -6.3212 H         1 <0>         0.0000
     18 H3          0.6384    1.0754   -6.8627 H         1 <0>         0.0000
     19 H4         -0.7244    0.9502   -5.7241 H         1 <0>         0.0000
     20 H5          6.3176   -2.7465   -1.9709 H         1 <0>         0.0000
     21 H6          5.1898   -1.5971   -2.7857 H         1 <0>         0.0000
     22 H7          6.3343   -2.5925   -3.7608 H         1 <0>         0.0000
     23 H8          2.4596    0.6286   -2.8329 H         1 <0>         0.0000
     24 H9          2.4535    2.4012   -2.6772 H         1 <0>         0.0000
@<TRIPOS>BOND
     1    1    2 2
     2    1   14 1
     3    1   16 1
     4    2    7 1
     5    2    8 1
     6    3    8 2
     7    3    9 1
     8    3   14 1
     9    4    7 1
    10    4   10 2
    11    4   13 1
    12    5   13 1
    13    5   17 1
    14    5   18 1
    15    5   19 1
    16    6   15 1
    17    6   20 1
    18    6   21 1
    19    6   22 1
    20    7   23 1
    21    7   24 1
    22    9   15 1
    23   11   15 2
    24   12   15 2
