@<TRIPOS>MOLECULE
*****
   15    15     0     0     0
SMALL
NO_CHARGES

@<TRIPOS>ATOM
      1 C1          0.7565   -0.4060    0.6326 C.ar      1 <0>         0.0000
      2 C2          2.8767   -1.6057    0.7214 C.ar      1 <0>         0.0000
      3 C3          0.6357   -0.5637    2.0022 C.ar      1 <0>         0.0000
      4 C4          1.8874   -0.9301   -0.0187 C.ar      1 <0>         0.0000
      5 C5          2.6922   -1.7223    2.0811 C.ar      1 <0>         0.0000
      6 N1          1.5999   -1.2196    2.6844 N.ar      1 <0>         0.0000
      7 O1          3.0611   -2.3592    4.5573 O.2       1 <0>         0.0000
      8 O2          4.9561   -1.3706    3.0654 O.3       1 <0>         0.0000
      9 S1          3.8153   -2.5770    3.2939 S.o       1 <0>         0.0000
     10 Cl1         2.0658   -0.7447   -1.7103 Cl        1 <0>         0.0000
     11 H1         -0.0161    0.1155    0.0786 H         1 <0>         0.0000
     12 H2          3.7634   -2.0085    0.2425 H         1 <0>         0.0000
     13 H3         -0.2050   -0.1857    2.5737 H         1 <0>         0.0000
     14 H4          1.5642   -1.3468    3.7115 H         1 <0>         0.0000
     15 H5          5.8110   -1.6510    3.4554 H         1 <0>         0.0000
@<TRIPOS>BOND
     1    1    3 ar
     2    1    4 ar
     3    1   11 1
     4    2    4 ar
     5    2    5 ar
     6    2   12 1
     7    3    6 ar
     8    3   13 1
     9    4   10 1
    10    5    6 ar
    11    5    9 1
    12    6   14 1
    13    7    9 2
    14    8    9 1
    15    8   15 1
