@<TRIPOS>MOLECULE
*****
   25    25     0     0     0
SMALL
NO_CHARGES

@<TRIPOS>ATOM
      1 C1          4.9036    1.5328   -4.9418 C.2       1 <0>         0.0000
      2 C2          4.0792    0.6969   -4.2429 C.2       1 <0>         0.0000
      3 C3          5.7792   -0.6949   -4.5190 C.2       1 <0>         0.0000
      4 C4          1.5846    0.2237   -4.3544 C.2       1 <0>         0.0000
      5 C5          0.7713   -0.7581   -6.3407 C.3       1 <0>         0.0000
      6 C6          9.0860   -1.9731   -5.3132 C.3       1 <0>         0.0000
      7 C7          2.7122    1.0318   -3.7235 C.3       1 <0>         0.0000
      8 N1          4.5926   -0.5658   -3.9991 N.2       1 <0>         0.0000
      9 N2          6.4843   -1.9077   -4.5027 N.pl3     1 <0>         0.0000
     10 O1          0.5866   -0.1322   -3.7607 O.2       1 <0>         0.0000
     11 O2          8.3667   -0.8004   -3.0500 O.2       1 <0>         0.0000
     12 O3          8.1346   -3.3444   -3.2411 O.2       1 <0>         0.0000
     13 O4          1.8056   -0.0118   -5.6657 O.3       1 <0>         0.0000
     14 S1          6.3812    0.7167   -5.3635 S.3       1 <0>         0.0000
     15 S2          8.0763   -2.0043   -3.8244 S.o2      1 <0>         0.0000
     16 H1          4.7416    2.5655   -5.2211 H         1 <0>         0.0000
     17 H2          1.1148   -0.8642   -7.3695 H         1 <0>         0.0000
     18 H3         -0.1763   -0.2156   -6.3031 H         1 <0>         0.0000
     19 H4          0.6444   -1.7367   -5.8724 H         1 <0>         0.0000
     20 H5         10.1234   -2.0595   -4.9852 H         1 <0>         0.0000
     21 H6          8.7995   -2.8179   -5.9389 H         1 <0>         0.0000
     22 H7          8.9265   -1.0236   -5.8252 H         1 <0>         0.0000
     23 H8          2.6538    0.8602   -2.6464 H         1 <0>         0.0000
     24 H9          2.4932    2.0896   -3.9025 H         1 <0>         0.0000
     25 H10         5.9187   -2.6531   -4.0929 H         1 <0>         0.0000
@<TRIPOS>BOND
     1    1    2 2
     2    1   14 1
     3    1   16 1
     4    2    7 1
     5    2    8 1
     6    3    8 2
     7    3    9 1
     8    3   14 1
     9    4    7 1
    10    4   10 2
    11    4   13 1
    12    5   13 1
    13    5   17 1
    14    5   18 1
    15    5   19 1
    16    6   15 1
    17    6   20 1
    18    6   21 1
    19    6   22 1
    20    7   23 1
    21    7   24 1
    22    9   15 1
    23    9   25 1
    24   11   15 2
    25   12   15 2
