@<TRIPOS>MOLECULE
*****
   11    10     0     0     0
SMALL
NO_CHARGES

@<TRIPOS>ATOM
      1 C1         -0.8801    0.5633    0.3584 C.3       1 <0>         0.0000
      2 N1         -1.2742   -0.8009    0.7302 N.3       1 <0>         0.0000
      3 O1          1.7553    0.2280   -0.7016 O.2       1 <0>         0.0000
      4 O2          0.0179    1.8675   -1.8112 O.3       1 <0>         0.0000
      5 P1          0.3195    0.4574   -1.0237 P.3       1 <0>         0.0000
      6 H1         -1.7049    1.2322    0.0748 H         1 <0>         0.0000
      7 H2         -0.3404    1.0344    1.1851 H         1 <0>         0.0000
      8 H3         -2.1031   -1.0939    0.2206 H         1 <0>         0.0000
      9 H4         -1.4857   -0.8616    1.7218 H         1 <0>         0.0000
     10 H5          0.8267    2.2019   -2.2367 H         1 <0>         0.0000
     11 H6         -0.2531   -0.5148   -1.8771 H         1 <0>         0.0000
@<TRIPOS>BOND
     1    1    2 1
     2    1    5 1
     3    1    6 1
     4    1    7 1
     5    2    8 1
     6    2    9 1
     7    3    5 2
     8    4    5 1
     9    4   10 1
    10    5   11 1
