@<TRIPOS>MOLECULE
*****
   22    22     0     0     0
SMALL
NO_CHARGES

@<TRIPOS>ATOM
      1 C1         -0.6863    1.8182    0.4740 C.2       1 <0>         0.0000
      2 C2         -1.5100    0.0732   -1.2227 C.2       1 <0>         0.0000
      3 C3         -0.5315   -0.6885    1.0692 C.3       1 <0>         0.0000
      4 C4         -0.7063    0.3732   -0.0058 C.3       1 <0>         0.0000
      5 C5          0.6386   -0.4285    0.1785 C.3       1 <0>         0.0000
      6 C6          1.8376    0.3344    0.7161 C.3       1 <0>         0.0000
      7 C7          1.0171   -1.4482   -0.8832 C.3       1 <0>         0.0000
      8 N1         -0.7086    2.7808   -0.4904 N.am      1 <0>         0.0000
      9 O1         -0.5844    2.0852    1.6717 O.2       1 <0>         0.0000
     10 O2         -1.6802    0.8290   -2.1721 O.2       1 <0>         0.0000
     11 O3         -2.0759   -1.1616   -1.2206 O.3       1 <0>         0.0000
     12 H1         -0.5020   -0.2901    2.0778 H         1 <0>         0.0000
     13 H2         -1.0882   -1.6091    0.9356 H         1 <0>         0.0000
     14 H3          2.3444    0.8781   -0.0889 H         1 <0>         0.0000
     15 H4          2.5520   -0.3820    1.1374 H         1 <0>         0.0000
     16 H5          1.5653    1.0431    1.4982 H         1 <0>         0.0000
     17 H6          1.4699   -0.9578   -1.7524 H         1 <0>         0.0000
     18 H7          0.1681   -2.0434   -1.2216 H         1 <0>         0.0000
     19 H8          1.7613   -2.1360   -0.4663 H         1 <0>         0.0000
     20 H9         -0.8206    3.7335   -0.1665 H         1 <0>         0.0000
     21 H10        -0.9926    2.5356   -1.4339 H         1 <0>         0.0000
     22 H11        -2.5424   -1.2395   -2.0755 H         1 <0>         0.0000
@<TRIPOS>BOND
     1    1    4 1
     2    1    8 am
     3    1    9 2
     4    2    4 1
     5    2   10 2
     6    2   11 1
     7    3    4 1
     8    3    5 1
     9    3   12 1
    10    3   13 1
    11    4    5 1
    12    5    6 1
    13    5    7 1
    14    6   14 1
    15    6   15 1
    16    6   16 1
    17    7   17 1
    18    7   18 1
    19    7   19 1
    20    8   20 1
    21    8   21 1
    22   11   22 1
