@<TRIPOS>MOLECULE
*****
   20    19     0     0     0
SMALL
NO_CHARGES

@<TRIPOS>ATOM
      1 C1         -1.9351   -0.8145    0.2069 C.2       1 <0>         0.0000
      2 C2          2.2063    1.8858   -1.1777 C.3       1 <0>         0.0000
      3 C3          1.3988   -1.6818    0.6898 C.3       1 <0>         0.0000
      4 C4         -3.0630   -0.4284    1.2343 C.3       1 <0>         0.0000
      5 N1         -0.9585    0.1411    0.0711 N.am      1 <0>         0.0000
      6 O1         -1.9333   -1.8902   -0.3483 O.2       1 <0>         0.0000
      7 O2          0.0481    0.1582   -2.4755 O.2       1 <0>         0.0000
      8 O3          1.1827    1.2429   -0.3745 O.3       1 <0>         0.0000
      9 O4          1.1107   -1.3172   -0.6782 O.3       1 <0>         0.0000
     10 P1          0.3464    0.0331   -1.0407 P.3       1 <0>         0.0000
     11 Cl1        -3.7127    1.2156    0.8557 Cl        1 <0>         0.0000
     12 Cl2        -4.3713   -1.6172    1.1886 Cl        1 <0>         0.0000
     13 Cl3        -2.3012   -0.4057    2.8784 Cl        1 <0>         0.0000
     14 H1          2.5408    2.7478   -0.6011 H         1 <0>         0.0000
     15 H2          1.7888    2.2023   -2.1354 H         1 <0>         0.0000
     16 H3          3.0411    1.1991   -1.3415 H         1 <0>         0.0000
     17 H4          2.1100   -2.5059    0.6367 H         1 <0>         0.0000
     18 H5          0.4842   -2.0150    1.1853 H         1 <0>         0.0000
     19 H6          1.8407   -0.8407    1.2311 H         1 <0>         0.0000
     20 H7         -1.0770    1.0352    0.5377 H         1 <0>         0.0000
@<TRIPOS>BOND
     1    1    4 1
     2    1    5 am
     3    1    6 2
     4    2    8 1
     5    2   14 1
     6    2   15 1
     7    2   16 1
     8    3    9 1
     9    3   17 1
    10    3   18 1
    11    3   19 1
    12    4   11 1
    13    4   12 1
    14    4   13 1
    15    5   10 1
    16    5   20 1
    17    7   10 2
    18    8   10 1
    19    9   10 1
