@<TRIPOS>MOLECULE
*****
   17    17     0     0     0
SMALL
NO_CHARGES

@<TRIPOS>ATOM
      1 C1          0.7453   -0.9428    1.8037 C.2       1 <0>         0.0000
      2 C2          1.4800    1.2285    0.5052 C.3       1 <0>         0.0000
      3 C3          2.2380   -0.4997   -0.3100 C.3       1 <0>         0.0000
      4 C4          0.9501   -0.2286    0.5090 C.3       1 <0>         0.0000
      5 C5         -0.8953   -2.2967    3.0913 C.3       1 <0>         0.0000
      6 N1         -0.4899   -1.5509    1.9215 N.am      1 <0>         0.0000
      7 O1          1.6411   -0.9467    2.6399 O.2       1 <0>         0.0000
      8 O2          2.5223    0.9120   -0.4466 O.3       1 <0>         0.0000
      9 H1          0.7899    1.9829    0.1171 H         1 <0>         0.0000
     10 H2          1.9037    1.5701    1.4547 H         1 <0>         0.0000
     11 H3          3.0345   -1.0114    0.2391 H         1 <0>         0.0000
     12 H4          2.0903   -0.9815   -1.2805 H         1 <0>         0.0000
     13 H5          0.0616   -0.3047   -0.1541 H         1 <0>         0.0000
     14 H6         -0.6116   -3.3526    2.9701 H         1 <0>         0.0000
     15 H7         -0.3971   -1.8831    3.9805 H         1 <0>         0.0000
     16 H8         -1.9859   -2.2220    3.2139 H         1 <0>         0.0000
     17 H9         -1.1443   -1.4700    1.1490 H         1 <0>         0.0000
@<TRIPOS>BOND
     1    1    4 1
     2    1    6 am
     3    1    7 2
     4    2    4 1
     5    2    8 1
     6    2    9 1
     7    2   10 1
     8    3    4 1
     9    3    8 1
    10    3   11 1
    11    3   12 1
    12    4   13 1
    13    5    6 1
    14    5   14 1
    15    5   15 1
    16    5   16 1
    17    6   17 1
