@<TRIPOS>MOLECULE
*****
   48    50     0     0     0
SMALL
NO_CHARGES

@<TRIPOS>ATOM
      1 C1         -9.5575    8.3892   -3.8010 C.ar      1 <0>         0.0000
      2 C2         -8.3127    8.7926   -3.2480 C.ar      1 <0>         0.0000
      3 C3         -3.6659    0.2253   -0.3160 C.ar      1 <0>         0.0000
      4 C4         -9.8966    7.0535   -3.8475 C.ar      1 <0>         0.0000
      5 C5         -9.2901    4.6782   -3.3601 C.ar      1 <0>         0.0000
      6 C6         -7.4283    7.8582   -2.7513 C.ar      1 <0>         0.0000
      7 C7         -4.1515   -1.0795   -0.3478 C.ar      1 <0>         0.0000
      8 C8         -4.4240    1.3095   -0.7763 C.ar      1 <0>         0.0000
      9 C9         -8.3721    3.7866   -2.8516 C.ar      1 <0>         0.0000
     10 C10        -6.2289   -0.2335   -1.2849 C.ar      1 <0>         0.0000
     11 C11        -9.0052    6.0677   -3.3434 C.ar      1 <0>         0.0000
     12 C12        -7.7506    6.4741   -2.7860 C.ar      1 <0>         0.0000
     13 C13        -5.4520   -1.3026   -0.8323 C.ar      1 <0>         0.0000
     14 C14        -5.7116    1.0697   -1.2730 C.ar      1 <0>         0.0000
     15 C15        -7.1561    4.2938   -2.3201 C.ar      1 <0>         0.0000
     16 C16        -7.6287   -3.3113    5.5232 C.3       1 <0>         0.0000
     17 C17        -6.0881    3.3844   -1.7524 C.3       1 <0>         0.0000
     18 C18        -7.5610   -2.5624    4.1878 C.3       1 <0>         0.0000
     19 C19        -6.8802   -3.3915    3.0899 C.3       1 <0>         0.0000
     20 C20        -6.8217   -2.6266    1.7672 C.3       1 <0>         0.0000
     21 N1         -6.8518    5.5782   -2.2847 N.ar      1 <0>         0.0000
     22 N2         -5.9850   -2.6213   -0.8975 N.pl3     1 <0>         0.0000
     23 O1         -6.9213   -4.7203    0.0985 O.2       1 <0>         0.0000
     24 O2         -4.6440   -3.8756    0.8955 O.2       1 <0>         0.0000
     25 O3         -6.5525    2.0367   -1.7534 O.3       1 <0>         0.0000
     26 S1         -6.0233   -3.6261    0.4771 S.o2      1 <0>         0.0000
     27 H1        -10.2415    9.1400   -4.1877 H         1 <0>         0.0000
     28 H2         -8.0590    9.8491   -3.2183 H         1 <0>         0.0000
     29 H3         -2.6625    0.4071    0.0596 H         1 <0>         0.0000
     30 H4        -10.8484    6.7390   -4.2700 H         1 <0>         0.0000
     31 H5        -10.2328    4.3286   -3.7758 H         1 <0>         0.0000
     32 H6         -6.4722    8.1475   -2.3249 H         1 <0>         0.0000
     33 H7         -3.5488   -1.9152   -0.0129 H         1 <0>         0.0000
     34 H8         -4.0055    2.3082   -0.7486 H         1 <0>         0.0000
     35 H9         -8.5534    2.7184   -2.8472 H         1 <0>         0.0000
     36 H10        -7.2401   -0.3891   -1.6527 H         1 <0>         0.0000
     37 H11        -6.6261   -3.5664    5.8837 H         1 <0>         0.0000
     38 H12        -8.1171   -2.7042    6.2924 H         1 <0>         0.0000
     39 H13        -8.1937   -4.2448    5.4240 H         1 <0>         0.0000
     40 H14        -5.1793    3.4756   -2.3607 H         1 <0>         0.0000
     41 H15        -5.8480    3.7090   -0.7327 H         1 <0>         0.0000
     42 H16        -8.5751   -2.2924    3.8662 H         1 <0>         0.0000
     43 H17        -7.0170   -1.6187    4.3223 H         1 <0>         0.0000
     44 H18        -7.4251   -4.3302    2.9433 H         1 <0>         0.0000
     45 H19        -5.8630   -3.6536    3.3983 H         1 <0>         0.0000
     46 H20        -7.8188   -2.3850    1.3877 H         1 <0>         0.0000
     47 H21        -6.2339   -1.7085    1.8502 H         1 <0>         0.0000
     48 H22        -6.8692   -2.7027   -1.3944 H         1 <0>         0.0000
@<TRIPOS>BOND
     1    1    2 ar
     2    1    4 ar
     3    1   27 1
     4    2    6 ar
     5    2   28 1
     6    3    7 ar
     7    3    8 ar
     8    3   29 1
     9    4   11 ar
    10    4   30 1
    11    5    9 ar
    12    5   11 ar
    13    5   31 1
    14    6   12 ar
    15    6   32 1
    16    7   13 ar
    17    7   33 1
    18    8   14 ar
    19    8   34 1
    20    9   15 ar
    21    9   35 1
    22   10   13 ar
    23   10   14 ar
    24   10   36 1
    25   11   12 ar
    26   12   21 ar
    27   13   22 1
    28   14   25 1
    29   15   17 1
    30   15   21 ar
    31   16   18 1
    32   16   37 1
    33   16   38 1
    34   16   39 1
    35   17   25 1
    36   17   40 1
    37   17   41 1
    38   18   19 1
    39   18   42 1
    40   18   43 1
    41   19   20 1
    42   19   44 1
    43   19   45 1
    44   20   26 1
    45   20   46 1
    46   20   47 1
    47   22   26 1
    48   22   48 1
    49   23   26 2
    50   24   26 2
