@<TRIPOS>MOLECULE
*****
   52    55     0     0     0
SMALL
NO_CHARGES

@<TRIPOS>ATOM
      1 C1         -0.2523   -2.4317   -6.9741 C.ar      1 <0>         0.0000
      2 C2          0.3430   -3.0810   -5.8868 C.ar      1 <0>         0.0000
      3 C3         -1.4185   -1.6808   -6.7914 C.ar      1 <0>         0.0000
      4 C4         -0.2243   -2.9744   -4.6150 C.ar      1 <0>         0.0000
      5 C5         -1.9865   -1.5728   -5.5196 C.ar      1 <0>         0.0000
      6 C6         -2.0464    1.9437   -1.2589 C.ar      1 <0>         0.0000
      7 C7         -0.7473    3.5386    0.0141 C.ar      1 <0>         0.0000
      8 C8         -1.3780    0.8909   -0.6085 C.ar      1 <0>         0.0000
      9 C9         -1.3910   -2.2179   -4.4255 C.ar      1 <0>         0.0000
     10 C10        -0.0838    2.5134    0.6846 C.ar      1 <0>         0.0000
     11 C11        -0.4043    1.1768    0.3587 C.ar      1 <0>         0.0000
     12 C12        -1.7216    3.2578   -0.9546 C.ar      1 <0>         0.0000
     13 C13         3.1489   -1.8498    1.0772 C.3       1 <0>         0.0000
     14 C14         2.7784   -0.9072   -0.0720 C.3       1 <0>         0.0000
     15 C15         2.1212   -1.7519    2.2096 C.3       1 <0>         0.0000
     16 C16         1.3554   -1.1694   -0.5911 C.3       1 <0>         0.0000
     17 C17         0.7047   -2.0357    1.6965 C.3       1 <0>         0.0000
     18 C18        -1.1219   -1.5177    0.0626 C.3       1 <0>         0.0000
     19 C19        -1.7419   -0.5333   -0.9264 C.3       1 <0>         0.0000
     20 C20         0.2918   -1.1307    0.5278 C.3       1 <0>         0.0000
     21 C21         0.9537    2.7954    1.7398 C.3       1 <0>         0.0000
     22 C22        -1.9614   -2.0493   -3.0459 C.3       1 <0>         0.0000
     23 N1         -1.3141   -0.8454   -2.3759 N.4       1 <0>         0.0000
     24 O1          0.2513    0.2142    1.0700 O.3       1 <0>         0.0000
     25 Cl1        -2.5437    4.5690   -1.7656 Cl        1 <0>         0.0000
     26 H1          0.1857   -2.5200   -7.9640 H         1 <0>         0.0000
     27 H2          1.2398   -3.6759   -6.0320 H         1 <0>         0.0000
     28 H3         -1.8883   -1.1885   -7.6377 H         1 <0>         0.0000
     29 H4          0.2307   -3.4977   -3.7756 H         1 <0>         0.0000
     30 H5         -2.9046   -1.0034   -5.3861 H         1 <0>         0.0000
     31 H6         -2.8426    1.7393   -1.9726 H         1 <0>         0.0000
     32 H7         -0.5112    4.5727    0.2466 H         1 <0>         0.0000
     33 H8          4.1494   -1.6071    1.4488 H         1 <0>         0.0000
     34 H9          3.1933   -2.8833    0.7070 H         1 <0>         0.0000
     35 H10         2.8404    0.1311    0.2717 H         1 <0>         0.0000
     36 H11         3.4850   -1.0084   -0.9022 H         1 <0>         0.0000
     37 H12         2.3605   -2.4606    3.0086 H         1 <0>         0.0000
     38 H13         2.1522   -0.7509    2.6530 H         1 <0>         0.0000
     39 H14         1.1368   -0.4059   -1.3501 H         1 <0>         0.0000
     40 H15         1.3161   -2.1559   -1.0752 H         1 <0>         0.0000
     41 H16         0.6414   -3.0765    1.3534 H         1 <0>         0.0000
     42 H17        -0.0280   -1.9168    2.5014 H         1 <0>         0.0000
     43 H18        -1.7731   -1.5294    0.9420 H         1 <0>         0.0000
     44 H19        -1.1173   -2.5385   -0.3300 H         1 <0>         0.0000
     45 H20        -2.8287   -0.6552   -0.9490 H         1 <0>         0.0000
     46 H21         0.6490    2.3811    2.7060 H         1 <0>         0.0000
     47 H22         1.9099    2.3285    1.4832 H         1 <0>         0.0000
     48 H23         1.1113    3.8691    1.8569 H         1 <0>         0.0000
     49 H24        -3.0355   -1.8540   -3.0527 H         1 <0>         0.0000
     50 H25        -1.7638   -2.9095   -2.4061 H         1 <0>         0.0000
     51 H26        -1.5024   -0.0157   -2.9515 H         1 <0>         0.0000
     52 H27        -0.2944   -0.9618   -2.4041 H         1 <0>         0.0000
@<TRIPOS>BOND
     1    1    3 ar
     2    1    2 ar
     3    1   26 1
     4    2    4 ar
     5    2   27 1
     6    3    5 ar
     7    3   28 1
     8    4    9 ar
     9    4   29 1
    10    5    9 ar
    11    5   30 1
    12    6    8 ar
    13    6   12 ar
    14    6   31 1
    15    7   10 ar
    16    7   12 ar
    17    7   32 1
    18    8   11 ar
    19    8   19 1
    20    9   22 1
    21   10   11 ar
    22   10   21 1
    23   11   24 1
    24   12   25 1
    25   13   15 1
    26   13   14 1
    27   13   33 1
    28   13   34 1
    29   14   16 1
    30   14   35 1
    31   14   36 1
    32   15   17 1
    33   15   37 1
    34   15   38 1
    35   16   20 1
    36   16   39 1
    37   16   40 1
    38   17   20 1
    39   17   41 1
    40   17   42 1
    41   18   19 1
    42   18   20 1
    43   18   43 1
    44   18   44 1
    45   19   23 1
    46   19   45 1
    47   20   24 1
    48   21   46 1
    49   21   47 1
    50   21   48 1
    51   22   23 1
    52   22   49 1
    53   22   50 1
    54   23   51 1
    55   23   52 1
