@<TRIPOS>MOLECULE
*****
   54    56     0     0     0
SMALL
NO_CHARGES

@<TRIPOS>ATOM
      1 C1         -0.5738  -10.4494    4.0342 C.ar      1 <0>         0.0000
      2 C2         -1.1616  -10.0547    5.2579 C.ar      1 <0>         0.0000
      3 C3         -0.3972   -9.5248    3.0241 C.ar      1 <0>         0.0000
      4 C4         -1.5399   -8.7427    5.4537 C.ar      1 <0>         0.0000
      5 C5         -0.3768   -7.6613   -2.5911 C.ar      1 <0>         0.0000
      6 C6          1.7538   -7.9151   -1.5063 C.ar      1 <0>         0.0000
      7 C7         -0.9975   -5.8853    2.3524 C.ar      1 <0>         0.0000
      8 C8          0.1056   -8.3344   -3.7115 C.ar      1 <0>         0.0000
      9 C9          2.2553   -8.5951   -2.6201 C.ar      1 <0>         0.0000
     10 C10        -1.5209   -5.4811    3.6014 C.ar      1 <0>         0.0000
     11 C11        -0.7997   -8.1710    3.1783 C.ar      1 <0>         0.0000
     12 C12        -1.3651   -7.7671    4.4349 C.ar      1 <0>         0.0000
     13 C13         0.4387   -7.4371   -1.4720 C.ar      1 <0>         0.0000
     14 C14        -0.6456   -7.2077    2.1154 C.ar      1 <0>         0.0000
     15 C15         1.4268   -8.8065   -3.7336 C.ar      1 <0>         0.0000
     16 C16        -1.7139   -6.3946    4.6088 C.ar      1 <0>         0.0000
     17 C17         4.5415  -11.8565   -8.9084 C.3       1 <0>         0.0000
     18 C18         6.0449  -13.1854   -5.7378 C.3       1 <0>         0.0000
     19 C19        -0.0879   -6.7190   -0.2517 C.3       1 <0>         0.0000
     20 C20         5.2269  -11.0895   -7.7644 C.3       1 <0>         0.0000
     21 C21         4.6403  -12.6049   -5.9034 C.3       1 <0>         0.0000
     22 C22         3.3100  -10.6171   -6.3152 C.3       1 <0>         0.0000
     23 C23         3.1495   -9.9596   -4.9472 C.3       1 <0>         0.0000
     24 N1         -0.1109   -7.6242    0.8970 N.pl3     1 <0>         0.0000
     25 N2          4.6326  -11.2343   -6.4296 N.3       1 <0>         0.0000
     26 O1          1.8126   -9.4548   -4.8729 O.3       1 <0>         0.0000
     27 Cl1        -2.4025   -5.8379    6.1345 Cl        1 <0>         0.0000
     28 H1         -0.2507  -11.4772    3.8929 H         1 <0>         0.0000
     29 H2         -1.3035  -10.7841    6.0510 H         1 <0>         0.0000
     30 H3          0.0911   -9.8418    2.1079 H         1 <0>         0.0000
     31 H4         -1.9752   -8.4382    6.3990 H         1 <0>         0.0000
     32 H5         -1.4043   -7.3038   -2.5881 H         1 <0>         0.0000
     33 H6          2.3994   -7.7570   -0.6455 H         1 <0>         0.0000
     34 H7         -0.8911   -5.1375    1.5757 H         1 <0>         0.0000
     35 H8         -0.5237   -8.5071   -4.5797 H         1 <0>         0.0000
     36 H9          3.2807   -8.9462   -2.6117 H         1 <0>         0.0000
     37 H10        -1.7894   -4.4407    3.7555 H         1 <0>         0.0000
     38 H11         4.5893  -12.9400   -8.7595 H         1 <0>         0.0000
     39 H12         3.4870  -11.5766   -9.0053 H         1 <0>         0.0000
     40 H13         5.0357  -11.6316   -9.8600 H         1 <0>         0.0000
     41 H14         6.5342  -13.3681   -6.6993 H         1 <0>         0.0000
     42 H15         6.6752  -12.5044   -5.1570 H         1 <0>         0.0000
     43 H16         5.9923  -14.1441   -5.2113 H         1 <0>         0.0000
     44 H17         0.5609   -5.8705   -0.0038 H         1 <0>         0.0000
     45 H18        -1.0864   -6.3069   -0.4655 H         1 <0>         0.0000
     46 H19         5.2341  -10.0192   -7.9983 H         1 <0>         0.0000
     47 H20         6.2778  -11.3885   -7.7043 H         1 <0>         0.0000
     48 H21         4.1599  -12.5785   -4.9199 H         1 <0>         0.0000
     49 H22         4.0273  -13.2858   -6.5216 H         1 <0>         0.0000
     50 H23         2.4866  -11.3330   -6.4715 H         1 <0>         0.0000
     51 H24         3.2001   -9.8419   -7.0793 H         1 <0>         0.0000
     52 H25         3.8756   -9.1449   -4.8405 H         1 <0>         0.0000
     53 H26         3.3214  -10.6825   -4.1402 H         1 <0>         0.0000
     54 H27        -0.3652   -8.5676    0.6307 H         1 <0>         0.0000
@<TRIPOS>BOND
     1    1    2 ar
     2    1    3 ar
     3    1   28 1
     4    2    4 ar
     5    2   29 1
     6    3   11 ar
     7    3   30 1
     8    4   12 ar
     9    4   31 1
    10    5    8 ar
    11    5   13 ar
    12    5   32 1
    13    6    9 ar
    14    6   13 ar
    15    6   33 1
    16    7   10 ar
    17    7   14 ar
    18    7   34 1
    19    8   15 ar
    20    8   35 1
    21    9   15 ar
    22    9   36 1
    23   10   16 ar
    24   10   37 1
    25   11   12 ar
    26   11   14 ar
    27   12   16 ar
    28   13   19 1
    29   14   24 1
    30   15   26 1
    31   16   27 1
    32   17   20 1
    33   17   38 1
    34   17   39 1
    35   17   40 1
    36   18   21 1
    37   18   41 1
    38   18   42 1
    39   18   43 1
    40   19   24 1
    41   19   44 1
    42   19   45 1
    43   20   25 1
    44   20   46 1
    45   20   47 1
    46   21   25 1
    47   21   48 1
    48   21   49 1
    49   22   23 1
    50   22   25 1
    51   22   50 1
    52   22   51 1
    53   23   26 1
    54   23   52 1
    55   23   53 1
    56   24   54 1
