@<TRIPOS>MOLECULE
*****
   45    47     0     0     0
SMALL
NO_CHARGES

@<TRIPOS>ATOM
      1 C1          4.2541   -7.0030   -6.0121 C.ar      1 <0>         0.0000
      2 C2          3.3007   -7.7608   -5.3234 C.ar      1 <0>         0.0000
      3 C3          4.1873   -5.6064   -5.9639 C.ar      1 <0>         0.0000
      4 C4          2.2915   -7.1284   -4.5940 C.ar      1 <0>         0.0000
      5 C5          3.1777   -4.9754   -5.2336 C.ar      1 <0>         0.0000
      6 C6          0.5069   -3.9012   -4.2443 C.ar      1 <0>         0.0000
      7 C7          0.7091   -5.5613   -2.5259 C.ar      1 <0>         0.0000
      8 C8         -0.5109   -3.2799   -3.5180 C.ar      1 <0>         0.0000
      9 C9         -0.3050   -4.9354   -1.8062 C.ar      1 <0>         0.0000
     10 C10         2.2139   -5.7254   -4.5365 C.ar      1 <0>         0.0000
     11 C11         1.1408   -5.0561   -3.7632 C.ar      1 <0>         0.0000
     12 C12        -0.9383   -3.7742   -2.2773 C.ar      1 <0>         0.0000
     13 C13        -3.4245   -5.6899   -3.5458 C.2       1 <0>         0.0000
     14 C14        -1.1310   -0.6027   -0.2248 C.3       1 <0>         0.0000
     15 C15        -1.4779   -0.6684   -1.7177 C.3       1 <0>         0.0000
     16 C16        -0.7104   -1.9806    0.3017 C.3       1 <0>         0.0000
     17 C17        -2.5204   -1.7613   -2.0029 C.3       1 <0>         0.0000
     18 C18        -1.7873   -3.0328    0.0133 C.3       1 <0>         0.0000
     19 C19        -2.1108   -3.1655   -1.4966 C.3       1 <0>         0.0000
     20 C20        -3.3231   -4.1297   -1.6219 C.3       1 <0>         0.0000
     21 N1         -3.6771   -4.4667   -2.9928 N.am      1 <0>         0.0000
     22 O1         -2.9969   -6.6671   -2.9448 O.2       1 <0>         0.0000
     23 H1          5.0397   -7.4950   -6.5797 H         1 <0>         0.0000
     24 H2          3.3367   -8.8466   -5.3626 H         1 <0>         0.0000
     25 H3          4.9283   -5.0076   -6.4877 H         1 <0>         0.0000
     26 H4          1.5386   -7.7263   -4.0876 H         1 <0>         0.0000
     27 H5          3.1514   -3.8901   -5.1805 H         1 <0>         0.0000
     28 H6          0.7888   -3.4990   -5.2141 H         1 <0>         0.0000
     29 H7          1.1793   -6.4508   -2.1155 H         1 <0>         0.0000
     30 H8         -0.9766   -2.4005   -3.9494 H         1 <0>         0.0000
     31 H9         -0.6147   -5.3820   -0.8668 H         1 <0>         0.0000
     32 H10        -3.6716   -5.7158   -4.6243 H         1 <0>         0.0000
     33 H11        -2.0082   -0.2538    0.3382 H         1 <0>         0.0000
     34 H12        -0.3352    0.1316   -0.0544 H         1 <0>         0.0000
     35 H13        -1.8628    0.2991   -2.0616 H         1 <0>         0.0000
     36 H14        -0.5634   -0.8640   -2.2876 H         1 <0>         0.0000
     37 H15         0.2313   -2.2850   -0.1712 H         1 <0>         0.0000
     38 H16        -0.5225   -1.9333    1.3806 H         1 <0>         0.0000
     39 H17        -3.4535   -1.4885   -1.4913 H         1 <0>         0.0000
     40 H18        -2.7598   -1.7801   -3.0726 H         1 <0>         0.0000
     41 H19        -1.4908   -4.0006    0.4278 H         1 <0>         0.0000
     42 H20        -2.7118   -2.7491    0.5354 H         1 <0>         0.0000
     43 H21        -4.1914   -3.6829   -1.1223 H         1 <0>         0.0000
     44 H22        -3.1023   -5.0758   -1.1251 H         1 <0>         0.0000
     45 H23        -3.9672   -3.7272   -3.6190 H         1 <0>         0.0000
@<TRIPOS>BOND
     1    1    3 ar
     2    1    2 ar
     3    1   23 1
     4    2    4 ar
     5    2   24 1
     6    3    5 ar
     7    3   25 1
     8    4   10 ar
     9    4   26 1
    10    5   10 ar
    11    5   27 1
    12    6    8 ar
    13    6   11 ar
    14    6   28 1
    15    7    9 ar
    16    7   11 ar
    17    7   29 1
    18    8   12 ar
    19    8   30 1
    20    9   12 ar
    21    9   31 1
    22   10   11 1
    23   12   19 1
    24   13   21 am
    25   13   22 2
    26   13   32 1
    27   14   16 1
    28   14   15 1
    29   14   33 1
    30   14   34 1
    31   15   17 1
    32   15   35 1
    33   15   36 1
    34   16   18 1
    35   16   37 1
    36   16   38 1
    37   17   19 1
    38   17   39 1
    39   17   40 1
    40   18   19 1
    41   18   41 1
    42   18   42 1
    43   19   20 1
    44   20   21 1
    45   20   43 1
    46   20   44 1
    47   21   45 1
