@<TRIPOS>MOLECULE
*****
   48    50     0     0     0
SMALL
NO_CHARGES

@<TRIPOS>ATOM
      1 C1         -9.5161    8.4705   -2.5012 C.ar      1 <0>         0.0000
      2 C2         -8.2269    8.6122   -3.0807 C.ar      1 <0>         0.0000
      3 C3         -3.7667   -0.4944   -2.1913 C.ar      1 <0>         0.0000
      4 C4         -9.9091    7.2608   -1.9688 C.ar      1 <0>         0.0000
      5 C5         -9.3689    4.8730   -1.4651 C.ar      1 <0>         0.0000
      6 C6         -7.3525    7.5462   -3.1194 C.ar      1 <0>         0.0000
      7 C7         -4.3109   -1.6824   -1.7095 C.ar      1 <0>         0.0000
      8 C8         -4.5030    0.6966   -2.2275 C.ar      1 <0>         0.0000
      9 C9         -8.4589    3.8415   -1.5290 C.ar      1 <0>         0.0000
     10 C10        -6.4025   -0.5088   -1.3132 C.ar      1 <0>         0.0000
     11 C11        -9.0294    6.1446   -1.9941 C.ar      1 <0>         0.0000
     12 C12        -7.7300    6.2872   -2.5781 C.ar      1 <0>         0.0000
     13 C13        -5.6473   -1.6833   -1.2741 C.ar      1 <0>         0.0000
     14 C14        -5.8282    0.6846   -1.7739 C.ar      1 <0>         0.0000
     15 C15        -7.1956    4.0876   -2.1306 C.ar      1 <0>         0.0000
     16 C16        -7.5224   -5.8909   -6.5599 C.3       1 <0>         0.0000
     17 C17        -6.1333    3.0145   -2.2312 C.3       1 <0>         0.0000
     18 C18        -7.5030   -4.6969   -5.5993 C.3       1 <0>         0.0000
     19 C19        -6.9272   -5.0653   -4.2249 C.3       1 <0>         0.0000
     20 C20        -6.9153   -3.8611   -3.2829 C.3       1 <0>         0.0000
     21 N1         -6.8396    5.2547   -2.6351 N.ar      1 <0>         0.0000
     22 N2         -6.2414   -2.8707   -0.7597 N.pl3     1 <0>         0.0000
     23 O1         -4.8516   -4.7311   -1.8522 O.2       1 <0>         0.0000
     24 O2         -7.2081   -5.1725   -0.9651 O.2       1 <0>         0.0000
     25 O3         -6.6535    1.7761   -1.7538 O.3       1 <0>         0.0000
     26 S1         -6.2412   -4.3173   -1.6586 S.o2      1 <0>         0.0000
     27 H1        -10.1913    9.3217   -2.4798 H         1 <0>         0.0000
     28 H2         -7.9308    9.5718   -3.4964 H         1 <0>         0.0000
     29 H3         -2.7350   -0.4855   -2.5324 H         1 <0>         0.0000
     30 H4        -10.8951    7.1468   -1.5237 H         1 <0>         0.0000
     31 H5        -10.3468    4.7238   -1.0121 H         1 <0>         0.0000
     32 H6         -6.3630    7.6355   -3.5582 H         1 <0>         0.0000
     33 H7         -3.7263   -2.5934   -1.6619 H         1 <0>         0.0000
     34 H8         -4.0397    1.6038   -2.5959 H         1 <0>         0.0000
     35 H9         -8.6814    2.8567   -1.1359 H         1 <0>         0.0000
     36 H10        -7.4405   -0.4963   -0.9899 H         1 <0>         0.0000
     37 H11        -8.1334   -6.7084   -6.1612 H         1 <0>         0.0000
     38 H12        -7.9354   -5.6081   -7.5336 H         1 <0>         0.0000
     39 H13        -6.5120   -6.2810   -6.7247 H         1 <0>         0.0000
     40 H14        -5.8165    2.9226   -3.2770 H         1 <0>         0.0000
     41 H15        -5.2612    3.3164   -1.6373 H         1 <0>         0.0000
     42 H16        -6.9109   -3.8826   -6.0363 H         1 <0>         0.0000
     43 H17        -8.5220   -4.3078   -5.4763 H         1 <0>         0.0000
     44 H18        -5.9058   -5.4426   -4.3383 H         1 <0>         0.0000
     45 H19        -7.5210   -5.8703   -3.7786 H         1 <0>         0.0000
     46 H20        -6.2837   -3.0520   -3.6597 H         1 <0>         0.0000
     47 H21        -7.9219   -3.4766   -3.0945 H         1 <0>         0.0000
     48 H22        -7.1571   -2.7428   -0.3349 H         1 <0>         0.0000
@<TRIPOS>BOND
     1    1    2 ar
     2    1    4 ar
     3    1   27 1
     4    2    6 ar
     5    2   28 1
     6    3    7 ar
     7    3    8 ar
     8    3   29 1
     9    4   11 ar
    10    4   30 1
    11    5    9 ar
    12    5   11 ar
    13    5   31 1
    14    6   12 ar
    15    6   32 1
    16    7   13 ar
    17    7   33 1
    18    8   14 ar
    19    8   34 1
    20    9   15 ar
    21    9   35 1
    22   10   13 ar
    23   10   14 ar
    24   10   36 1
    25   11   12 ar
    26   12   21 ar
    27   13   22 1
    28   14   25 1
    29   15   17 1
    30   15   21 ar
    31   16   18 1
    32   16   37 1
    33   16   38 1
    34   16   39 1
    35   17   25 1
    36   17   40 1
    37   17   41 1
    38   18   19 1
    39   18   42 1
    40   18   43 1
    41   19   20 1
    42   19   44 1
    43   19   45 1
    44   20   26 1
    45   20   46 1
    46   20   47 1
    47   22   26 1
    48   22   48 1
    49   23   26 2
    50   24   26 2
