@<TRIPOS>MOLECULE
*****
   66    69     0     0     0
SMALL
NO_CHARGES

@<TRIPOS>ATOM
      1 C1          2.1815    8.3190    1.3917 C.ar      1 <0>         0.0000
      2 C2          2.8169    3.1763    2.7709 C.ar      1 <0>         0.0000
      3 C3          5.1990    3.3765    3.1971 C.ar      1 <0>         0.0000
      4 C4          2.9058    1.8042    2.9790 C.ar      1 <0>         0.0000
      5 C5          5.2851    2.0050    3.4096 C.ar      1 <0>         0.0000
      6 C6          3.1035    7.5535    2.1115 C.ar      1 <0>         0.0000
      7 C7          1.2434    7.6988    0.5709 C.ar      1 <0>         0.0000
      8 C8          3.9695    3.9829    2.8630 C.ar      1 <0>         0.0000
      9 C9          4.1368    1.2153    3.2863 C.ar      1 <0>         0.0000
     10 C10         1.2978    6.2818    0.4694 C.ar      1 <0>         0.0000
     11 C11         3.0404    6.1594    1.9840 C.ar      1 <0>         0.0000
     12 C12        -0.5481    7.8095   -1.0666 C.2       1 <0>         0.0000
     13 C13         0.9388    0.9848   -1.4190 C.3       1 <0>         0.0000
     14 C14        -0.5494    1.3199   -1.6348 C.3       1 <0>         0.0000
     15 C15         1.8152    2.1014   -0.8179 C.3       1 <0>         0.0000
     16 C16        -1.2273    2.1406   -0.5229 C.3       1 <0>         0.0000
     17 C17         1.4762    3.5404   -1.2412 C.3       1 <0>         0.0000
     18 C18        -1.0513    3.6615   -0.6731 C.3       1 <0>         0.0000
     19 C19        -0.0783    6.4247   -1.5058 C.3       1 <0>         0.0000
     20 C20         0.3634    4.1686   -0.3723 C.3       1 <0>         0.0000
     21 C21         0.9566    6.5926   -2.6384 C.3       1 <0>         0.0000
     22 C22        -0.1048    9.7723    0.3228 C.3       1 <0>         0.0000
     23 C23         3.4514   -0.9774    0.9439 C.3       1 <0>         0.0000
     24 C24         5.8707   -0.7800    1.3425 C.3       1 <0>         0.0000
     25 N1          2.1701    5.5494    1.1714 N.ar      1 <0>         0.0000
     26 N2          0.2018    8.4013   -0.0756 N.am      1 <0>         0.0000
     27 N3          0.4001    5.6461   -0.3600 N.pl3     1 <0>         0.0000
     28 N4          3.9423    5.3675    2.7032 N.pl3     1 <0>         0.0000
     29 N5          4.5603   -1.1485    1.8898 N.pl3     1 <0>         0.0000
     30 O1         -1.4943    8.3648   -1.6205 O.2       1 <0>         0.0000
     31 O2          5.4520   -0.8584    4.2411 O.2       1 <0>         0.0000
     32 O3          2.9317   -1.0662    3.8234 O.2       1 <0>         0.0000
     33 S1          4.2544   -0.5587    3.4536 S.o2      1 <0>         0.0000
     34 H1          2.1866    9.3978    1.5028 H         1 <0>         0.0000
     35 H2          1.8634    3.6313    2.5461 H         1 <0>         0.0000
     36 H3          6.0933    3.9899    3.2869 H         1 <0>         0.0000
     37 H4          2.0139    1.1871    2.9332 H         1 <0>         0.0000
     38 H5          6.2302    1.5456    3.6810 H         1 <0>         0.0000
     39 H6          3.8229    8.0280    2.7720 H         1 <0>         0.0000
     40 H7          1.0160    0.1051   -0.7678 H         1 <0>         0.0000
     41 H8          1.3564    0.6772   -2.3857 H         1 <0>         0.0000
     42 H9         -0.6697    1.8640   -2.5804 H         1 <0>         0.0000
     43 H10        -1.0894    0.3756   -1.7695 H         1 <0>         0.0000
     44 H11         1.7772    2.0564    0.2755 H         1 <0>         0.0000
     45 H12         2.8595    1.8925   -1.0766 H         1 <0>         0.0000
     46 H13        -2.3035    1.9357   -0.5451 H         1 <0>         0.0000
     47 H14        -0.8778    1.8118    0.4650 H         1 <0>         0.0000
     48 H15         2.3697    4.1576   -1.1188 H         1 <0>         0.0000
     49 H16         1.2034    3.5734   -2.3029 H         1 <0>         0.0000
     50 H17        -1.3501    3.9279   -1.6944 H         1 <0>         0.0000
     51 H18        -1.7427    4.1793    0.0020 H         1 <0>         0.0000
     52 H19        -0.9689    5.9423   -1.9027 H         1 <0>         0.0000
     53 H20         0.5891    3.8900    0.6587 H         1 <0>         0.0000
     54 H21         1.8780    7.0446   -2.2583 H         1 <0>         0.0000
     55 H22         0.5453    7.2393   -3.4190 H         1 <0>         0.0000
     56 H23         1.2063    5.6280   -3.0838 H         1 <0>         0.0000
     57 H24         0.6962   10.4568    0.0218 H         1 <0>         0.0000
     58 H25        -0.2359    9.8276    1.4078 H         1 <0>         0.0000
     59 H26        -1.0266   10.0660   -0.1763 H         1 <0>         0.0000
     60 H27         2.5217   -1.3005    1.4119 H         1 <0>         0.0000
     61 H28         3.6453   -1.6173    0.0785 H         1 <0>         0.0000
     62 H29         3.3516    0.0612    0.5976 H         1 <0>         0.0000
     63 H30         6.6421   -0.9696    2.0885 H         1 <0>         0.0000
     64 H31         5.9127    0.2730    1.0237 H         1 <0>         0.0000
     65 H32         6.0627   -1.4162    0.4740 H         1 <0>         0.0000
     66 H33         4.7549    5.8601    3.0487 H         1 <0>         0.0000
@<TRIPOS>BOND
     1    1    6 ar
     2    1    7 ar
     3    1   34 1
     4    2    4 ar
     5    2    8 ar
     6    2   35 1
     7    3    5 ar
     8    3    8 ar
     9    3   36 1
    10    4    9 ar
    11    4   37 1
    12    5    9 ar
    13    5   38 1
    14    6   11 ar
    15    6   39 1
    16    7   10 ar
    17    7   26 1
    18    8   28 1
    19    9   33 1
    20   10   25 ar
    21   10   27 1
    22   11   25 ar
    23   11   28 1
    24   12   19 1
    25   12   26 am
    26   12   30 2
    27   13   14 1
    28   13   15 1
    29   13   40 1
    30   13   41 1
    31   14   16 1
    32   14   42 1
    33   14   43 1
    34   15   17 1
    35   15   44 1
    36   15   45 1
    37   16   18 1
    38   16   46 1
    39   16   47 1
    40   17   20 1
    41   17   48 1
    42   17   49 1
    43   18   20 1
    44   18   50 1
    45   18   51 1
    46   19   21 1
    47   19   27 1
    48   19   52 1
    49   20   27 1
    50   20   53 1
    51   21   54 1
    52   21   55 1
    53   21   56 1
    54   22   26 1
    55   22   57 1
    56   22   58 1
    57   22   59 1
    58   23   29 1
    59   23   60 1
    60   23   61 1
    61   23   62 1
    62   24   29 1
    63   24   63 1
    64   24   64 1
    65   24   65 1
    66   28   66 1
    67   29   33 1
    68   31   33 2
    69   32   33 2
