@<TRIPOS>MOLECULE
*****
   50    52     0     0     0
SMALL
NO_CHARGES

@<TRIPOS>ATOM
      1 C1          2.0469    7.5715   -1.2928 C.ar      1 <0>         0.0000
      2 C2          0.1295    7.0937    0.0728 C.ar      1 <0>         0.0000
      3 C3          2.6945    8.1610   -0.2048 C.ar      1 <0>         0.0000
      4 C4          0.7576    7.6810    1.1730 C.ar      1 <0>         0.0000
      5 C5          0.7592    7.0255   -1.1807 C.ar      1 <0>         0.0000
      6 C6          2.0399    8.2115    1.0260 C.ar      1 <0>         0.0000
      7 C7          0.8068   -0.3079   -4.8483 C.3       1 <0>         0.0000
      8 C8         -0.9911    0.8111   -3.5048 C.3       1 <0>         0.0000
      9 C9          0.2109    2.1118   -5.1401 C.3       1 <0>         0.0000
     10 C10        -1.3775    6.6238   -2.6015 C.3       1 <0>         0.0000
     11 C11         0.1272    6.3665   -2.3842 C.3       1 <0>         0.0000
     12 C12         0.0756   -0.2885   -3.5002 C.3       1 <0>         0.0000
     13 C13         1.3408    1.0799   -5.2231 C.3       1 <0>         0.0000
     14 C14         0.2081    4.8140   -2.4599 C.3       1 <0>         0.0000
     15 C15        -0.8097    4.5735   -3.5877 C.3       1 <0>         0.0000
     16 C16        -0.5390   -1.6504   -3.1634 C.3       1 <0>         0.0000
     17 C17         1.9900    1.0875   -6.6104 C.3       1 <0>         0.0000
     18 C18        -0.1300    4.0918   -1.1537 C.3       1 <0>         0.0000
     19 C19        -1.4230    3.1793   -3.6837 C.3       1 <0>         0.0000
     20 N1         -0.4187    2.1233   -3.8167 N.3       1 <0>         0.0000
     21 O1         -1.8830    5.5043   -3.3436 O.3       1 <0>         0.0000
     22 Cl1         2.8358    8.9561    2.4053 Cl        1 <0>         0.0000
     23 H1          2.5588    7.5374   -2.2521 H         1 <0>         0.0000
     24 H2         -0.8651    6.6813    0.2085 H         1 <0>         0.0000
     25 H3          3.6905    8.5795   -0.3113 H         1 <0>         0.0000
     26 H4          0.2570    7.7268    2.1352 H         1 <0>         0.0000
     27 H5          1.6276   -1.0358   -4.8236 H         1 <0>         0.0000
     28 H6          0.1100   -0.6471   -5.6297 H         1 <0>         0.0000
     29 H7         -1.7890    0.5395   -4.2269 H         1 <0>         0.0000
     30 H8         -1.4619    0.8695   -2.5169 H         1 <0>         0.0000
     31 H9          0.6177    3.1053   -5.3497 H         1 <0>         0.0000
     32 H10        -0.5373    1.8976   -5.9317 H         1 <0>         0.0000
     33 H11        -1.9324    6.6913   -1.6596 H         1 <0>         0.0000
     34 H12        -1.5524    7.5480   -3.1640 H         1 <0>         0.0000
     35 H13         0.6518    6.7421   -3.2702 H         1 <0>         0.0000
     36 H14         0.8040   -0.0272   -2.7208 H         1 <0>         0.0000
     37 H15         2.0955    1.3677   -4.4787 H         1 <0>         0.0000
     38 H16         1.2071    4.5056   -2.7832 H         1 <0>         0.0000
     39 H17        -0.3372    4.8406   -4.5449 H         1 <0>         0.0000
     40 H18        -1.2851   -1.9422   -3.9123 H         1 <0>         0.0000
     41 H19        -1.0342   -1.6364   -2.1857 H         1 <0>         0.0000
     42 H20         0.2288   -2.4315   -3.1381 H         1 <0>         0.0000
     43 H21         1.2634    0.8202   -7.3871 H         1 <0>         0.0000
     44 H22         2.8122    0.3653   -6.6627 H         1 <0>         0.0000
     45 H23         2.3962    2.0750   -6.8583 H         1 <0>         0.0000
     46 H24        -1.1438    4.3201   -0.8082 H         1 <0>         0.0000
     47 H25         0.5665    4.3762   -0.3603 H         1 <0>         0.0000
     48 H26        -0.0540    3.0116   -1.3002 H         1 <0>         0.0000
     49 H27        -2.1516    3.1704   -4.5153 H         1 <0>         0.0000
     50 H28        -1.9931    3.0026   -2.7679 H         1 <0>         0.0000
@<TRIPOS>BOND
     1    1    3 ar
     2    1    5 ar
     3    1   23 1
     4    2    4 ar
     5    2    5 ar
     6    2   24 1
     7    3    6 ar
     8    3   25 1
     9    4    6 ar
    10    4   26 1
    11    5   11 1
    12    6   22 1
    13    7   12 1
    14    7   13 1
    15    7   27 1
    16    7   28 1
    17    8   12 1
    18    8   20 1
    19    8   29 1
    20    8   30 1
    21    9   13 1
    22    9   20 1
    23    9   31 1
    24    9   32 1
    25   10   11 1
    26   10   21 1
    27   10   33 1
    28   10   34 1
    29   11   14 1
    30   11   35 1
    31   12   16 1
    32   12   36 1
    33   13   17 1
    34   13   37 1
    35   14   15 1
    36   14   18 1
    37   14   38 1
    38   15   19 1
    39   15   21 1
    40   15   39 1
    41   16   40 1
    42   16   41 1
    43   16   42 1
    44   17   43 1
    45   17   44 1
    46   17   45 1
    47   18   46 1
    48   18   47 1
    49   18   48 1
    50   19   20 1
    51   19   49 1
    52   19   50 1
