@<TRIPOS>MOLECULE
*****
   28    29     0     0     0
SMALL
NO_CHARGES

@<TRIPOS>ATOM
      1 C1          3.0074   -8.3660    5.5116 C.ar      1 <0>         0.0000
      2 C2          6.8644   -5.0909    5.4954 C.ar      1 <0>         0.0000
      3 C3          3.2277   -7.1630    4.8761 C.ar      1 <0>         0.0000
      4 C4          6.6640   -6.2923    6.1497 C.ar      1 <0>         0.0000
      5 C5          3.9930   -8.9192    6.3701 C.ar      1 <0>         0.0000
      6 C6          5.8989   -4.5427    4.6230 C.ar      1 <0>         0.0000
      7 C7          5.4515   -6.9981    5.9390 C.ar      1 <0>         0.0000
      8 C8          4.4482   -6.4579    5.0705 C.ar      1 <0>         0.0000
      9 C9          5.1812   -8.2468    6.5745 C.ar      1 <0>         0.0000
     10 C10         4.6971   -5.2049    4.4114 C.ar      1 <0>         0.0000
     11 C11         4.3618   -2.5471    2.4427 C.2       1 <0>         0.0000
     12 C12         3.1947   -2.6529    4.7381 C.3       1 <0>         0.0000
     13 C13         3.4104   -3.3544    3.3960 C.3       1 <0>         0.0000
     14 O1          5.4232   -3.0951    2.0515 O.co2     1 <0>         0.0000
     15 O2          3.8932   -1.4046    2.1869 O.co2     1 <0>         0.0000
     16 O3          6.1704   -8.7461    7.4059 O.3       1 <0>         0.0000
     17 O4          3.7065   -4.7779    3.5953 O.3       1 <0>         0.0000
     18 H1          2.0739   -8.9038    5.3619 H         1 <0>         0.0000
     19 H2          7.7991   -4.5514    5.6361 H         1 <0>         0.0000
     20 H3          2.4846   -6.7305    4.2160 H         1 <0>         0.0000
     21 H4          7.4163   -6.7080    6.8112 H         1 <0>         0.0000
     22 H5          3.8108   -9.8719    6.8685 H         1 <0>         0.0000
     23 H6          6.0997   -3.6434    4.0529 H         1 <0>         0.0000
     24 H7          4.1254   -2.5692    5.3073 H         1 <0>         0.0000
     25 H8          2.8304   -1.6445    4.5316 H         1 <0>         0.0000
     26 H9          2.4628   -3.1920    5.3529 H         1 <0>         0.0000
     27 H10         2.4500   -3.4097    2.8768 H         1 <0>         0.0000
     28 H11         5.8564   -9.5920    7.7612 H         1 <0>         0.0000
@<TRIPOS>BOND
     1    1    3 ar
     2    1    5 ar
     3    1   18 1
     4    2    4 ar
     5    2    6 ar
     6    2   19 1
     7    3    8 ar
     8    3   20 1
     9    4    7 ar
    10    4   21 1
    11    5    9 ar
    12    5   22 1
    13    6   10 ar
    14    6   23 1
    15    7    8 ar
    16    7    9 ar
    17    8   10 ar
    18    9   16 1
    19   10   17 1
    20   11   13 1
    21   11   14 1
    22   11   15 2
    23   12   13 1
    24   12   24 1
    25   12   25 1
    26   12   26 1
    27   13   17 1
    28   13   27 1
    29   16   28 1
