@<TRIPOS>MOLECULE
*****
   42    43     0     0     0
SMALL
NO_CHARGES

@<TRIPOS>ATOM
      1 C1          5.4715   -0.2149    5.2988 C.ar      1 <0>         0.0000
      2 C2          5.2407    0.5912    4.1719 C.ar      1 <0>         0.0000
      3 C3          3.0932   -0.4669    5.5844 C.ar      1 <0>         0.0000
      4 C4          4.4050   -0.7472    6.0147 C.ar      1 <0>         0.0000
      5 C5          3.9442    0.8686    3.7447 C.ar      1 <0>         0.0000
      6 C6          2.8483    0.3297    4.4674 C.ar      1 <0>         0.0000
      7 C7         -0.8358    0.0877    2.4988 C.3       1 <0>         0.0000
      8 C8         -0.2045   -1.3290    2.6396 C.3       1 <0>         0.0000
      9 C9         -0.7546    0.7183    3.9061 C.3       1 <0>         0.0000
     10 C10         0.3174   -1.4237    4.0955 C.3       1 <0>         0.0000
     11 C11         0.4466    0.0350    4.5591 C.3       1 <0>         0.0000
     12 C12         4.0294   -1.0108    8.4953 C.3       1 <0>         0.0000
     13 C13         4.6899    2.2011    1.9140 C.3       1 <0>         0.0000
     14 C14         3.9916   -3.0482    6.9781 C.3       1 <0>         0.0000
     15 C15         4.6136   -1.6472    7.2257 C.3       1 <0>         0.0000
     16 N1          4.4942   -3.7628    5.8071 N.3       1 <0>         0.0000
     17 O1          6.0385   -1.8133    7.3873 O.3       1 <0>         0.0000
     18 O2          1.6129    0.6635    3.9946 O.3       1 <0>         0.0000
     19 O3          3.6194    1.6352    2.6592 O.3       1 <0>         0.0000
     20 H1          6.4862   -0.4264    5.6132 H         1 <0>         0.0000
     21 H2          6.0909    0.9932    3.6321 H         1 <0>         0.0000
     22 H3          2.2536   -0.8817    6.1289 H         1 <0>         0.0000
     23 H4         -0.2584    0.6884    1.7917 H         1 <0>         0.0000
     24 H5         -1.8651    0.0501    2.1305 H         1 <0>         0.0000
     25 H6         -0.9256   -2.1240    2.4290 H         1 <0>         0.0000
     26 H7          0.6199   -1.4498    1.9321 H         1 <0>         0.0000
     27 H8         -0.6403    1.8052    3.8916 H         1 <0>         0.0000
     28 H9         -1.6483    0.4784    4.4938 H         1 <0>         0.0000
     29 H10        -0.4126   -1.9266    4.7410 H         1 <0>         0.0000
     30 H11         1.2565   -1.9760    4.1757 H         1 <0>         0.0000
     31 H12         0.4560    0.1548    5.6487 H         1 <0>         0.0000
     32 H13         4.1804   -1.6681    9.3618 H         1 <0>         0.0000
     33 H14         2.9544   -0.8345    8.3981 H         1 <0>         0.0000
     34 H15         4.5179   -0.0524    8.6917 H         1 <0>         0.0000
     35 H16         4.2237    2.7692    1.1076 H         1 <0>         0.0000
     36 H17         5.3359    1.4245    1.4846 H         1 <0>         0.0000
     37 H18         5.2961    2.8766    2.5310 H         1 <0>         0.0000
     38 H19         2.9031   -2.9610    6.8933 H         1 <0>         0.0000
     39 H20         4.1828   -3.6639    7.8678 H         1 <0>         0.0000
     40 H21         5.5137   -3.7547    5.8433 H         1 <0>         0.0000
     41 H22         4.2486   -3.2348    4.9697 H         1 <0>         0.0000
     42 H23         6.1822   -2.2586    8.2376 H         1 <0>         0.0000
@<TRIPOS>BOND
     1    1    2 ar
     2    1    4 ar
     3    1   20 1
     4    2    5 ar
     5    2   21 1
     6    3    4 ar
     7    3    6 ar
     8    3   22 1
     9    4   15 1
    10    5    6 ar
    11    5   19 1
    12    6   18 1
    13    7    8 1
    14    7    9 1
    15    7   23 1
    16    7   24 1
    17    8   10 1
    18    8   25 1
    19    8   26 1
    20    9   11 1
    21    9   27 1
    22    9   28 1
    23   10   11 1
    24   10   29 1
    25   10   30 1
    26   11   18 1
    27   11   31 1
    28   12   15 1
    29   12   32 1
    30   12   33 1
    31   12   34 1
    32   13   19 1
    33   13   35 1
    34   13   36 1
    35   13   37 1
    36   14   15 1
    37   14   16 1
    38   14   38 1
    39   14   39 1
    40   15   17 1
    41   16   40 1
    42   16   41 1
    43   17   42 1
