@<TRIPOS>MOLECULE
*****
   23    23     0     0     0
SMALL
NO_CHARGES

@<TRIPOS>ATOM
      1 C1          3.0586   -4.5049   -0.4339 C.1       1 <0>         0.0000
      2 C2          1.8851   -1.0363   -0.1124 C.ar      1 <0>         0.0000
      3 C3          0.8066   -0.4630    0.5610 C.ar      1 <0>         0.0000
      4 C4          1.7997   -1.0786    2.6757 C.ar      1 <0>         0.0000
      5 C5          2.9210   -1.6309    0.6081 C.ar      1 <0>         0.0000
      6 C6          2.8783   -1.6520    2.0022 C.ar      1 <0>         0.0000
      7 C7          0.7638   -0.4841    1.9551 C.ar      1 <0>         0.0000
      8 C8          3.6598   -3.3570   -1.1311 C.3       1 <0>         0.0000
      9 C9          4.0622   -2.2361   -0.1440 C.3       1 <0>         0.0000
     10 N1          2.5859   -5.4110    0.1154 N.1       1 <0>         0.0000
     11 N2          4.7715   -1.2082   -0.8977 N.3       1 <0>         0.0000
     12 N3          3.9233   -2.2524    2.7574 N.pl3     1 <0>         0.0000
     13 O1          3.8385   -3.4688    3.0486 O.3       1 <0>         0.0000
     14 O2          4.8981   -1.5471    3.1098 O.2       1 <0>         0.0000
     15 F1         -0.2726    0.0655    2.6016 F         1 <0>         0.0000
     16 H1          1.9086   -1.0146   -1.1988 H         1 <0>         0.0000
     17 H2         -0.0003   -0.0005    0.0003 H         1 <0>         0.0000
     18 H3          1.7523   -1.0877    3.7618 H         1 <0>         0.0000
     19 H4          4.5260   -3.6931   -1.7136 H         1 <0>         0.0000
     20 H5          2.9352   -2.9727   -1.8607 H         1 <0>         0.0000
     21 H6          4.7974   -2.6643    0.5611 H         1 <0>         0.0000
     22 H7          5.3130   -1.4920   -1.6861 H         1 <0>         0.0000
     23 H8          4.8592   -0.3018   -0.4898 H         1 <0>         0.0000
@<TRIPOS>BOND
     1    1    8 1
     2    1   10 3
     3    2    3 ar
     4    2    5 ar
     5    2   16 1
     6    3    7 ar
     7    3   17 1
     8    4    6 ar
     9    4    7 ar
    10    4   18 1
    11    5    6 ar
    12    5    9 1
    13    6   12 1
    14    7   15 1
    15    8    9 1
    16    8   19 1
    17    8   20 1
    18    9   11 1
    19    9   21 1
    20   11   22 1
    21   11   23 1
    22   12   13 1
    23   12   14 2
