@<TRIPOS>MOLECULE
*****
   29    30     0     0     0
SMALL
NO_CHARGES

@<TRIPOS>ATOM
      1 C1          1.8834   -1.0351   -0.1125 C.ar      1 <0>         0.0000
      2 C2          1.3602    0.0526    0.5867 C.ar      1 <0>         0.0000
      3 C3          2.3648   -2.1446    0.5824 C.ar      1 <0>         0.0000
      4 C4          1.3183    0.0309    1.9807 C.ar      1 <0>         0.0000
      5 C5          2.3229   -2.1664    1.9765 C.ar      1 <0>         0.0000
      6 C6         -2.5964   -1.8512    5.9126 C.ar      1 <0>         0.0000
      7 C7         -3.4189   -2.2458    6.9678 C.ar      1 <0>         0.0000
      8 C8         -1.5517   -4.0297    5.9122 C.ar      1 <0>         0.0000
      9 C9          1.7997   -1.0786    2.6757 C.ar      1 <0>         0.0000
     10 C10        -1.6629   -2.7432    5.3847 C.ar      1 <0>         0.0000
     11 C11        -3.3077   -3.5323    7.4953 C.ar      1 <0>         0.0000
     12 C12        -2.3741   -4.4243    6.9675 C.ar      1 <0>         0.0000
     13 C13         1.7557   -1.1009    4.1294 C.2       1 <0>         0.0000
     14 C14         0.7411   -1.5886    4.8736 C.2       1 <0>         0.0000
     15 O1         -0.2175   -3.4414    3.3318 O.2       1 <0>         0.0000
     16 O2         -1.3242   -1.1843    3.3398 O.2       1 <0>         0.0000
     17 S1         -0.6196   -2.2412    4.0451 S.o2      1 <0>         0.0000
     18 Cl1        -4.3548   -3.9613    8.8022 Cl        1 <0>         0.0000
     19 Cl2        -2.1891   -6.0311    7.5779 Cl        1 <0>         0.0000
     20 H1          1.9171   -1.0176   -1.1978 H         1 <0>         0.0000
     21 H2          0.9864    0.9171    0.0458 H         1 <0>         0.0000
     22 H3          2.7733   -2.9912    0.0383 H         1 <0>         0.0000
     23 H4          0.9075    0.8865    2.5114 H         1 <0>         0.0000
     24 H5          2.7019   -3.0384    2.5042 H         1 <0>         0.0000
     25 H6         -2.6912   -0.8466    5.5091 H         1 <0>         0.0000
     26 H7         -4.1408   -1.5377    7.3669 H         1 <0>         0.0000
     27 H8         -0.8217   -4.7204    5.4959 H         1 <0>         0.0000
     28 H9          2.6345   -0.6999    4.6481 H         1 <0>         0.0000
     29 H10         0.7388   -1.5800    5.9559 H         1 <0>         0.0000
@<TRIPOS>BOND
     1    1    3 ar
     2    1    2 ar
     3    1   20 1
     4    2    4 ar
     5    2   21 1
     6    3    5 ar
     7    3   22 1
     8    4    9 ar
     9    4   23 1
    10    5    9 ar
    11    5   24 1
    12    6    7 ar
    13    6   10 ar
    14    6   25 1
    15    7   11 ar
    16    7   26 1
    17    8   10 ar
    18    8   12 ar
    19    8   27 1
    20    9   13 1
    21   10   17 1
    22   11   12 ar
    23   11   18 1
    24   12   19 1
    25   13   14 2
    26   13   28 1
    27   14   17 1
    28   14   29 1
    29   15   17 2
    30   16   17 2
