@<TRIPOS>MOLECULE
*****
   13    12     0     0     0
SMALL
NO_CHARGES

@<TRIPOS>ATOM
      1 C1         -0.6243   -5.5451    2.4109 C.2       1 <0>         0.0000
      2 C2          0.0143   -6.8510    2.0423 C.3       1 <0>         0.0000
      3 C3          0.0879   -2.2838    1.3040 C.3       1 <0>         0.0000
      4 N1         -0.5242   -3.2507    2.2032 N.3       1 <0>         0.0000
      5 O1         -1.6262   -5.4512    3.1080 O.2       1 <0>         0.0000
      6 O2          0.0889   -4.5232    1.8504 O.3       1 <0>         0.0000
      7 H1         -0.4231   -7.2181    1.1093 H         1 <0>         0.0000
      8 H2          1.0875   -6.7096    1.8910 H         1 <0>         0.0000
      9 H3         -0.1701   -7.5887    2.8273 H         1 <0>         0.0000
     10 H4         -0.2936   -2.4209    0.2888 H         1 <0>         0.0000
     11 H5          1.1736   -2.4130    1.2924 H         1 <0>         0.0000
     12 H6         -0.1404   -1.2660    1.6313 H         1 <0>         0.0000
     13 H7         -0.1637   -3.1167    3.1473 H         1 <0>         0.0000
@<TRIPOS>BOND
     1    1    2 1
     2    1    5 2
     3    1    6 1
     4    2    7 1
     5    2    8 1
     6    2    9 1
     7    3    4 1
     8    3   10 1
     9    3   11 1
    10    3   12 1
    11    4    6 1
    12    4   13 1
