@<TRIPOS>MOLECULE
*****
   39    39     0     0     0
SMALL
NO_CHARGES

@<TRIPOS>ATOM
      1 C1          9.2504   -2.2370   -2.1117 C.2       1 <0>         0.0000
      2 C2          7.0843   -2.5465   -1.1914 C.2       1 <0>         0.0000
      3 C3         11.6764   -2.3281   -2.3792 C.2       1 <0>         0.0000
      4 C4          1.9810    1.9585    2.5765 C.3       1 <0>         0.0000
      5 C5         10.2233   -1.9642   -4.3320 C.3       1 <0>         0.0000
      6 C6         13.2679   -2.2281   -0.5575 C.3       1 <0>         0.0000
      7 C7         11.3861   -0.6268   -0.5666 C.3       1 <0>         0.0000
      8 C8          2.1415    0.6518    1.7919 C.3       1 <0>         0.0000
      9 C9          3.5928    0.3805    1.3776 C.3       1 <0>         0.0000
     10 C10         3.7506   -0.9217    0.5811 C.3       1 <0>         0.0000
     11 C11         5.2017   -1.1674    0.1768 C.3       1 <0>         0.0000
     12 N1          9.2811   -2.6674   -0.8671 N.2       1 <0>         0.0000
     13 N2          8.0216   -2.8396   -0.3503 N.2       1 <0>         0.0000
     14 N3         10.3669   -1.9540   -2.8684 N.am      1 <0>         0.0000
     15 N4         12.0734   -1.7265   -1.2290 N.am      1 <0>         0.0000
     16 O1         12.3656   -3.1010   -3.0383 O.2       1 <0>         0.0000
     17 O2          4.6353   -2.3710   -2.1821 O.2       1 <0>         0.0000
     18 S1          7.6270   -2.0204   -2.7744 S.3       1 <0>         0.0000
     19 S2          5.3065   -2.6961   -0.8589 S.o       1 <0>         0.0000
     20 H1          2.5779    1.9442    3.4958 H         1 <0>         0.0000
     21 H2          2.3086    2.8192    1.9820 H         1 <0>         0.0000
     22 H3          0.9368    2.1273    2.8596 H         1 <0>         0.0000
     23 H4          9.5164   -1.1849   -4.6317 H         1 <0>         0.0000
     24 H5          9.8791   -2.9363   -4.6998 H         1 <0>         0.0000
     25 H6         11.1942   -1.7508   -4.7740 H         1 <0>         0.0000
     26 H7         14.0540   -1.4635   -0.5510 H         1 <0>         0.0000
     27 H8         13.6334   -3.1082   -1.0829 H         1 <0>         0.0000
     28 H9         13.0225   -2.4921    0.4775 H         1 <0>         0.0000
     29 H10        10.8325   -0.9790    0.3094 H         1 <0>         0.0000
     30 H11        10.6920   -0.1427   -1.2525 H         1 <0>         0.0000
     31 H12        12.1323    0.1114   -0.2529 H         1 <0>         0.0000
     32 H13         1.5103    0.6815    0.8946 H         1 <0>         0.0000
     33 H14         1.7750   -0.1876    2.3969 H         1 <0>         0.0000
     34 H15         4.2268    0.3442    2.2739 H         1 <0>         0.0000
     35 H16         3.9605    1.2210    0.7737 H         1 <0>         0.0000
     36 H17         3.1311   -0.8786   -0.3215 H         1 <0>         0.0000
     37 H18         3.3861   -1.7657    1.1803 H         1 <0>         0.0000
     38 H19         5.8603   -1.3317    1.0358 H         1 <0>         0.0000
     39 H20         5.5970   -0.3528   -0.4381 H         1 <0>         0.0000
@<TRIPOS>BOND
     1    1   12 2
     2    1   14 1
     3    1   18 1
     4    2   13 2
     5    2   18 1
     6    2   19 1
     7    3   14 am
     8    3   15 am
     9    3   16 2
    10    4    8 1
    11    4   20 1
    12    4   21 1
    13    4   22 1
    14    5   14 1
    15    5   23 1
    16    5   24 1
    17    5   25 1
    18    6   15 1
    19    6   26 1
    20    6   27 1
    21    6   28 1
    22    7   15 1
    23    7   29 1
    24    7   30 1
    25    7   31 1
    26    8    9 1
    27    8   32 1
    28    8   33 1
    29    9   10 1
    30    9   34 1
    31    9   35 1
    32   10   11 1
    33   10   36 1
    34   10   37 1
    35   11   19 1
    36   11   38 1
    37   11   39 1
    38   12   13 1
    39   17   19 2
