@<TRIPOS>MOLECULE
*****
   48    48     0     0     0
SMALL
NO_CHARGES

@<TRIPOS>ATOM
      1 C1          1.9410   -0.1972   -0.0199 C.2       1 <0>         0.0000
      2 C2         -0.4322   -1.4320   -2.0563 C.2       1 <0>         0.0000
      3 C3         -0.6288    1.0756    1.4588 C.3       1 <0>         0.0000
      4 C4          0.4139    1.8035   -0.4440 C.3       1 <0>         0.0000
      5 C5         -0.4810   -0.1825    0.6061 C.3       1 <0>         0.0000
      6 C6          0.5385    0.2438   -0.4975 C.3       1 <0>         0.0000
      7 C7          3.9509   -2.3656    0.8253 C.3       1 <0>         0.0000
      8 C8          3.7095   -2.9058   -1.6349 C.3       1 <0>         0.0000
      9 C9          4.7034   -0.6977   -0.9529 C.3       1 <0>         0.0000
     10 C10        -2.1874   -3.5082   -3.6215 C.3       1 <0>         0.0000
     11 C11        -0.7827   -2.5244   -5.4829 C.3       1 <0>         0.0000
     12 C12         0.3449   -3.7455   -3.5976 C.3       1 <0>         0.0000
     13 C13         3.7089   -1.8004   -0.5769 C.3       1 <0>         0.0000
     14 C14        -0.8464   -2.8649   -3.9914 C.3       1 <0>         0.0000
     15 N1          0.2279   -0.2467   -1.8429 N.am      1 <0>         0.0000
     16 O1          0.4305    1.1975   -4.0459 O.3       1 <0>         0.0000
     17 O2          2.5443    0.3731    0.8739 O.2       1 <0>         0.0000
     18 O3         -0.7550   -2.2485   -1.1975 O.2       1 <0>         0.0000
     19 O4          2.2788    1.1857   -2.3738 O.2       1 <0>         0.0000
     20 O5          1.9150   -0.8015   -3.8173 O.2       1 <0>         0.0000
     21 O6         -0.6225    2.1266    0.5100 O.3       1 <0>         0.0000
     22 O7          2.3366   -1.2882   -0.6705 O.3       1 <0>         0.0000
     23 O8         -0.7430   -1.5475   -3.3706 O.3       1 <0>         0.0000
     24 F1         -0.0415   -1.2466    1.3971 F         1 <0>         0.0000
     25 S1          1.3254    0.4010   -3.1941 S.o2      1 <0>         0.0000
     26 H1         -1.5737    1.1071    2.0088 H         1 <0>         0.0000
     27 H2          0.2140    1.1435    2.1616 H         1 <0>         0.0000
     28 H3          1.3609    2.2443   -0.1316 H         1 <0>         0.0000
     29 H4          0.1108    2.2107   -1.4052 H         1 <0>         0.0000
     30 H5         -1.4255   -0.4767    0.1541 H         1 <0>         0.0000
     31 H6          3.9310   -1.5722    1.5742 H         1 <0>         0.0000
     32 H7          3.1800   -3.1024    1.0729 H         1 <0>         0.0000
     33 H8          4.9285   -2.8609    0.8564 H         1 <0>         0.0000
     34 H9          3.4653   -2.4775   -2.6102 H         1 <0>         0.0000
     35 H10         2.9579   -3.6636   -1.3930 H         1 <0>         0.0000
     36 H11         4.6941   -3.3848   -1.6787 H         1 <0>         0.0000
     37 H12         4.3925   -0.2232   -1.8866 H         1 <0>         0.0000
     38 H13         4.7603    0.0684   -0.1782 H         1 <0>         0.0000
     39 H14         5.6964   -1.1432   -1.0852 H         1 <0>         0.0000
     40 H15        -2.2300   -3.7128   -2.5503 H         1 <0>         0.0000
     41 H16        -3.0119   -2.8368   -3.8847 H         1 <0>         0.0000
     42 H17        -2.3167   -4.4470   -4.1736 H         1 <0>         0.0000
     43 H18         0.1596   -2.0151   -5.6996 H         1 <0>         0.0000
     44 H19        -1.6040   -1.8536   -5.7539 H         1 <0>         0.0000
     45 H20        -0.8565   -3.4367   -6.0857 H         1 <0>         0.0000
     46 H21         1.2737   -3.2010   -3.7807 H         1 <0>         0.0000
     47 H22         0.3004   -4.0262   -2.5437 H         1 <0>         0.0000
     48 H23         0.3368   -4.6582   -4.2052 H         1 <0>         0.0000
@<TRIPOS>BOND
     1    1    6 1
     2    1   17 2
     3    1   22 1
     4    2   15 am
     5    2   18 2
     6    2   23 1
     7    3    5 1
     8    3   21 1
     9    3   26 1
    10    3   27 1
    11    4    6 1
    12    4   21 1
    13    4   28 1
    14    4   29 1
    15    5    6 1
    16    5   24 1
    17    5   30 1
    18    6   15 1
    19    7   13 1
    20    7   31 1
    21    7   32 1
    22    7   33 1
    23    8   13 1
    24    8   34 1
    25    8   35 1
    26    8   36 1
    27    9   13 1
    28    9   37 1
    29    9   38 1
    30    9   39 1
    31   10   14 1
    32   10   40 1
    33   10   41 1
    34   10   42 1
    35   11   14 1
    36   11   43 1
    37   11   44 1
    38   11   45 1
    39   12   14 1
    40   12   46 1
    41   12   47 1
    42   12   48 1
    43   13   22 1
    44   14   23 1
    45   15   25 1
    46   16   25 1
    47   19   25 2
    48   20   25 2
