@<TRIPOS>MOLECULE
*****
   57    60     0     0     0
SMALL
NO_CHARGES

@<TRIPOS>ATOM
      1 C1          0.0854   -4.9647    7.9256 C.ar      1 <0>         0.0000
      2 C2          4.1915   -7.7547   -0.2060 C.ar      1 <0>         0.0000
      3 C3          1.4849   -4.9867    7.8849 C.ar      1 <0>         0.0000
      4 C4         -0.6363   -4.8552    6.7338 C.ar      1 <0>         0.0000
      5 C5          3.2162   -8.5970    0.3419 C.ar      1 <0>         0.0000
      6 C6          4.1906   -6.3962    0.1224 C.ar      1 <0>         0.0000
      7 C7          0.1806   -1.3739    2.2539 C.ar      1 <0>         0.0000
      8 C8         -0.1882   -2.7182    0.3135 C.ar      1 <0>         0.0000
      9 C9          2.1501   -4.8994    6.6599 C.ar      1 <0>         0.0000
     10 C10         0.0338   -4.7656    5.5083 C.ar      1 <0>         0.0000
     11 C11         2.2520   -8.0789    1.2095 C.ar      1 <0>         0.0000
     12 C12         3.2212   -5.8802    0.9900 C.ar      1 <0>         0.0000
     13 C13         0.7213   -2.4686    2.9258 C.ar      1 <0>         0.0000
     14 C14         0.3645   -3.8241    0.9613 C.ar      1 <0>         0.0000
     15 C15        -0.2905   -1.4691    0.9369 C.ar      1 <0>         0.0000
     16 C16         1.4319   -4.7855    5.4607 C.ar      1 <0>         0.0000
     17 C17         2.2433   -6.7159    1.5400 C.ar      1 <0>         0.0000
     18 C18         0.8316   -3.7247    2.2889 C.ar      1 <0>         0.0000
     19 C19        -2.7266    0.7084   -0.2949 C.3       1 <0>         0.0000
     20 C20        -1.8739    0.6137    0.9984 C.3       1 <0>         0.0000
     21 C21        -1.9101   -0.4728   -0.8841 C.3       1 <0>         0.0000
     22 C22        -0.8243   -0.2487    0.2207 C.3       1 <0>         0.0000
     23 C23         2.1875   -4.6744    4.1417 C.3       1 <0>         0.0000
     24 C24         1.1677   -6.1784    2.4768 C.3       1 <0>         0.0000
     25 C25         0.3298    0.6435   -0.2806 C.3       1 <0>         0.0000
     26 C26         1.3167   -0.0698   -1.1944 C.3       1 <0>         0.0000
     27 N1          1.3773   -4.8246    2.9493 N.pl3     1 <0>         0.0000
     28 O1          2.2210    0.9188   -1.7116 O.3       1 <0>         0.0000
     29 H1         -0.4351   -5.0347    8.8773 H         1 <0>         0.0000
     30 H2          4.9447   -8.1557   -0.8793 H         1 <0>         0.0000
     31 H3          2.0555   -5.0761    8.8061 H         1 <0>         0.0000
     32 H4         -1.7231   -4.8372    6.7557 H         1 <0>         0.0000
     33 H5          3.2109   -9.6561    0.0964 H         1 <0>         0.0000
     34 H6          4.9444   -5.7347   -0.2977 H         1 <0>         0.0000
     35 H7          0.1088   -0.4241    2.7801 H         1 <0>         0.0000
     36 H8         -0.5281   -2.8370   -0.7126 H         1 <0>         0.0000
     37 H9          3.2385   -4.9229    6.6346 H         1 <0>         0.0000
     38 H10        -0.5294   -4.6772    4.5840 H         1 <0>         0.0000
     39 H11         1.4999   -8.7405    1.6367 H         1 <0>         0.0000
     40 H12         3.2205   -4.8236    1.2409 H         1 <0>         0.0000
     41 H13         1.0262   -2.3520    3.9604 H         1 <0>         0.0000
     42 H14         0.4593   -4.7576    0.4168 H         1 <0>         0.0000
     43 H15        -2.5620    1.6433   -0.8373 H         1 <0>         0.0000
     44 H16        -3.8039    0.5559   -0.1874 H         1 <0>         0.0000
     45 H17        -1.5119    1.5514    1.4327 H         1 <0>         0.0000
     46 H18        -2.3723    0.0308    1.7782 H         1 <0>         0.0000
     47 H19        -2.4296   -1.4263   -0.7549 H         1 <0>         0.0000
     48 H20        -1.5859   -0.3880   -1.9260 H         1 <0>         0.0000
     49 H21         2.7120   -3.7137    4.0990 H         1 <0>         0.0000
     50 H22         2.9734   -5.4390    4.1175 H         1 <0>         0.0000
     51 H23         0.1905   -6.2384    1.9855 H         1 <0>         0.0000
     52 H24         1.0977   -6.8365    3.3514 H         1 <0>         0.0000
     53 H25         0.8780    1.0421    0.5815 H         1 <0>         0.0000
     54 H26        -0.0781    1.5046   -0.8239 H         1 <0>         0.0000
     55 H27         1.8613   -0.8403   -0.6343 H         1 <0>         0.0000
     56 H28         0.7824   -0.5680   -2.0174 H         1 <0>         0.0000
     57 H29         2.8948    0.4620   -2.2380 H         1 <0>         0.0000
@<TRIPOS>BOND
     1    1    4 ar
     2    1    3 ar
     3    1   29 1
     4    2    6 ar
     5    2    5 ar
     6    2   30 1
     7    3    9 ar
     8    3   31 1
     9    4   10 ar
    10    4   32 1
    11    5   11 ar
    12    5   33 1
    13    6   12 ar
    14    6   34 1
    15    7   13 ar
    16    7   15 ar
    17    7   35 1
    18    8   14 ar
    19    8   15 ar
    20    8   36 1
    21    9   16 ar
    22    9   37 1
    23   10   16 ar
    24   10   38 1
    25   11   17 ar
    26   11   39 1
    27   12   17 ar
    28   12   40 1
    29   13   18 ar
    30   13   41 1
    31   14   18 ar
    32   14   42 1
    33   15   22 1
    34   16   23 1
    35   17   24 1
    36   18   27 1
    37   19   21 1
    38   19   20 1
    39   19   43 1
    40   19   44 1
    41   20   22 1
    42   20   45 1
    43   20   46 1
    44   21   22 1
    45   21   47 1
    46   21   48 1
    47   22   25 1
    48   23   27 1
    49   23   49 1
    50   23   50 1
    51   24   27 1
    52   24   51 1
    53   24   52 1
    54   25   26 1
    55   25   53 1
    56   25   54 1
    57   26   28 1
    58   26   55 1
    59   26   56 1
    60   28   57 1
