@<TRIPOS>MOLECULE
*****
   26    27     0     0     0
SMALL
NO_CHARGES

@<TRIPOS>ATOM
      1 C1          1.9692   -1.1076   -0.1352 C.ar      1 <0>         0.0000
      2 C2          2.8482   -2.7113    8.7940 C.ar      1 <0>         0.0000
      3 C3          1.0107   -1.8955    0.5113 C.ar      1 <0>         0.0000
      4 C4          2.8194   -0.2894    0.6166 C.ar      1 <0>         0.0000
      5 C5          3.5720   -3.4674    7.8605 C.ar      1 <0>         0.0000
      6 C6          1.9932   -1.7073    8.3385 C.ar      1 <0>         0.0000
      7 C7          0.9041   -1.8630    1.9046 C.ar      1 <0>         0.0000
      8 C8          2.7091   -0.2602    2.0097 C.ar      1 <0>         0.0000
      9 C9          3.4410   -3.2218    6.4960 C.ar      1 <0>         0.0000
     10 C10         1.8505   -1.4478    6.9683 C.ar      1 <0>         0.0000
     11 C11         1.7509   -1.0452    2.6645 C.ar      1 <0>         0.0000
     12 C12         2.5785   -2.2094    6.0429 C.ar      1 <0>         0.0000
     13 C13         1.6498   -1.0297    4.1665 C.3       1 <0>         0.0000
     14 O1          2.5211   -2.0469    4.6833 O.3       1 <0>         0.0000
     15 H1          2.0517   -1.1295   -1.2189 H         1 <0>         0.0000
     16 H2          2.9519   -2.9047    9.8579 H         1 <0>         0.0000
     17 H3          0.3478   -2.5322   -0.0689 H         1 <0>         0.0000
     18 H4          3.5652    0.3247    0.1184 H         1 <0>         0.0000
     19 H5          4.2425   -4.2534    8.1988 H         1 <0>         0.0000
     20 H6          1.4255   -1.1126    9.0498 H         1 <0>         0.0000
     21 H7          0.1610   -2.4784    2.4070 H         1 <0>         0.0000
     22 H8          3.3726    0.3736    2.5940 H         1 <0>         0.0000
     23 H9          3.9945   -3.7985    5.7605 H         1 <0>         0.0000
     24 H10         1.1788   -0.6610    6.6443 H         1 <0>         0.0000
     25 H11         1.9506   -0.0523    4.5646 H         1 <0>         0.0000
     26 H12         0.6199   -1.2315    4.4874 H         1 <0>         0.0000
@<TRIPOS>BOND
     1    1    4 ar
     2    1    3 ar
     3    1   15 1
     4    2    6 ar
     5    2    5 ar
     6    2   16 1
     7    3    7 ar
     8    3   17 1
     9    4    8 ar
    10    4   18 1
    11    5    9 ar
    12    5   19 1
    13    6   10 ar
    14    6   20 1
    15    7   11 ar
    16    7   21 1
    17    8   11 ar
    18    8   22 1
    19    9   12 ar
    20    9   23 1
    21   10   12 ar
    22   10   24 1
    23   11   13 1
    24   12   14 1
    25   13   14 1
    26   13   25 1
    27   13   26 1
