@<TRIPOS>MOLECULE
*****
   17    17     0     0     0
SMALL
NO_CHARGES

@<TRIPOS>ATOM
      1 C1          1.8225   -1.0453    0.6711 C.ar      1 <0>         0.0000
      2 C2          2.9535   -1.4834    1.3634 C.ar      1 <0>         0.0000
      3 C3          0.7170   -0.5426    1.3614 C.ar      1 <0>         0.0000
      4 C4          1.8744   -0.9230    3.5006 C.ar      1 <0>         0.0000
      5 C5          2.9554   -1.4220    2.7531 C.ar      1 <0>         0.0000
      6 C6          0.7751   -0.4874    2.7483 C.ar      1 <0>         0.0000
      7 C7          1.9137   -0.8928    5.0096 C.2       1 <0>         0.0000
      8 C8          1.2972    0.2943    5.7234 C.3       1 <0>         0.0000
      9 O1          2.4456   -1.8016    5.6258 O.2       1 <0>         0.0000
     10 F1          4.0677   -1.8238    3.3949 F         1 <0>         0.0000
     11 F2         -0.3131   -0.0090    3.4041 F         1 <0>         0.0000
     12 H1          1.8025   -1.0944   -0.4136 H         1 <0>         0.0000
     13 H2          3.8286   -1.8674    0.8495 H         1 <0>         0.0000
     14 H3         -0.1775   -0.2030    0.8498 H         1 <0>         0.0000
     15 H4          0.2185    0.1392    5.8250 H         1 <0>         0.0000
     16 H5          1.4429    1.2266    5.1710 H         1 <0>         0.0000
     17 H6          1.7374    0.3656    6.7196 H         1 <0>         0.0000
@<TRIPOS>BOND
     1    1    3 ar
     2    1    2 ar
     3    1   12 1
     4    2    5 ar
     5    2   13 1
     6    3    6 ar
     7    3   14 1
     8    4    6 ar
     9    4    5 ar
    10    4    7 1
    11    5   10 1
    12    6   11 1
    13    7    8 1
    14    7    9 2
    15    8   15 1
    16    8   16 1
    17    8   17 1
