@<TRIPOS>MOLECULE
*****
   23    24     0     0     0
SMALL
NO_CHARGES

@<TRIPOS>ATOM
      1 C1          1.8020   -1.1318   -0.1420 C.ar      1 <0>         0.0000
      2 C2          0.8485   -0.4026    0.5800 C.ar      1 <0>         0.0000
      3 C3          2.7697    1.0922    6.8109 C.ar      1 <0>         0.0000
      4 C4          3.3011    2.1857    6.1106 C.ar      1 <0>         0.0000
      5 C5          2.8203   -1.8232    0.5173 C.ar      1 <0>         0.0000
      6 C6          0.9183   -0.3648    1.9750 C.ar      1 <0>         0.0000
      7 C7          2.3269   -0.0187    6.1017 C.ar      1 <0>         0.0000
      8 C8          3.3620    2.1056    4.7213 C.ar      1 <0>         0.0000
      9 C9          2.8941   -1.7824    1.9134 C.ar      1 <0>         0.0000
     10 C10         1.9379   -1.0497    2.6265 C.ar      1 <0>         0.0000
     11 C11         2.4440    0.0206    4.7029 C.ar      1 <0>         0.0000
     12 N1          2.9416    1.0381    4.0200 N.ar      1 <0>         0.0000
     13 O1          3.8943   -2.4587    2.5562 O.3       1 <0>         0.0000
     14 O2          2.0162   -1.1024    4.0264 O.3       1 <0>         0.0000
     15 H1          1.7512   -1.1662   -1.2269 H         1 <0>         0.0000
     16 H2          0.0565    0.1305    0.0624 H         1 <0>         0.0000
     17 H3          2.6989    1.1097    7.8953 H         1 <0>         0.0000
     18 H4          3.6555    3.0723    6.6271 H         1 <0>         0.0000
     19 H5          3.5643   -2.3958   -0.0287 H         1 <0>         0.0000
     20 H6          0.1960    0.1954    2.5614 H         1 <0>         0.0000
     21 H7          1.9007   -0.8905    6.5874 H         1 <0>         0.0000
     22 H8          3.7666    2.9274    4.1330 H         1 <0>         0.0000
     23 H9          3.7494   -2.3515    3.5126 H         1 <0>         0.0000
@<TRIPOS>BOND
     1    1    2 ar
     2    1    5 ar
     3    1   15 1
     4    2    6 ar
     5    2   16 1
     6    3    4 ar
     7    3    7 ar
     8    3   17 1
     9    4    8 ar
    10    4   18 1
    11    5    9 ar
    12    5   19 1
    13    6   10 ar
    14    6   20 1
    15    7   11 ar
    16    7   21 1
    17    8   12 ar
    18    8   22 1
    19    9   10 ar
    20    9   13 1
    21   10   14 1
    22   11   12 ar
    23   11   14 1
    24   13   23 1
