@<TRIPOS>MOLECULE
*****
   26    27     0     0     0
SMALL
NO_CHARGES

@<TRIPOS>ATOM
      1 C1          1.7410   -1.0512   -0.1053 C.ar      1 <0>         0.0000
      2 C2          1.1651   -6.0145    4.9612 C.ar      1 <0>         0.0000
      3 C3          2.7909   -1.6705    0.5813 C.ar      1 <0>         0.0000
      4 C4          0.7088   -0.4410    0.6150 C.ar      1 <0>         0.0000
      5 C5          2.3713   -5.6352    5.5657 C.ar      1 <0>         0.0000
      6 C6          0.4124   -5.0529    4.2850 C.ar      1 <0>         0.0000
      7 C7          2.8135   -1.6758    1.9788 C.ar      1 <0>         0.0000
      8 C8          0.7289   -0.4544    2.0130 C.ar      1 <0>         0.0000
      9 C9          2.8128   -4.3151    5.4966 C.ar      1 <0>         0.0000
     10 C10         0.8438   -3.7226    4.2042 C.ar      1 <0>         0.0000
     11 C11         1.7820   -1.0672    2.7038 C.ar      1 <0>         0.0000
     12 C12         2.0487   -3.3538    4.8173 C.ar      1 <0>         0.0000
     13 C13         1.8107   -1.0324    4.2197 C.3       1 <0>         0.0000
     14 O1          2.5722   -2.0825    4.8131 O.3       1 <0>         0.0000
     15 H1          1.7239   -1.0492   -1.1921 H         1 <0>         0.0000
     16 H2          0.8221   -7.0440    5.0150 H         1 <0>         0.0000
     17 H3          3.5924   -2.1530    0.0277 H         1 <0>         0.0000
     18 H4         -0.1146    0.0368    0.0901 H         1 <0>         0.0000
     19 H5          2.9706   -6.3709    6.0962 H         1 <0>         0.0000
     20 H6         -0.5211   -5.3332    3.8035 H         1 <0>         0.0000
     21 H7          3.6228   -2.1647    2.5129 H         1 <0>         0.0000
     22 H8         -0.0837    0.0110    2.5684 H         1 <0>         0.0000
     23 H9          3.7429   -4.0044    5.9640 H         1 <0>         0.0000
     24 H10         0.2527   -3.0044    3.6487 H         1 <0>         0.0000
     25 H11         2.3072   -0.1188    4.5611 H         1 <0>         0.0000
     26 H12         0.7907   -1.0250    4.6249 H         1 <0>         0.0000
@<TRIPOS>BOND
     1    1    4 ar
     2    1    3 ar
     3    1   15 1
     4    2    6 ar
     5    2    5 ar
     6    2   16 1
     7    3    7 ar
     8    3   17 1
     9    4    8 ar
    10    4   18 1
    11    5    9 ar
    12    5   19 1
    13    6   10 ar
    14    6   20 1
    15    7   11 ar
    16    7   21 1
    17    8   11 ar
    18    8   22 1
    19    9   12 ar
    20    9   23 1
    21   10   12 ar
    22   10   24 1
    23   11   13 1
    24   12   14 1
    25   13   14 1
    26   13   25 1
    27   13   26 1
