@<TRIPOS>MOLECULE
*****
   27    28     0     0     0
SMALL
NO_CHARGES

@<TRIPOS>ATOM
      1 C1          2.1117   -0.8447   -0.0249 C.ar      1 <0>         0.0000
      2 C2          7.7430   -2.4172    2.4850 C.ar      1 <0>         0.0000
      3 C3          0.8490   -0.5712    0.5072 C.ar      1 <0>         0.0000
      4 C4          8.1545   -1.1495    2.0549 C.ar      1 <0>         0.0000
      5 C5          3.1346   -1.2488    0.8302 C.ar      1 <0>         0.0000
      6 C6          6.4042   -2.6402    2.8021 C.ar      1 <0>         0.0000
      7 C7          0.6227   -0.7163    1.8787 C.ar      1 <0>         0.0000
      8 C8          7.2279   -0.1098    1.9469 C.ar      1 <0>         0.0000
      9 C9          2.9094   -1.4113    2.2082 C.ar      1 <0>         0.0000
     10 C10         5.4454   -1.6213    2.6732 C.ar      1 <0>         0.0000
     11 C11         1.6288   -1.1492    2.7531 C.ar      1 <0>         0.0000
     12 C12         5.8952   -0.3649    2.2549 C.ar      1 <0>         0.0000
     13 C13         4.0217   -1.9268    3.0574 C.2       1 <0>         0.0000
     14 C14         1.3114   -1.2993    4.2225 C.3       1 <0>         0.0000
     15 O1          3.8184   -2.6405    4.0366 O.2       1 <0>         0.0000
     16 F1          5.0202    0.6684    2.1730 F         1 <0>         0.0000
     17 H1          2.2984   -0.7377   -1.0899 H         1 <0>         0.0000
     18 H2          8.4649   -3.2235    2.5765 H         1 <0>         0.0000
     19 H3          0.0414   -0.2416   -0.1417 H         1 <0>         0.0000
     20 H4          9.1974   -0.9649    1.8122 H         1 <0>         0.0000
     21 H5          4.1193   -1.4595    0.4231 H         1 <0>         0.0000
     22 H6          6.0693   -3.6107    3.1558 H         1 <0>         0.0000
     23 H7         -0.3614   -0.4910    2.2827 H         1 <0>         0.0000
     24 H8          7.5199    0.8900    1.6401 H         1 <0>         0.0000
     25 H9          1.2424   -2.3542    4.5016 H         1 <0>         0.0000
     26 H10         2.0893   -0.8645    4.8553 H         1 <0>         0.0000
     27 H11         0.3600   -0.8123    4.4541 H         1 <0>         0.0000
@<TRIPOS>BOND
     1    1    3 ar
     2    1    5 ar
     3    1   17 1
     4    2    4 ar
     5    2    6 ar
     6    2   18 1
     7    3    7 ar
     8    3   19 1
     9    4    8 ar
    10    4   20 1
    11    5    9 ar
    12    5   21 1
    13    6   10 ar
    14    6   22 1
    15    7   11 ar
    16    7   23 1
    17    8   12 ar
    18    8   24 1
    19    9   11 ar
    20    9   13 1
    21   10   12 ar
    22   10   13 1
    23   11   14 1
    24   12   16 1
    25   13   15 2
    26   14   25 1
    27   14   26 1
    28   14   27 1
