@<TRIPOS>MOLECULE
*****
   20    21     0     0     0
SMALL
NO_CHARGES

@<TRIPOS>ATOM
      1 C1          0.6170    0.9576    1.9071 C.ar      1 <0>         0.0000
      2 C2         -4.3443   -2.4759    3.5165 C.2       1 <0>         0.0000
      3 C3          0.4115    0.7317    3.2714 C.ar      1 <0>         0.0000
      4 C4         -0.3271    0.3965    1.0487 C.ar      1 <0>         0.0000
      5 C5         -3.9198   -1.9425    4.7645 C.2       1 <0>         0.0000
      6 C6         -3.4631   -1.9800    2.5792 C.2       1 <0>         0.0000
      7 C7         -1.4645   -0.4548    2.8221 C.ar      1 <0>         0.0000
      8 C8         -3.4407   -2.2455    1.1063 C.3       1 <0>         0.0000
      9 N1         -0.6181    0.0244    3.7415 N.ar      1 <0>         0.0000
     10 N2         -1.3748   -0.3061    1.4939 N.ar      1 <0>         0.0000
     11 N3         -2.8520   -1.1741    4.6387 N.2       1 <0>         0.0000
     12 N4         -2.5675   -1.1917    3.2954 N.pl3     1 <0>         0.0000
     13 H1          1.4606    1.5318    1.5389 H         1 <0>         0.0000
     14 H2         -5.1772   -3.1380    3.3204 H         1 <0>         0.0000
     15 H3          1.1000    1.1266    4.0175 H         1 <0>         0.0000
     16 H4         -0.2523    0.5136   -0.0315 H         1 <0>         0.0000
     17 H5         -4.3547   -2.0882    5.7463 H         1 <0>         0.0000
     18 H6         -3.6230   -1.3378    0.5268 H         1 <0>         0.0000
     19 H7         -2.4762   -2.6418    0.7786 H         1 <0>         0.0000
     20 H8         -4.2189   -2.9786    0.8775 H         1 <0>         0.0000
@<TRIPOS>BOND
     1    1    4 ar
     2    1    3 ar
     3    1   13 1
     4    2    5 1
     5    2    6 2
     6    2   14 1
     7    3    9 ar
     8    3   15 1
     9    4   10 ar
    10    4   16 1
    11    5   11 2
    12    5   17 1
    13    6    8 1
    14    6   12 1
    15    7   10 ar
    16    7    9 ar
    17    7   12 1
    18    8   18 1
    19    8   19 1
    20    8   20 1
    21   11   12 1
