@<TRIPOS>MOLECULE
*****
   20    20     0     0     0
SMALL
NO_CHARGES

@<TRIPOS>ATOM
      1 C1          1.9406   -1.0920   -0.1753 C.ar      1 <0>         0.0000
      2 C2          0.8789   -0.4642    0.4877 C.ar      1 <0>         0.0000
      3 C3          2.9628   -1.7179    0.5361 C.ar      1 <0>         0.0000
      4 C4          0.8315   -0.4653    1.8878 C.ar      1 <0>         0.0000
      5 C5          1.8562   -1.0968    2.6298 C.ar      1 <0>         0.0000
      6 C6          2.8999   -1.7008    1.9282 C.ar      1 <0>         0.0000
      7 C7         -1.2421    0.7213    1.9431 C.3       1 <0>         0.0000
      8 C8          2.1787    0.0492    4.6684 C.3       1 <0>         0.0000
      9 O1         -0.1553    0.1126    2.6349 O.3       1 <0>         0.0000
     10 O2          1.8162   -1.1682    3.9974 O.3       1 <0>         0.0000
     11 F1          3.8890   -2.2931    2.6382 F         1 <0>         0.0000
     12 H1          1.9653   -1.0896   -1.2612 H         1 <0>         0.0000
     13 H2          0.0971    0.0131   -0.0914 H         1 <0>         0.0000
     14 H3          3.7954   -2.2091    0.0429 H         1 <0>         0.0000
     15 H4         -1.9149    1.0928    2.7169 H         1 <0>         0.0000
     16 H5         -1.7728   -0.0067    1.3179 H         1 <0>         0.0000
     17 H6         -0.9026    1.5597    1.3225 H         1 <0>         0.0000
     18 H7          2.1187   -0.1657    5.7369 H         1 <0>         0.0000
     19 H8          1.4851    0.8573    4.4147 H         1 <0>         0.0000
     20 H9          3.2040    0.3397    4.4095 H         1 <0>         0.0000
@<TRIPOS>BOND
     1    1    2 ar
     2    1    3 ar
     3    1   12 1
     4    2    4 ar
     5    2   13 1
     6    3    6 ar
     7    3   14 1
     8    4    5 ar
     9    4    9 1
    10    5    6 ar
    11    5   10 1
    12    6   11 1
    13    7    9 1
    14    7   15 1
    15    7   16 1
    16    7   17 1
    17    8   10 1
    18    8   18 1
    19    8   19 1
    20    8   20 1
