@<TRIPOS>MOLECULE
*****
   16    16     0     0     0
SMALL
NO_CHARGES

@<TRIPOS>ATOM
      1 C1         -0.2260   -1.3434   -1.7548 C.2       1 <0>         0.0000
      2 C2          0.0892   -0.9565   -0.4265 C.2       1 <0>         0.0000
      3 C3          0.0600   -2.7039   -1.7710 C.2       1 <0>         0.0000
      4 C4          0.9874   -4.3451   -0.0996 C.3       1 <0>         0.0000
      5 C5         -0.5203   -3.2128   -3.9860 C.3       1 <0>         0.0000
      6 N1          0.5277   -1.9754    0.3111 N.2       1 <0>         0.0000
      7 N2          0.4945   -3.0518   -0.5313 N.pl3     1 <0>         0.0000
      8 O1         -0.0139   -3.6620   -2.7253 O.3       1 <0>         0.0000
      9 H1         -0.6053   -0.7321   -2.5607 H         1 <0>         0.0000
     10 H2          0.0065    0.0275    0.0194 H         1 <0>         0.0000
     11 H3          2.0682   -4.4280   -0.2579 H         1 <0>         0.0000
     12 H4          0.7700   -4.4540    0.9636 H         1 <0>         0.0000
     13 H5          0.4821   -5.1309   -0.6636 H         1 <0>         0.0000
     14 H6         -0.5261   -4.0863   -4.6386 H         1 <0>         0.0000
     15 H7          0.1285   -2.4374   -4.4089 H         1 <0>         0.0000
     16 H8         -1.5386   -2.8225   -3.8771 H         1 <0>         0.0000
@<TRIPOS>BOND
     1    1    2 1
     2    1    3 2
     3    1    9 1
     4    2    6 2
     5    2   10 1
     6    3    7 1
     7    3    8 1
     8    4    7 1
     9    4   11 1
    10    4   12 1
    11    4   13 1
    12    5    8 1
    13    5   14 1
    14    5   15 1
    15    5   16 1
    16    6    7 1
