@<TRIPOS>MOLECULE
*****
   18    18     0     0     0
SMALL
NO_CHARGES

@<TRIPOS>ATOM
      1 C1          0.2091   -0.4525    0.9175 C.ar      1 <0>         0.0000
      2 C2          1.3836   -0.1019    1.6046 C.ar      1 <0>         0.0000
      3 C3         -0.6685   -1.3348    1.5342 C.ar      1 <0>         0.0000
      4 C4          1.6468   -0.6297    2.8633 C.ar      1 <0>         0.0000
      5 C5          0.6708   -1.5182    3.3803 C.ar      1 <0>         0.0000
      6 C6          2.8826   -0.3002    3.6577 C.3       1 <0>         0.0000
      7 C7         -0.0465   -2.9370    5.1533 C.3       1 <0>         0.0000
      8 N1         -0.4451   -1.8648    2.7520 N.ar      1 <0>         0.0000
      9 O1          0.9292   -2.0343    4.6118 O.3       1 <0>         0.0000
     10 H1         -0.0119   -0.0495   -0.0661 H         1 <0>         0.0000
     11 H2          2.0963    0.5864    1.1552 H         1 <0>         0.0000
     12 H3         -1.5925   -1.6392    1.0456 H         1 <0>         0.0000
     13 H4          2.6223    0.1496    4.6217 H         1 <0>         0.0000
     14 H5          3.4608   -1.2037    3.8786 H         1 <0>         0.0000
     15 H6          3.5229    0.3971    3.1103 H         1 <0>         0.0000
     16 H7          0.3461   -3.2308    6.1278 H         1 <0>         0.0000
     17 H8         -0.1681   -3.8123    4.5094 H         1 <0>         0.0000
     18 H9         -1.0159   -2.4434    5.2637 H         1 <0>         0.0000
@<TRIPOS>BOND
     1    1    2 ar
     2    1    3 ar
     3    1   10 1
     4    2    4 ar
     5    2   11 1
     6    3    8 ar
     7    3   12 1
     8    4    5 ar
     9    4    6 1
    10    5    8 ar
    11    5    9 1
    12    6   13 1
    13    6   14 1
    14    6   15 1
    15    7    9 1
    16    7   16 1
    17    7   17 1
    18    7   18 1
