@<TRIPOS>MOLECULE
*****
   53    57     0     0     0
SMALL
NO_CHARGES

@<TRIPOS>ATOM
      1 C1         -0.8306    1.5759    1.2217 C.ar      1 <0>         0.0000
      2 C2         -0.8812    0.3977    0.4372 C.ar      1 <0>         0.0000
      3 C3         -4.5786    3.9275    5.1749 C.ar      1 <0>         0.0000
      4 C4         -1.7130    1.7663    2.2759 C.ar      1 <0>         0.0000
      5 C5         -4.3306    2.9693    4.1952 C.ar      1 <0>         0.0000
      6 C6         -5.2817   -1.2244   -0.4062 C.ar      1 <0>         0.0000
      7 C7         -6.6444   -2.6685    0.9699 C.ar      1 <0>         0.0000
      8 C8         -1.8035   -0.6103    0.6943 C.ar      1 <0>         0.0000
      9 C9         -4.4902    3.6135    6.5371 C.ar      1 <0>         0.0000
     10 C10        -6.3887   -0.9141   -1.1980 C.ar      1 <0>         0.0000
     11 C11        -7.7641   -2.3739    0.1851 C.ar      1 <0>         0.0000
     12 C12        -3.8853    1.3404    5.9341 C.ar      1 <0>         0.0000
     13 C13        -2.6687    0.7665    2.5468 C.ar      1 <0>         0.0000
     14 C14        -3.9856    1.6554    4.5739 C.ar      1 <0>         0.0000
     15 C15        -3.7025    0.6436    3.5338 C.2       1 <0>         0.0000
     16 C16        -5.3955   -2.1043    0.6816 C.ar      1 <0>         0.0000
     17 C17        -2.6940   -0.4223    1.7659 C.ar      1 <0>         0.0000
     18 C18        -4.1406    2.3097    6.9181 C.ar      1 <0>         0.0000
     19 C19        -7.6123   -1.5008   -0.8855 C.ar      1 <0>         0.0000
     20 C20        -4.3132   -0.5918    3.3263 C.2       1 <0>         0.0000
     21 C21        -5.4371   -1.2252    4.0550 C.2       1 <0>         0.0000
     22 C22        -3.7222    2.9105   11.7928 C.3       1 <0>         0.0000
     23 C23        -2.7372    1.9506   11.1608 C.3       1 <0>         0.0000
     24 C24        -4.1209    2.1048   10.5738 C.3       1 <0>         0.0000
     25 C25        -4.1894   -2.4251    1.5438 C.3       1 <0>         0.0000
     26 C26        -4.2947    2.8160    9.2626 C.3       1 <0>         0.0000
     27 N1         -3.6819   -1.2489    2.2640 N.pl3     1 <0>         0.0000
     28 O1         -5.6981   -2.4140    3.9950 O.2       1 <0>         0.0000
     29 O2         -6.2126   -0.4138    4.8153 O.3       1 <0>         0.0000
     30 O3         -4.0118    1.8848    8.2070 O.3       1 <0>         0.0000
     31 F1         -8.6943   -1.2055   -1.6537 F         1 <0>         0.0000
     32 H1         -0.0887    2.3354    0.9913 H         1 <0>         0.0000
     33 H2         -0.1788    0.2753   -0.3829 H         1 <0>         0.0000
     34 H3         -4.8537    4.9375    4.8822 H         1 <0>         0.0000
     35 H4         -1.6746    2.6662    2.8834 H         1 <0>         0.0000
     36 H5         -4.4175    3.2186    3.1420 H         1 <0>         0.0000
     37 H6         -4.3232   -0.7669   -0.6358 H         1 <0>         0.0000
     38 H7         -6.7488   -3.3249    1.8281 H         1 <0>         0.0000
     39 H8         -1.8181   -1.5091    0.0855 H         1 <0>         0.0000
     40 H9         -4.6914    4.3803    7.2759 H         1 <0>         0.0000
     41 H10        -6.3154   -0.2357   -2.0425 H         1 <0>         0.0000
     42 H11        -8.7385   -2.8018    0.4000 H         1 <0>         0.0000
     43 H12        -3.6021    0.3419    6.2533 H         1 <0>         0.0000
     44 H13        -4.1680    2.6419   12.7455 H         1 <0>         0.0000
     45 H14        -3.5472    3.9756   11.6659 H         1 <0>         0.0000
     46 H15        -1.9056    2.3691   10.6008 H         1 <0>         0.0000
     47 H16        -2.5077    1.0283   11.6853 H         1 <0>         0.0000
     48 H17        -4.8145    1.2836   10.7349 H         1 <0>         0.0000
     49 H18        -4.4348   -3.1956    2.2703 H         1 <0>         0.0000
     50 H19        -3.3641   -2.7925    0.9306 H         1 <0>         0.0000
     51 H20        -3.6076    3.6707    9.1955 H         1 <0>         0.0000
     52 H21        -5.3220    3.1890    9.1538 H         1 <0>         0.0000
     53 H22        -5.8737    0.5016    4.8095 H         1 <0>         0.0000
@<TRIPOS>BOND
     1    1    2 ar
     2    1    4 ar
     3    1   32 1
     4    2    8 ar
     5    2   33 1
     6    3    5 ar
     7    3    9 ar
     8    3   34 1
     9    4   13 ar
    10    4   35 1
    11    5   14 ar
    12    5   36 1
    13    6   10 ar
    14    6   16 ar
    15    6   37 1
    16    7   11 ar
    17    7   16 ar
    18    7   38 1
    19    8   17 ar
    20    8   39 1
    21    9   18 ar
    22    9   40 1
    23   10   19 ar
    24   10   41 1
    25   11   19 ar
    26   11   42 1
    27   12   14 ar
    28   12   18 ar
    29   12   43 1
    30   13   15 1
    31   13   17 ar
    32   14   15 1
    33   15   20 2
    34   16   25 1
    35   17   27 1
    36   18   30 1
    37   19   31 1
    38   20   21 1
    39   20   27 1
    40   21   28 2
    41   21   29 1
    42   22   23 1
    43   22   24 1
    44   22   44 1
    45   22   45 1
    46   23   24 1
    47   23   46 1
    48   23   47 1
    49   24   26 1
    50   24   48 1
    51   25   27 1
    52   25   49 1
    53   25   50 1
    54   26   30 1
    55   26   51 1
    56   26   52 1
    57   29   53 1
