@<TRIPOS>MOLECULE
*****
   50    54     0     0     0
SMALL
NO_CHARGES

@<TRIPOS>ATOM
      1 C1         -5.4024   -2.1388    6.0103 C.ar      1 <0>         0.0000
      2 C2         -5.8779   -2.8746    7.0888 C.ar      1 <0>         0.0000
      3 C3         -3.6611   -2.3116    4.0318 C.2       1 <0>         0.0000
      4 C4         -4.3915   -4.7432    6.5997 C.ar      1 <0>         0.0000
      5 C5         -4.4024   -2.7098    5.2013 C.ar      1 <0>         0.0000
      6 C6         -5.3850   -4.1665    7.3942 C.ar      1 <0>         0.0000
      7 C7         -3.9243   -3.9950    5.5232 C.ar      1 <0>         0.0000
      8 C8         -2.8156   -3.3474    3.7366 C.2       1 <0>         0.0000
      9 C9         -1.7848   -3.5373    2.6812 C.2       1 <0>         0.0000
     10 C10        -7.3776   -5.4563    8.3464 C.2       1 <0>         0.0000
     11 C11        -8.8432   -7.4553    9.0584 C.3       1 <0>         0.0000
     12 C12        -9.4178   -6.2442    9.7175 C.3       1 <0>         0.0000
     13 C13        -0.1986   -3.9737   -1.5649 C.3       1 <0>         0.0000
     14 C14        -2.6641   -3.8280   -1.1509 C.3       1 <0>         0.0000
     15 C15        -0.2928   -2.6230   -2.3406 C.3       1 <0>         0.0000
     16 C16        -2.6622   -2.4924   -1.9565 C.3       1 <0>         0.0000
     17 C17        -1.1343   -1.4820   -0.4078 C.3       1 <0>         0.0000
     18 C18        -7.9153   -6.3051    9.4491 C.3       1 <0>         0.0000
     19 C19        -1.2893   -3.9839   -0.4790 C.3       1 <0>         0.0000
     20 C20        -1.0275   -2.7793    0.4522 C.3       1 <0>         0.0000
     21 C21        -5.9561   -4.9270    8.5620 C.3       1 <0>         0.0000
     22 N1         -1.3819   -1.7749   -1.8235 N.3       1 <0>         0.0000
     23 N2         -1.9390   -2.7207    1.5916 N.am      1 <0>         0.0000
     24 O1         -0.8610   -4.3403    2.8022 O.2       1 <0>         0.0000
     25 O2         -8.0344   -5.1983    7.3482 O.2       1 <0>         0.0000
     26 O3         -2.9553   -4.3813    4.6359 O.3       1 <0>         0.0000
     27 H1         -5.7995   -1.1503    5.7962 H         1 <0>         0.0000
     28 H2         -6.6621   -2.4565    7.7145 H         1 <0>         0.0000
     29 H3         -3.7245   -1.3665    3.5078 H         1 <0>         0.0000
     30 H4         -3.9952   -5.7334    6.8059 H         1 <0>         0.0000
     31 H5         -8.7519   -8.3723    9.6321 H         1 <0>         0.0000
     32 H6         -9.0154   -7.5751    7.9936 H         1 <0>         0.0000
     33 H7         -9.9758   -5.5529    9.0942 H         1 <0>         0.0000
     34 H8         -9.7312   -6.3103   10.7548 H         1 <0>         0.0000
     35 H9         -0.3447   -4.8251   -2.2386 H         1 <0>         0.0000
     36 H10         0.7883   -4.0971   -1.1051 H         1 <0>         0.0000
     37 H11        -3.4590   -3.8389   -0.3970 H         1 <0>         0.0000
     38 H12        -2.8490   -4.6839   -1.8087 H         1 <0>         0.0000
     39 H13         0.6398   -2.0551   -2.2605 H         1 <0>         0.0000
     40 H14        -0.4764   -2.7897   -3.4067 H         1 <0>         0.0000
     41 H15        -2.8336   -2.6727   -3.0224 H         1 <0>         0.0000
     42 H16        -3.4588   -1.8215   -1.6160 H         1 <0>         0.0000
     43 H17        -1.9512   -0.8464   -0.0451 H         1 <0>         0.0000
     44 H18        -0.2163   -0.8918   -0.3297 H         1 <0>         0.0000
     45 H19        -7.2634   -6.4631   10.3035 H         1 <0>         0.0000
     46 H20        -1.2412   -4.9038    0.1080 H         1 <0>         0.0000
     47 H21        -0.0241   -2.8850    0.8717 H         1 <0>         0.0000
     48 H22        -5.3204   -5.7809    8.8248 H         1 <0>         0.0000
     49 H23        -5.9895   -4.2988    9.4634 H         1 <0>         0.0000
     50 H24        -2.8254   -2.2478    1.4726 H         1 <0>         0.0000
@<TRIPOS>BOND
     1    1    2 ar
     2    1    5 ar
     3    1   27 1
     4    2    6 ar
     5    2   28 1
     6    3    5 1
     7    3    8 2
     8    3   29 1
     9    4    6 ar
    10    4    7 ar
    11    4   30 1
    12    5    7 ar
    13    6   21 1
    14    7   26 1
    15    8    9 1
    16    8   26 1
    17    9   23 am
    18    9   24 2
    19   10   18 1
    20   10   21 1
    21   10   25 2
    22   11   12 1
    23   11   18 1
    24   11   31 1
    25   11   32 1
    26   12   18 1
    27   12   33 1
    28   12   34 1
    29   13   15 1
    30   13   19 1
    31   13   35 1
    32   13   36 1
    33   14   16 1
    34   14   19 1
    35   14   37 1
    36   14   38 1
    37   15   22 1
    38   15   39 1
    39   15   40 1
    40   16   22 1
    41   16   41 1
    42   16   42 1
    43   17   20 1
    44   17   22 1
    45   17   43 1
    46   17   44 1
    47   18   45 1
    48   19   20 1
    49   19   46 1
    50   20   23 1
    51   20   47 1
    52   21   48 1
    53   21   49 1
    54   23   50 1
