@<TRIPOS>MOLECULE
*****
   50    54     0     0     0
SMALL
NO_CHARGES

@<TRIPOS>ATOM
      1 C1         -5.3808   -2.1233    5.8264 C.ar      1 <0>         0.0000
      2 C2         -5.7890   -2.7076    7.0200 C.ar      1 <0>         0.0000
      3 C3         -3.6808   -2.4946    3.8423 C.2       1 <0>         0.0000
      4 C4         -4.2134   -4.5493    6.7719 C.ar      1 <0>         0.0000
      5 C5         -4.3687   -2.7563    5.0819 C.ar      1 <0>         0.0000
      6 C6         -5.2175   -3.9082    7.5035 C.ar      1 <0>         0.0000
      7 C7         -3.8176   -3.9535    5.5796 C.ar      1 <0>         0.0000
      8 C8         -2.7898   -3.5112    3.6725 C.2       1 <0>         0.0000
      9 C9         -1.8247   -3.7643    2.5787 C.2       1 <0>         0.0000
     10 C10        -7.0904   -5.1760    8.6982 C.2       1 <0>         0.0000
     11 C11        -8.3988   -7.1159    9.7833 C.3       1 <0>         0.0000
     12 C12        -9.0591   -5.8509   10.2247 C.3       1 <0>         0.0000
     13 C13         1.9239   -6.6382    1.1871 C.3       1 <0>         0.0000
     14 C14         0.0556   -7.6764    2.4781 C.3       1 <0>         0.0000
     15 C15         1.2110   -7.1308   -0.1121 C.3       1 <0>         0.0000
     16 C16        -0.6185   -8.0698    1.1273 C.3       1 <0>         0.0000
     17 C17        -0.7151   -5.7910    0.3826 C.3       1 <0>         0.0000
     18 C18        -7.5573   -5.8501    9.9444 C.3       1 <0>         0.0000
     19 C19         0.8479   -6.3721    2.2562 C.3       1 <0>         0.0000
     20 C20        -0.0790   -5.2690    1.7154 C.3       1 <0>         0.0000
     21 C21        -5.7149   -4.5072    8.7926 C.3       1 <0>         0.0000
     22 N1         -0.2518   -7.1432    0.0450 N.3       1 <0>         0.0000
     23 N2         -1.0751   -4.8929    2.7144 N.am      1 <0>         0.0000
     24 O1         -1.7266   -2.9884    1.6231 O.2       1 <0>         0.0000
     25 O2         -7.7659   -5.1563    7.6799 O.2       1 <0>         0.0000
     26 O3         -2.8499   -4.4220    4.7232 O.3       1 <0>         0.0000
     27 H1         -5.8363   -1.2011    5.4764 H         1 <0>         0.0000
     28 H2         -6.5792   -2.2378    7.5999 H         1 <0>         0.0000
     29 H3         -3.8151   -1.6717    3.1536 H         1 <0>         0.0000
     30 H4         -3.7612   -5.4758    7.1150 H         1 <0>         0.0000
     31 H5         -8.2370   -7.9055   10.5106 H         1 <0>         0.0000
     32 H6         -8.5669   -7.4376    8.7606 H         1 <0>         0.0000
     33 H7         -9.6702   -5.3258    9.4977 H         1 <0>         0.0000
     34 H8         -9.3617   -5.7514   11.2626 H         1 <0>         0.0000
     35 H9          2.6297   -7.3891    1.5587 H         1 <0>         0.0000
     36 H10         2.4977   -5.7240    0.9988 H         1 <0>         0.0000
     37 H11        -0.6932   -7.5632    3.2705 H         1 <0>         0.0000
     38 H12         0.7437   -8.4576    2.8191 H         1 <0>         0.0000
     39 H13         1.4533   -6.4844   -0.9614 H         1 <0>         0.0000
     40 H14         1.5308   -8.1440   -0.3760 H         1 <0>         0.0000
     41 H15        -0.3271   -9.0803    0.8232 H         1 <0>         0.0000
     42 H16        -1.7093   -8.0610    1.2175 H         1 <0>         0.0000
     43 H17        -1.8043   -5.8064    0.4764 H         1 <0>         0.0000
     44 H18        -0.4683   -5.1191   -0.4434 H         1 <0>         0.0000
     45 H19        -6.8919   -5.8029   10.8017 H         1 <0>         0.0000
     46 H20         1.3144   -6.0388    3.1894 H         1 <0>         0.0000
     47 H21         0.5119   -4.3726    1.5051 H         1 <0>         0.0000
     48 H22        -5.0108   -5.2542    9.1785 H         1 <0>         0.0000
     49 H23        -5.7901   -3.7428    9.5786 H         1 <0>         0.0000
     50 H24        -1.2231   -5.4743    3.5290 H         1 <0>         0.0000
@<TRIPOS>BOND
     1    1    2 ar
     2    1    5 ar
     3    1   27 1
     4    2    6 ar
     5    2   28 1
     6    3    5 1
     7    3    8 2
     8    3   29 1
     9    4    6 ar
    10    4    7 ar
    11    4   30 1
    12    5    7 ar
    13    6   21 1
    14    7   26 1
    15    8    9 1
    16    8   26 1
    17    9   23 am
    18    9   24 2
    19   10   18 1
    20   10   21 1
    21   10   25 2
    22   11   12 1
    23   11   18 1
    24   11   31 1
    25   11   32 1
    26   12   18 1
    27   12   33 1
    28   12   34 1
    29   13   15 1
    30   13   19 1
    31   13   35 1
    32   13   36 1
    33   14   16 1
    34   14   19 1
    35   14   37 1
    36   14   38 1
    37   15   22 1
    38   15   39 1
    39   15   40 1
    40   16   22 1
    41   16   41 1
    42   16   42 1
    43   17   20 1
    44   17   22 1
    45   17   43 1
    46   17   44 1
    47   18   45 1
    48   19   20 1
    49   19   46 1
    50   20   23 1
    51   20   47 1
    52   21   48 1
    53   21   49 1
    54   23   50 1
