@<TRIPOS>MOLECULE
*****
   29    30     0     0     0
SMALL
NO_CHARGES

@<TRIPOS>ATOM
      1 C1         -0.6460   -2.4385    0.6050 C.ar      1 <0>         0.0000
      2 C2          3.8222   -4.5247   -0.5750 C.ar      1 <0>         0.0000
      3 C3         -0.1983   -3.7419    0.5841 C.ar      1 <0>         0.0000
      4 C4          3.3774   -3.2237   -0.4894 C.ar      1 <0>         0.0000
      5 C5          0.2264   -1.3633    0.3129 C.ar      1 <0>         0.0000
      6 C6          2.9729   -5.5979   -0.2073 C.ar      1 <0>         0.0000
      7 C7          2.0447   -2.9512   -0.0787 C.ar      1 <0>         0.0000
      8 C8          1.1585   -4.0226    0.2640 C.ar      1 <0>         0.0000
      9 C9          1.5409   -1.6155   -0.0294 C.ar      1 <0>         0.0000
     10 C10         1.6860   -5.3519    0.2348 C.ar      1 <0>         0.0000
     11 C11         1.5094   -7.3030    2.8201 C.2       1 <0>         0.0000
     12 C12        -0.8709   -7.2724    1.9627 C.3       1 <0>         0.0000
     13 C13         0.4682   -6.5548    1.9608 C.3       1 <0>         0.0000
     14 O1          1.1975   -8.1016    3.6734 O.2       1 <0>         0.0000
     15 O2          2.4299   -0.6210   -0.3480 O.3       1 <0>         0.0000
     16 O3          2.8098   -6.9804    2.6190 O.3       1 <0>         0.0000
     17 O4          0.8984   -6.4345    0.5825 O.3       1 <0>         0.0000
     18 H1         -1.6853   -2.2247    0.8385 H         1 <0>         0.0000
     19 H2          4.8324   -4.7389   -0.9119 H         1 <0>         0.0000
     20 H3         -0.8871   -4.5567    0.7713 H         1 <0>         0.0000
     21 H4          4.0266   -2.3950   -0.7486 H         1 <0>         0.0000
     22 H5         -0.1454   -0.3406    0.3419 H         1 <0>         0.0000
     23 H6          3.3152   -6.6268   -0.2826 H         1 <0>         0.0000
     24 H7         -0.7716   -8.2556    1.4965 H         1 <0>         0.0000
     25 H8         -1.6054   -6.6900    1.4006 H         1 <0>         0.0000
     26 H9         -1.2225   -7.4116    2.9861 H         1 <0>         0.0000
     27 H10         0.3677   -5.5548    2.4004 H         1 <0>         0.0000
     28 H11         1.9777    0.2364   -0.2972 H         1 <0>         0.0000
     29 H12         2.9033   -6.3307    1.8952 H         1 <0>         0.0000
@<TRIPOS>BOND
     1    1    3 ar
     2    1    5 ar
     3    1   18 1
     4    2    4 ar
     5    2    6 ar
     6    2   19 1
     7    3    8 ar
     8    3   20 1
     9    4    7 ar
    10    4   21 1
    11    5    9 ar
    12    5   22 1
    13    6   10 ar
    14    6   23 1
    15    7    8 ar
    16    7    9 ar
    17    8   10 ar
    18    9   15 1
    19   10   17 1
    20   11   13 1
    21   11   14 2
    22   11   16 1
    23   12   13 1
    24   12   24 1
    25   12   25 1
    26   12   26 1
    27   13   17 1
    28   13   27 1
    29   15   28 1
    30   16   29 1
