@<TRIPOS>MOLECULE
*****
   29    30     0     0     0
SMALL
NO_CHARGES

@<TRIPOS>ATOM
      1 C1          2.4033   -5.1411    1.3755 C.ar      1 <0>         0.0000
      2 C2          2.6183   -6.3763    1.9982 C.ar      1 <0>         0.0000
      3 C3          1.1293   -4.5774    1.3814 C.ar      1 <0>         0.0000
      4 C4          1.5614   -7.0369    2.6241 C.ar      1 <0>         0.0000
      5 C5          0.0468   -5.2211    2.0038 C.ar      1 <0>         0.0000
      6 C6          0.2885   -6.4565    2.6256 C.ar      1 <0>         0.0000
      7 C7         -0.8546   -2.7982    3.6120 C.cat     1 <0>         0.0000
      8 C8          0.1864   -2.7569    5.6675 C.3       1 <0>         0.0000
      9 C9         -0.4657   -1.3979    5.3524 C.3       1 <0>         0.0000
     10 C10        -1.9492   -4.6211    0.5588 C.3       1 <0>         0.0000
     11 C11        -1.3356   -4.5899    1.9605 C.3       1 <0>         0.0000
     12 N1         -0.3676   -3.5795    4.5768 N.pl3     1 <0>         0.0000
     13 N2         -1.2844   -3.1747    2.4226 N.pl3     1 <0>         0.0000
     14 O1         -0.8906   -1.5180    3.9452 O.3       1 <0>         0.0000
     15 Cl1        -1.0078   -7.3270    3.4415 Cl        1 <0>         0.0000
     16 H1          3.2227   -4.6268    0.8826 H         1 <0>         0.0000
     17 H2          3.6053   -6.8291    1.9947 H         1 <0>         0.0000
     18 H3          0.9647   -3.6197    0.8933 H         1 <0>         0.0000
     19 H4          1.7139   -7.9966    3.1073 H         1 <0>         0.0000
     20 H5          1.2778   -2.7274    5.6067 H         1 <0>         0.0000
     21 H6         -0.1166   -3.1471    6.6398 H         1 <0>         0.0000
     22 H7         -1.3660   -1.2085    5.9381 H         1 <0>         0.0000
     23 H8          0.2138   -0.5500    5.4093 H         1 <0>         0.0000
     24 H9         -1.3232   -4.0844   -0.1601 H         1 <0>         0.0000
     25 H10        -2.0267   -5.6587    0.2286 H         1 <0>         0.0000
     26 H11        -2.9545   -4.1880    0.5602 H         1 <0>         0.0000
     27 H12        -2.0022   -5.1221    2.6425 H         1 <0>         0.0000
     28 H13        -0.0862   -4.5397    4.4025 H         1 <0>         0.0000
     29 H14        -1.6890   -2.4462    1.8419 H         1 <0>         0.0000
@<TRIPOS>BOND
     1    1    2 ar
     2    1    3 ar
     3    1   16 1
     4    2    4 ar
     5    2   17 1
     6    3    5 ar
     7    3   18 1
     8    4    6 ar
     9    4   19 1
    10    5    6 ar
    11    5   11 1
    12    6   15 1
    13    7   12 2
    14    7   13 1
    15    7   14 1
    16    8    9 1
    17    8   12 1
    18    8   20 1
    19    8   21 1
    20    9   14 1
    21    9   22 1
    22    9   23 1
    23   10   11 1
    24   10   24 1
    25   10   25 1
    26   10   26 1
    27   11   13 1
    28   11   27 1
    29   12   28 1
    30   13   29 1
