@<TRIPOS>MOLECULE
*****
   35    37     0     0     0
SMALL
NO_CHARGES

@<TRIPOS>ATOM
      1 C1          0.7338   -6.4783    2.5374 C.ar      1 <0>         0.0000
      2 C2          1.3184   -6.5769    1.2697 C.ar      1 <0>         0.0000
      3 C3          0.6369   -5.2274    3.1556 C.ar      1 <0>         0.0000
      4 C4          0.6771    2.8505   -0.0788 C.ar      1 <0>         0.0000
      5 C5          1.2481    2.4115    1.1219 C.ar      1 <0>         0.0000
      6 C6          1.7995   -5.4315    0.6288 C.ar      1 <0>         0.0000
      7 C7          1.1202   -4.0844    2.5100 C.ar      1 <0>         0.0000
      8 C8         -0.1189    1.9847   -0.8339 C.ar      1 <0>         0.0000
      9 C9          1.0370    1.0988    1.5609 C.ar      1 <0>         0.0000
     10 C10         1.7090   -4.1709    1.2393 C.ar      1 <0>         0.0000
     11 C11        -0.3448    0.6690   -0.4084 C.ar      1 <0>         0.0000
     12 C12         0.2569    0.2399    0.7915 C.ar      1 <0>         0.0000
     13 C13        -1.1581   -1.4292   -0.8305 C.2       1 <0>         0.0000
     14 C14        -0.1835   -1.9976    0.1854 C.3       1 <0>         0.0000
     15 C15         2.1812   -2.9294    0.5159 C.3       1 <0>         0.0000
     16 C16         1.1409   -2.3906   -0.4854 C.3       1 <0>         0.0000
     17 N1         -1.2047   -0.1765   -1.1311 N.2       1 <0>         0.0000
     18 N2         -1.9257   -2.3484   -1.5144 N.pl3     1 <0>         0.0000
     19 O1          0.0208   -1.0438    1.2410 O.3       1 <0>         0.0000
     20 H1          0.3619   -7.3679    3.0393 H         1 <0>         0.0000
     21 H2          1.4041   -7.5459    0.7838 H         1 <0>         0.0000
     22 H3          0.1860   -5.1408    4.1412 H         1 <0>         0.0000
     23 H4          0.8446    3.8680   -0.4214 H         1 <0>         0.0000
     24 H5          1.8599    3.0849    1.7161 H         1 <0>         0.0000
     25 H6          2.2573   -5.5169   -0.3552 H         1 <0>         0.0000
     26 H7          1.0340   -3.1123    2.9899 H         1 <0>         0.0000
     27 H8         -0.5891    2.3116   -1.7573 H         1 <0>         0.0000
     28 H9          1.4700    0.7331    2.4881 H         1 <0>         0.0000
     29 H10        -0.6142   -2.8689    0.6860 H         1 <0>         0.0000
     30 H11         2.4167   -2.1426    1.2378 H         1 <0>         0.0000
     31 H12         3.1034   -3.1461   -0.0343 H         1 <0>         0.0000
     32 H13         1.5502   -1.5169   -1.0043 H         1 <0>         0.0000
     33 H14         0.9218   -3.1464   -1.2480 H         1 <0>         0.0000
     34 H15        -2.6601   -1.9395   -2.0833 H         1 <0>         0.0000
     35 H16        -2.1951   -3.1867   -1.0143 H         1 <0>         0.0000
@<TRIPOS>BOND
     1    1    3 ar
     2    1    2 ar
     3    1   20 1
     4    2    6 ar
     5    2   21 1
     6    3    7 ar
     7    3   22 1
     8    4    5 ar
     9    4    8 ar
    10    4   23 1
    11    5    9 ar
    12    5   24 1
    13    6   10 ar
    14    6   25 1
    15    7   10 ar
    16    7   26 1
    17    8   11 ar
    18    8   27 1
    19    9   12 ar
    20    9   28 1
    21   10   15 1
    22   11   12 ar
    23   11   17 1
    24   12   19 1
    25   13   14 1
    26   13   17 2
    27   13   18 1
    28   14   16 1
    29   14   19 1
    30   14   29 1
    31   15   16 1
    32   15   30 1
    33   15   31 1
    34   16   32 1
    35   16   33 1
    36   18   34 1
    37   18   35 1
