@<TRIPOS>MOLECULE
*****
   16    16     0     0     0
SMALL
NO_CHARGES

@<TRIPOS>ATOM
      1 C1          3.7900    0.6500    1.8800 C.2       1 <0>         0.0000
      2 C2          4.6700    1.5740    1.4300 C.2       1 <0>         0.0000
      3 C3          4.3800   -0.0090   -0.0340 C.2       1 <0>         0.0000
      4 C4          4.0090   -1.8550   -1.6630 C.2       1 <0>         0.0000
      5 C5          4.4240   -2.3450   -3.0240 C.3       1 <0>         0.0000
      6 N1          3.6090   -0.3420    0.9600 N.2       1 <0>         0.0000
      7 N2          5.0450    1.1480    0.2050 N.pl3     1 <0>         0.0000
      8 N3          4.5870   -0.6810   -1.2580 N.am      1 <0>         0.0000
      9 O1          3.2200   -2.4680   -0.9840 O.2       1 <0>         0.0000
     10 H1          3.2960    0.6770    2.8190 H         1 <0>         0.0000
     11 H2          5.0350    2.4610    1.8790 H         1 <0>         0.0000
     12 H3          5.4920   -2.5050   -2.9940 H         1 <0>         0.0000
     13 H4          4.1510   -1.5800   -3.7360 H         1 <0>         0.0000
     14 H5          3.8880   -3.2670   -3.2040 H         1 <0>         0.0000
     15 H6          5.7100    1.6060   -0.4350 H         1 <0>         0.0000
     16 H7          5.2370   -0.2640   -1.9270 H         1 <0>         0.0000
@<TRIPOS>BOND
     1    1    2 2
     2    1    6 1
     3    1   10 1
     4    2    7 1
     5    2   11 1
     6    3    6 2
     7    3    7 1
     8    3    8 1
     9    4    5 1
    10    4    8 am
    11    4    9 2
    12    5   12 1
    13    5   13 1
    14    5   14 1
    15    7   15 1
    16    8   16 1
