@<TRIPOS>MOLECULE
*****
   25    25     0     0     0
SMALL
NO_CHARGES

@<TRIPOS>ATOM
      1 C1         -3.4469   -2.6833   -1.5700 C.ar      1 <0>         0.0000
      2 C2         -2.2449   -3.1097   -2.1485 C.ar      1 <0>         0.0000
      3 C3         -3.4143   -1.9301   -0.3934 C.ar      1 <0>         0.0000
      4 C4         -1.0244   -2.7838   -1.5542 C.ar      1 <0>         0.0000
      5 C5         -2.1877   -1.6072    0.1988 C.ar      1 <0>         0.0000
      6 C6         -0.9773   -2.0262   -0.3709 C.ar      1 <0>         0.0000
      7 C7          1.1098   -2.9042    0.8395 C.2       1 <0>         0.0000
      8 C8          1.2665   -0.8642   -0.6456 C.3       1 <0>         0.0000
      9 C9          0.9295   -5.1847    1.7492 C.3       1 <0>         0.0000
     10 C10         0.3498   -1.6810    0.2787 C.3       1 <0>         0.0000
     11 N1          0.3399   -3.9700    1.2039 N.am      1 <0>         0.0000
     12 O1          2.3289   -2.8855    1.0102 O.2       1 <0>         0.0000
     13 H1         -4.3972   -2.9362   -2.0328 H         1 <0>         0.0000
     14 H2         -2.2605   -3.6976   -3.0629 H         1 <0>         0.0000
     15 H3         -4.3409   -1.5930    0.0642 H         1 <0>         0.0000
     16 H4         -0.0983   -3.1272   -2.0091 H         1 <0>         0.0000
     17 H5         -2.1707   -1.0218    1.1158 H         1 <0>         0.0000
     18 H6          1.5261   -1.4276   -1.5466 H         1 <0>         0.0000
     19 H7          0.7633    0.0576   -0.9521 H         1 <0>         0.0000
     20 H8          2.1955   -0.6168   -0.1290 H         1 <0>         0.0000
     21 H9          1.3828   -5.8052    0.9667 H         1 <0>         0.0000
     22 H10         0.1529   -5.7610    2.2578 H         1 <0>         0.0000
     23 H11         1.7093   -4.9181    2.4649 H         1 <0>         0.0000
     24 H12         0.1375   -1.0665    1.1629 H         1 <0>         0.0000
     25 H13        -0.6309   -3.9793    0.9214 H         1 <0>         0.0000
@<TRIPOS>BOND
     1    1    3 ar
     2    1    2 ar
     3    1   13 1
     4    2    4 ar
     5    2   14 1
     6    3    5 ar
     7    3   15 1
     8    4    6 ar
     9    4   16 1
    10    5    6 ar
    11    5   17 1
    12    6   10 1
    13    7   10 1
    14    7   11 am
    15    7   12 2
    16    8   10 1
    17    8   18 1
    18    8   19 1
    19    8   20 1
    20    9   11 1
    21    9   21 1
    22    9   22 1
    23    9   23 1
    24   10   24 1
    25   11   25 1
