@<TRIPOS>MOLECULE
*****
   18    18     0     0     0
SMALL
NO_CHARGES

@<TRIPOS>ATOM
      1 C1          5.7630    1.3650    0.6440 C.ar      1 <0>         0.0000
      2 C2          4.5710    1.5720    1.3260 C.ar      1 <0>         0.0000
      3 C3          5.8020    0.4680   -0.4160 C.ar      1 <0>         0.0000
      4 C4          3.4400    0.8700    0.9250 C.ar      1 <0>         0.0000
      5 C5          3.5720   -0.0200   -0.1620 C.ar      1 <0>         0.0000
      6 C6          2.1460    1.1080    1.6830 C.3       1 <0>         0.0000
      7 C7          1.1600   -0.9500   -0.3780 C.3       1 <0>         0.0000
      8 N1          4.7250   -0.2050   -0.8040 N.ar      1 <0>         0.0000
      9 O1          2.5580   -0.7880   -0.6850 O.3       1 <0>         0.0000
     10 H1          6.6400    1.8860    0.9290 H         1 <0>         0.0000
     11 H2          4.5350    2.2550    2.1350 H         1 <0>         0.0000
     12 H3          6.7080    0.3020   -0.9440 H         1 <0>         0.0000
     13 H4          2.3170    1.8310    2.4800 H         1 <0>         0.0000
     14 H5          1.8220    0.1640    2.1200 H         1 <0>         0.0000
     15 H6          1.4070    1.5070    0.9890 H         1 <0>         0.0000
     16 H7          0.7530   -1.6730   -1.0840 H         1 <0>         0.0000
     17 H8          0.6630    0.0120   -0.5020 H         1 <0>         0.0000
     18 H9          1.0680   -1.3300    0.6390 H         1 <0>         0.0000
@<TRIPOS>BOND
     1    1    2 ar
     2    1    3 ar
     3    1   10 1
     4    2    4 ar
     5    2   11 1
     6    3    8 ar
     7    3   12 1
     8    4    5 ar
     9    4    6 1
    10    5    8 ar
    11    5    9 1
    12    6   13 1
    13    6   14 1
    14    6   15 1
    15    7    9 1
    16    7   16 1
    17    7   17 1
    18    7   18 1
