@<TRIPOS>MOLECULE
*****
   39    41     0     0     0
SMALL
NO_CHARGES

@<TRIPOS>ATOM
      1 C1         -1.6746   -0.1877    1.8830 C.ar      1 <0>         0.0000
      2 C2         -2.4703    0.6014    1.0565 C.ar      1 <0>         0.0000
      3 C3          2.4866    4.1502    1.3528 C.ar      1 <0>         0.0000
      4 C4         -0.4372   -0.6442    1.4325 C.ar      1 <0>         0.0000
      5 C5          3.0983    3.6861    0.1889 C.ar      1 <0>         0.0000
      6 C6          2.0473    1.8979    2.0364 C.ar      1 <0>         0.0000
      7 C7         -2.0506    0.9431   -0.2358 C.ar      1 <0>         0.0000
      8 C8          1.9419    3.2670    2.2953 C.ar      1 <0>         0.0000
      9 C9          0.0339   -0.2880    0.1612 C.ar      1 <0>         0.0000
     10 C10        -0.7899    0.4903   -0.6792 C.ar      1 <0>         0.0000
     11 C11         3.1844    2.3140   -0.0744 C.ar      1 <0>         0.0000
     12 C12         2.6528    1.4175    0.8687 C.ar      1 <0>         0.0000
     13 C13        -3.0011    1.8023   -1.0368 C.2       1 <0>         0.0000
     14 C14         1.4672   -0.7214   -1.7674 C.3       1 <0>         0.0000
     15 C15         0.9523    0.5838   -2.3478 C.3       1 <0>         0.0000
     16 C16         1.2434    3.7705    3.5366 C.3       1 <0>         0.0000
     17 N1          1.3045   -0.7418   -0.3081 N.pl3     1 <0>         0.0000
     18 O1         -4.0574    2.1842   -0.5732 O.2       1 <0>         0.0000
     19 O2          3.8416   -0.7766   -0.1480 O.2       1 <0>         0.0000
     20 O3          2.4423   -0.9455    1.9673 O.2       1 <0>         0.0000
     21 O4         -0.4251    0.7900   -1.9748 O.3       1 <0>         0.0000
     22 O5          3.7412    1.8346   -1.2298 O.3       1 <0>         0.0000
     23 O6         -2.6466    2.1501   -2.2939 O.3       1 <0>         0.0000
     24 S1          2.6904   -0.3683    0.6481 S.o2      1 <0>         0.0000
     25 H1         -2.0214   -0.4661    2.8737 H         1 <0>         0.0000
     26 H2         -3.4395    0.9655    1.3797 H         1 <0>         0.0000
     27 H3          2.4328    5.2223    1.5265 H         1 <0>         0.0000
     28 H4          0.1856   -1.2740    2.0557 H         1 <0>         0.0000
     29 H5          3.5129    4.3938   -0.5272 H         1 <0>         0.0000
     30 H6          1.6674    1.1762    2.7514 H         1 <0>         0.0000
     31 H7          0.9017   -1.5664   -2.1734 H         1 <0>         0.0000
     32 H8          2.5202   -0.8596   -2.0103 H         1 <0>         0.0000
     33 H9          1.5445    1.4303   -1.9979 H         1 <0>         0.0000
     34 H10         0.9570    0.5649   -3.4395 H         1 <0>         0.0000
     35 H11         0.1741    3.9212    3.3476 H         1 <0>         0.0000
     36 H12         1.3348    3.0578    4.3608 H         1 <0>         0.0000
     37 H13         1.6586    4.7267    3.8676 H         1 <0>         0.0000
     38 H14         4.1567    2.5708   -1.7073 H         1 <0>         0.0000
     39 H15        -1.7740    1.7604   -2.5090 H         1 <0>         0.0000
@<TRIPOS>BOND
     1    1    2 ar
     2    1    4 ar
     3    1   25 1
     4    2    7 ar
     5    2   26 1
     6    3    5 ar
     7    3    8 ar
     8    3   27 1
     9    4    9 ar
    10    4   28 1
    11    5   11 ar
    12    5   29 1
    13    6    8 ar
    14    6   12 ar
    15    6   30 1
    16    7   10 ar
    17    7   13 1
    18    8   16 1
    19    9   10 ar
    20    9   17 1
    21   10   21 1
    22   11   12 ar
    23   11   22 1
    24   12   24 1
    25   13   18 2
    26   13   23 1
    27   14   15 1
    28   14   17 1
    29   14   31 1
    30   14   32 1
    31   15   21 1
    32   15   33 1
    33   15   34 1
    34   16   35 1
    35   16   36 1
    36   16   37 1
    37   17   24 1
    38   19   24 2
    39   20   24 2
    40   22   38 1
    41   23   39 1
