@<TRIPOS>MOLECULE
*****
   40    42     0     0     0
SMALL
NO_CHARGES

@<TRIPOS>ATOM
      1 C1         -3.3086    3.9477    4.0969 C.1       1 <0>         0.0000
      2 C2          3.0653    2.6949    3.0386 C.ar      1 <0>         0.0000
      3 C3          1.9477    1.7906    4.9691 C.ar      1 <0>         0.0000
      4 C4          2.1403    3.7417    2.9922 C.ar      1 <0>         0.0000
      5 C5          1.0398    2.8463    4.9553 C.ar      1 <0>         0.0000
      6 C6          2.9678    1.6885    4.0093 C.ar      1 <0>         0.0000
      7 C7          1.1104    3.8039    3.9355 C.ar      1 <0>         0.0000
      8 C8         -1.4597    2.3745    3.5793 C.2       1 <0>         0.0000
      9 C9         -0.5046    0.6931    2.5801 C.2       1 <0>         0.0000
     10 C10        -1.8972    3.7506    3.8952 C.2       1 <0>         0.0000
     11 C11         0.2160   -0.1319    1.5677 C.3       1 <0>         0.0000
     12 C12        -0.5234   -0.2584    0.2219 C.3       1 <0>         0.0000
     13 C13        -0.5333    1.0187   -0.6310 C.3       1 <0>         0.0000
     14 C14        -1.2763    2.2243   -0.0343 C.3       1 <0>         0.0000
     15 C15        -0.6254    2.8314    1.2129 C.3       1 <0>         0.0000
     16 C16         3.9142    0.5121    4.0220 C.3       1 <0>         0.0000
     17 N1         -4.4600    4.0684    4.2359 N.1       1 <0>         0.0000
     18 N2         -1.5511    1.3338    4.3848 N.2       1 <0>         0.0000
     19 N3         -0.9424    0.2699    3.7536 N.2       1 <0>         0.0000
     20 N4         -1.1710    4.8322    3.9930 N.2       1 <0>         0.0000
     21 N5         -0.8187    2.0185    2.4129 N.pl3     1 <0>         0.0000
     22 N6          0.1542    4.8682    3.8376 N.pl3     1 <0>         0.0000
     23 H1          3.8575    2.6520    2.2948 H         1 <0>         0.0000
     24 H2          1.8512    1.0262    5.7358 H         1 <0>         0.0000
     25 H3          2.2004    4.4968    2.2122 H         1 <0>         0.0000
     26 H4          0.2615    2.9033    5.7074 H         1 <0>         0.0000
     27 H5          1.2181    0.2880    1.4018 H         1 <0>         0.0000
     28 H6          0.3500   -1.1189    2.0172 H         1 <0>         0.0000
     29 H7         -0.0395   -1.0534   -0.3567 H         1 <0>         0.0000
     30 H8         -1.5516   -0.5898    0.4102 H         1 <0>         0.0000
     31 H9          0.5035    1.3138   -0.8461 H         1 <0>         0.0000
     32 H10        -0.9891    0.7826   -1.5995 H         1 <0>         0.0000
     33 H11        -1.3155    3.0160   -0.7917 H         1 <0>         0.0000
     34 H12        -2.3146    1.9597    0.1982 H         1 <0>         0.0000
     35 H13         0.4488    2.9729    1.0556 H         1 <0>         0.0000
     36 H14        -1.0562    3.8118    1.4233 H         1 <0>         0.0000
     37 H15         4.3719    0.3806    5.0080 H         1 <0>         0.0000
     38 H16         3.3812   -0.4166    3.7873 H         1 <0>         0.0000
     39 H17         4.7173    0.6336    3.2899 H         1 <0>         0.0000
     40 H18         0.5072    5.8095    3.9598 H         1 <0>         0.0000
@<TRIPOS>BOND
     1    1   10 1
     2    1   17 3
     3    2    4 ar
     4    2    6 ar
     5    2   23 1
     6    3    5 ar
     7    3    6 ar
     8    3   24 1
     9    4    7 ar
    10    4   25 1
    11    5    7 ar
    12    5   26 1
    13    6   16 1
    14    7   22 1
    15    8   10 1
    16    8   18 2
    17    8   21 1
    18    9   11 1
    19    9   19 2
    20    9   21 1
    21   10   20 2
    22   11   12 1
    23   11   27 1
    24   11   28 1
    25   12   13 1
    26   12   29 1
    27   12   30 1
    28   13   14 1
    29   13   31 1
    30   13   32 1
    31   14   15 1
    32   14   33 1
    33   14   34 1
    34   15   21 1
    35   15   35 1
    36   15   36 1
    37   16   37 1
    38   16   38 1
    39   16   39 1
    40   18   19 1
    41   20   22 1
    42   22   40 1
