@<TRIPOS>MOLECULE
*****
   28    29     0     0     0
SMALL
NO_CHARGES

@<TRIPOS>ATOM
      1 C1         -0.9655   -1.0720   -9.4592 C.ar      1 <0>         0.0000
      2 C2         -1.8678   -1.4209   -8.4496 C.ar      1 <0>         0.0000
      3 C3          0.1237   -0.2430   -9.1815 C.ar      1 <0>         0.0000
      4 C4         -0.5611   -0.1127   -6.8192 C.ar      1 <0>         0.0000
      5 C5         -1.6496   -0.9323   -7.1699 C.ar      1 <0>         0.0000
      6 C6          0.2920    0.2182   -7.8824 C.ar      1 <0>         0.0000
      7 C7          4.9345    0.6178   -2.5383 C.2       1 <0>         0.0000
      8 C8          3.6029    0.9335   -1.9878 C.2       1 <0>         0.0000
      9 C9          2.8687    0.3193   -4.1910 C.2       1 <0>         0.0000
     10 C10        -0.4561    0.3809   -5.4306 C.2       1 <0>         0.0000
     11 C11         6.1155    0.7759   -1.6286 C.3       1 <0>         0.0000
     12 N1          5.1213    0.2147   -3.7677 N.2       1 <0>         0.0000
     13 N2          4.0711    0.0542   -4.6354 N.2       1 <0>         0.0000
     14 N3          0.5716    0.4986   -4.6602 N.2       1 <0>         0.0000
     15 N4          2.5893    0.7490   -2.9301 N.am      1 <0>         0.0000
     16 N5          1.8085    0.1339   -5.0551 N.pl3     1 <0>         0.0000
     17 O1          3.3634    1.3172   -0.8482 O.2       1 <0>         0.0000
     18 F1         -2.5238   -1.2658   -6.1922 F         1 <0>         0.0000
     19 F2          1.3333    1.0557   -7.6334 F         1 <0>         0.0000
     20 H1         -1.1160   -1.4429  -10.4683 H         1 <0>         0.0000
     21 H2         -2.7239   -2.0601   -8.6387 H         1 <0>         0.0000
     22 H3          0.8283    0.0597   -9.9491 H         1 <0>         0.0000
     23 H4         -1.3949    0.6365   -4.9471 H         1 <0>         0.0000
     24 H5          6.0065    0.1409   -0.7431 H         1 <0>         0.0000
     25 H6          6.1864    1.8071   -1.2665 H         1 <0>         0.0000
     26 H7          7.0278    0.5093   -2.1641 H         1 <0>         0.0000
     27 H8          1.6232    0.9415   -2.6710 H         1 <0>         0.0000
     28 H9          2.0635   -0.0635   -6.0197 H         1 <0>         0.0000
@<TRIPOS>BOND
     1    1    3 ar
     2    1    2 ar
     3    1   20 1
     4    2    5 ar
     5    2   21 1
     6    3    6 ar
     7    3   22 1
     8    4    6 ar
     9    4    5 ar
    10    4   10 1
    11    5   18 1
    12    6   19 1
    13    7    8 1
    14    7   11 1
    15    7   12 2
    16    8   15 am
    17    8   17 2
    18    9   13 2
    19    9   15 1
    20    9   16 1
    21   10   14 2
    22   10   23 1
    23   11   24 1
    24   11   25 1
    25   11   26 1
    26   12   13 1
    27   14   16 1
    28   15   27 1
    29   16   28 1
