@<TRIPOS>MOLECULE
*****
   44    46     0     0     0
SMALL
NO_CHARGES

@<TRIPOS>ATOM
      1 C1         -1.7228    6.0482   -3.5403 C.2       1 <0>         0.0000
      2 C2         -1.5643    3.8581   -2.4903 C.2       1 <0>         0.0000
      3 C3         -1.6881    4.6228   -3.6339 C.2       1 <0>         0.0000
      4 C4         -1.6693    6.6651   -2.3187 C.2       1 <0>         0.0000
      5 C5         -1.4846    4.4804   -1.1806 C.2       1 <0>         0.0000
      6 C6         -0.2170   -1.4529    1.5032 C.2       1 <0>         0.0000
      7 C7         -1.6955    2.3576   -2.5695 C.2       1 <0>         0.0000
      8 C8          0.8302    1.4881   -0.1868 C.3       1 <0>         0.0000
      9 C9          0.2949   -0.6070   -1.5118 C.3       1 <0>         0.0000
     10 C10         0.5963    2.0537   -1.5908 C.3       1 <0>         0.0000
     11 C11        -0.8929    0.1203   -2.1408 C.3       1 <0>         0.0000
     12 C12         1.7946   -0.8111    0.5379 C.3       1 <0>         0.0000
     13 C13         0.6374   -0.0412   -0.1274 C.3       1 <0>         0.0000
     14 C14        -1.8214    3.9930   -4.9988 C.3       1 <0>         0.0000
     15 C15        -1.7285    8.1506   -2.1067 C.3       1 <0>         0.0000
     16 C16         1.7579   -2.7878    2.1250 C.3       1 <0>         0.0000
     17 N1         -1.5563    5.8835   -1.2024 N.am      1 <0>         0.0000
     18 N2          1.0797   -1.8545    1.2466 N.am      1 <0>         0.0000
     19 N3         -0.6692    1.5756   -2.1352 N.am      1 <0>         0.0000
     20 O1         -1.3567    3.9026   -0.0932 O.2       1 <0>         0.0000
     21 O2         -1.0187   -1.9746    2.2495 O.2       1 <0>         0.0000
     22 O3         -2.7217    1.8619   -3.0502 O.2       1 <0>         0.0000
     23 O4         -0.4894   -0.3376    0.7560 O.3       1 <0>         0.0000
     24 H1         -1.8075    6.6512   -4.4376 H         1 <0>         0.0000
     25 H2          1.8397    1.7585    0.1423 H         1 <0>         0.0000
     26 H3          0.1168    1.9553    0.4947 H         1 <0>         0.0000
     27 H4          0.0577   -1.6716   -1.4246 H         1 <0>         0.0000
     28 H5          1.1797   -0.5279   -2.1541 H         1 <0>         0.0000
     29 H6          0.5879    3.1398   -1.5530 H         1 <0>         0.0000
     30 H7          1.4144    1.7659   -2.2660 H         1 <0>         0.0000
     31 H8         -1.0554   -0.2236   -3.1677 H         1 <0>         0.0000
     32 H9         -1.8078   -0.0943   -1.5829 H         1 <0>         0.0000
     33 H10         2.4917   -1.2225   -0.2000 H         1 <0>         0.0000
     34 H11         2.3615   -0.1719    1.2329 H         1 <0>         0.0000
     35 H12        -1.5097    4.6897   -5.7819 H         1 <0>         0.0000
     36 H13        -2.8653    3.7143   -5.1740 H         1 <0>         0.0000
     37 H14        -1.2345    3.0761   -5.0849 H         1 <0>         0.0000
     38 H15        -2.5985    8.4237   -1.4985 H         1 <0>         0.0000
     39 H16        -1.8033    8.6715   -3.0626 H         1 <0>         0.0000
     40 H17        -0.8324    8.5107   -1.5882 H         1 <0>         0.0000
     41 H18         2.4365   -3.4238    1.5477 H         1 <0>         0.0000
     42 H19         1.0052   -3.4116    2.6086 H         1 <0>         0.0000
     43 H20         2.3364   -2.2650    2.9002 H         1 <0>         0.0000
     44 H21        -1.5167    6.3103   -0.2812 H         1 <0>         0.0000
@<TRIPOS>BOND
     1    1    3 1
     2    1    4 2
     3    1   24 1
     4    2    3 2
     5    2    5 1
     6    2    7 1
     7    3   14 1
     8    4   15 1
     9    4   17 1
    10    5   17 am
    11    5   20 2
    12    6   18 am
    13    6   21 2
    14    6   23 1
    15    7   19 am
    16    7   22 2
    17    8   10 1
    18    8   13 1
    19    8   25 1
    20    8   26 1
    21    9   11 1
    22    9   13 1
    23    9   27 1
    24    9   28 1
    25   10   19 1
    26   10   29 1
    27   10   30 1
    28   11   19 1
    29   11   31 1
    30   11   32 1
    31   12   13 1
    32   12   18 1
    33   12   33 1
    34   12   34 1
    35   13   23 1
    36   14   35 1
    37   14   36 1
    38   14   37 1
    39   15   38 1
    40   15   39 1
    41   15   40 1
    42   16   18 1
    43   16   41 1
    44   16   42 1
    45   16   43 1
    46   17   44 1
