@<TRIPOS>MOLECULE
*****
   39    41     0     0     0
SMALL
NO_CHARGES

@<TRIPOS>ATOM
      1 C1         -0.7917   -0.4776    2.4225 C.ar      1 <0>         0.0000
      2 C2         -1.7486    0.3943    1.9106 C.ar      1 <0>         0.0000
      3 C3          4.1798   -4.8235    1.3718 C.ar      1 <0>         0.0000
      4 C4          0.3067   -0.8312    1.6416 C.ar      1 <0>         0.0000
      5 C5          5.0953   -3.7964    1.6023 C.ar      1 <0>         0.0000
      6 C6          2.6448   -3.2597    0.3978 C.ar      1 <0>         0.0000
      7 C7         -1.6181    0.9354    0.6217 C.ar      1 <0>         0.0000
      8 C8          2.9397   -4.5775    0.7671 C.ar      1 <0>         0.0000
      9 C9          0.4760   -0.2953    0.3616 C.ar      1 <0>         0.0000
     10 C10        -0.4803    0.6086   -0.1570 C.ar      1 <0>         0.0000
     11 C11         4.7934   -2.4809    1.2322 C.ar      1 <0>         0.0000
     12 C12         3.5505   -2.2223    0.6290 C.ar      1 <0>         0.0000
     13 C13        -2.6749    1.8392    0.0953 C.2       1 <0>         0.0000
     14 C14         1.3844   -0.4418   -1.8945 C.3       1 <0>         0.0000
     15 C15         0.8791    0.9777   -2.0809 C.3       1 <0>         0.0000
     16 C16         1.9386   -5.6886    0.5473 C.3       1 <0>         0.0000
     17 N1          1.5757   -0.6922   -0.4589 N.pl3     1 <0>         0.0000
     18 O1         -2.8014    2.2385   -1.0468 O.2       1 <0>         0.0000
     19 O2          3.1203    0.2915    1.3677 O.2       1 <0>         0.0000
     20 O3          4.0225   -0.1589   -0.9736 O.2       1 <0>         0.0000
     21 O4         -0.3639    1.1628   -1.3897 O.3       1 <0>         0.0000
     22 O5          5.6499   -1.4396    1.4222 O.3       1 <0>         0.0000
     23 O6         -3.5709    2.2016    1.0686 O.3       1 <0>         0.0000
     24 S1          3.1704   -0.5268    0.1599 S.o2      1 <0>         0.0000
     25 H1         -0.9019   -0.8894    3.4209 H         1 <0>         0.0000
     26 H2         -2.6150    0.6657    2.5014 H         1 <0>         0.0000
     27 H3          4.4409   -5.8369    1.6680 H         1 <0>         0.0000
     28 H4          1.0514   -1.5173    2.0307 H         1 <0>         0.0000
     29 H5          6.0545   -4.0144    2.0688 H         1 <0>         0.0000
     30 H6          1.6981   -3.0261   -0.0775 H         1 <0>         0.0000
     31 H7          0.6508   -1.1632   -2.2706 H         1 <0>         0.0000
     32 H8          2.3276   -0.5852   -2.4189 H         1 <0>         0.0000
     33 H9          1.6193    1.6916   -1.7024 H         1 <0>         0.0000
     34 H10         0.6622    1.2016   -3.1273 H         1 <0>         0.0000
     35 H11         1.3371   -5.8617    1.4476 H         1 <0>         0.0000
     36 H12         1.2493   -5.4487   -0.2670 H         1 <0>         0.0000
     37 H13         2.4373   -6.6306    0.2999 H         1 <0>         0.0000
     38 H14         6.4643   -1.7572    1.8435 H         1 <0>         0.0000
     39 H15        -4.2204    2.7694    0.6128 H         1 <0>         0.0000
@<TRIPOS>BOND
     1    1    2 ar
     2    1    4 ar
     3    1   25 1
     4    2    7 ar
     5    2   26 1
     6    3    5 ar
     7    3    8 ar
     8    3   27 1
     9    4    9 ar
    10    4   28 1
    11    5   11 ar
    12    5   29 1
    13    6    8 ar
    14    6   12 ar
    15    6   30 1
    16    7   10 ar
    17    7   13 1
    18    8   16 1
    19    9   10 ar
    20    9   17 1
    21   10   21 1
    22   11   12 ar
    23   11   22 1
    24   12   24 1
    25   13   18 2
    26   13   23 1
    27   14   15 1
    28   14   17 1
    29   14   31 1
    30   14   32 1
    31   15   21 1
    32   15   33 1
    33   15   34 1
    34   16   35 1
    35   16   36 1
    36   16   37 1
    37   17   24 1
    38   19   24 2
    39   20   24 2
    40   22   38 1
    41   23   39 1
