@<TRIPOS>MOLECULE
*****
   27    28     0     0     0
SMALL
NO_CHARGES

@<TRIPOS>ATOM
      1 C1         -0.5680    2.0932   -2.4784 C.1       1 <0>         0.0000
      2 C2          2.8319   -1.5415    0.2705 C.ar      1 <0>         0.0000
      3 C3          1.4876   -1.2605    0.5225 C.ar      1 <0>         0.0000
      4 C4          3.8001   -1.3516    1.2594 C.ar      1 <0>         0.0000
      5 C5          2.0595   -0.6156    2.7901 C.ar      1 <0>         0.0000
      6 C6         -1.7616    1.8872   -1.7442 C.2       1 <0>         0.0000
      7 C7          1.0888   -0.7807    1.7853 C.ar      1 <0>         0.0000
      8 C8          3.3966   -0.8928    2.5163 C.ar      1 <0>         0.0000
      9 C9         -1.8761    1.1685   -0.5726 C.2       1 <0>         0.0000
     10 C10        -3.8230    1.9487   -1.1616 C.2       1 <0>         0.0000
     11 C11        -0.3165   -0.4777    2.1307 C.2       1 <0>         0.0000
     12 C12        -5.2831    2.1552   -0.9829 C.3       1 <0>         0.0000
     13 N1          0.4575    2.2129   -3.0248 N.1       1 <0>         0.0000
     14 N2         -3.0328    2.3705   -2.0910 N.2       1 <0>         0.0000
     15 N3         -1.2451    0.0631    1.4166 N.2       1 <0>         0.0000
     16 N4         -0.9543    0.4509    0.1388 N.pl3     1 <0>         0.0000
     17 O1         -3.1700    1.1908   -0.1842 O.3       1 <0>         0.0000
     18 Cl1         4.5954   -0.6669    3.7759 Cl        1 <0>         0.0000
     19 H1          3.1306   -1.9160   -0.7044 H         1 <0>         0.0000
     20 H2          0.7487   -1.4630   -0.2463 H         1 <0>         0.0000
     21 H3          4.8466   -1.5632    1.0652 H         1 <0>         0.0000
     22 H4          1.7703   -0.2630    3.7759 H         1 <0>         0.0000
     23 H5         -0.6331   -0.7082    3.1466 H         1 <0>         0.0000
     24 H6         -5.8136    1.1979   -0.9588 H         1 <0>         0.0000
     25 H7         -5.4911    2.6782   -0.0438 H         1 <0>         0.0000
     26 H8         -5.6556    2.7519   -1.8160 H         1 <0>         0.0000
     27 H9          0.0157    0.5745   -0.1534 H         1 <0>         0.0000
@<TRIPOS>BOND
     1    1    6 1
     2    1   13 3
     3    2    3 ar
     4    2    4 ar
     5    2   19 1
     6    3    7 ar
     7    3   20 1
     8    4    8 ar
     9    4   21 1
    10    5    7 ar
    11    5    8 ar
    12    5   22 1
    13    6    9 2
    14    6   14 1
    15    7   11 1
    16    8   18 1
    17    9   16 1
    18    9   17 1
    19   10   12 1
    20   10   14 2
    21   10   17 1
    22   11   15 2
    23   11   23 1
    24   12   24 1
    25   12   25 1
    26   12   26 1
    27   15   16 1
    28   16   27 1
