@<TRIPOS>MOLECULE
*****
   44    46     0     0     0
SMALL
NO_CHARGES

@<TRIPOS>ATOM
      1 C1         -1.1095   -2.7045   -6.2049 C.ar      1 <0>         0.0000
      2 C2          0.2184   -3.1176   -6.1235 C.ar      1 <0>         0.0000
      3 C3         -1.6007   -1.8381   -5.2253 C.ar      1 <0>         0.0000
      4 C4          0.9962   -2.6402   -5.0632 C.ar      1 <0>         0.0000
      5 C5         -0.7452   -1.4144   -4.2030 C.ar      1 <0>         0.0000
      6 C6         -0.9447   -1.0598    0.6288 C.3       1 <0>         0.0000
      7 C7         -1.9204   -2.2309    0.7930 C.3       1 <0>         0.0000
      8 C8         -3.0625   -4.2030   -0.3475 C.3       1 <0>         0.0000
      9 C9         -1.2378   -0.2825   -0.6565 C.3       1 <0>         0.0000
     10 C10        -2.6539   -5.2658   -1.3740 C.3       1 <0>         0.0000
     11 C11        -2.2358   -2.2187   -1.6937 C.3       1 <0>         0.0000
     12 C12        -0.7075   -3.9440   -0.6910 C.3       1 <0>         0.0000
     13 C13        -1.9840   -3.1113   -0.4628 C.3       1 <0>         0.0000
     14 C14        -0.3772   -7.3146   -2.8360 C.3       1 <0>         0.0000
     15 C15        -1.2229   -0.5023   -3.0905 C.3       1 <0>         0.0000
     16 N1          0.5388   -1.8031   -4.1274 N.ar      1 <0>         0.0000
     17 N2         -1.2126   -1.1871   -1.8003 N.3       1 <0>         0.0000
     18 N3         -1.1706   -5.1612   -1.4211 N.pl3     1 <0>         0.0000
     19 O1          0.9160   -4.9967   -2.8709 O.2       1 <0>         0.0000
     20 O2         -1.3500   -5.1687   -4.0197 O.2       1 <0>         0.0000
     21 S1         -0.4538   -5.5156   -2.9043 S.o2      1 <0>         0.0000
     22 H1         -1.7569   -3.0636   -7.0007 H         1 <0>         0.0000
     23 H2          0.6433   -3.8073   -6.8470 H         1 <0>         0.0000
     24 H3         -2.6353   -1.5050   -5.2420 H         1 <0>         0.0000
     25 H4          2.0325   -2.9549   -4.9560 H         1 <0>         0.0000
     26 H5         -1.0119   -0.3881    1.4923 H         1 <0>         0.0000
     27 H6          0.0846   -1.4328    0.5831 H         1 <0>         0.0000
     28 H7         -1.6492   -2.8404    1.6638 H         1 <0>         0.0000
     29 H8         -2.9271   -1.8352    0.9868 H         1 <0>         0.0000
     30 H9         -4.0717   -3.8231   -0.5342 H         1 <0>         0.0000
     31 H10        -3.0457   -4.6254    0.6635 H         1 <0>         0.0000
     32 H11        -2.2162    0.2343   -0.5640 H         1 <0>         0.0000
     33 H12        -0.4764    0.4894   -0.8070 H         1 <0>         0.0000
     34 H13        -2.9537   -6.2746   -1.0725 H         1 <0>         0.0000
     35 H14        -3.0837   -5.0574   -2.3581 H         1 <0>         0.0000
     36 H15        -2.2154   -2.8234   -2.6051 H         1 <0>         0.0000
     37 H16        -3.2518   -1.7783   -1.6170 H         1 <0>         0.0000
     38 H17         0.0457   -3.4030   -1.2631 H         1 <0>         0.0000
     39 H18        -0.2655   -4.2597    0.2610 H         1 <0>         0.0000
     40 H19         0.0396   -7.6482   -3.7882 H         1 <0>         0.0000
     41 H20         0.2681   -7.5972   -2.0045 H         1 <0>         0.0000
     42 H21        -1.3861   -7.7091   -2.7077 H         1 <0>         0.0000
     43 H22        -0.5299    0.3417   -3.0227 H         1 <0>         0.0000
     44 H23        -2.2205   -0.0937   -3.3393 H         1 <0>         0.0000
@<TRIPOS>BOND
     1    1    2 ar
     2    1    3 ar
     3    1   22 1
     4    2    4 ar
     5    2   23 1
     6    3    5 ar
     7    3   24 1
     8    4   16 ar
     9    4   25 1
    10    5   15 1
    11    5   16 ar
    12    6    7 1
    13    6    9 1
    14    6   26 1
    15    6   27 1
    16    7   13 1
    17    7   28 1
    18    7   29 1
    19    8   10 1
    20    8   13 1
    21    8   30 1
    22    8   31 1
    23    9   17 1
    24    9   32 1
    25    9   33 1
    26   10   18 1
    27   10   34 1
    28   10   35 1
    29   11   13 1
    30   11   17 1
    31   11   36 1
    32   11   37 1
    33   12   13 1
    34   12   18 1
    35   12   38 1
    36   12   39 1
    37   14   21 1
    38   14   40 1
    39   14   41 1
    40   14   42 1
    41   15   17 1
    42   15   43 1
    43   15   44 1
    44   18   21 1
    45   19   21 2
    46   20   21 2
