@<TRIPOS>MOLECULE
*****
   20    20     0     0     0
SMALL
NO_CHARGES

@<TRIPOS>ATOM
      1 C1          0.4352   -0.3815    1.0368 C.ar      1 <0>         0.0000
      2 C2          1.5998    0.0266    1.6826 C.ar      1 <0>         0.0000
      3 C3         -0.4133   -1.2856    1.6802 C.ar      1 <0>         0.0000
      4 C4          1.8896   -0.4795    2.9611 C.ar      1 <0>         0.0000
      5 C5          0.9664   -1.3962    3.5402 C.ar      1 <0>         0.0000
      6 C6          1.1543   -2.0126    4.9046 C.2       1 <0>         0.0000
      7 C7          0.0808   -2.9864    5.3565 C.3       1 <0>         0.0000
      8 C8          3.9180    0.7759    3.0801 C.3       1 <0>         0.0000
      9 N1         -0.1481   -1.7726    2.8928 N.ar      1 <0>         0.0000
     10 O1          2.1135   -1.7487    5.6165 O.2       1 <0>         0.0000
     11 O2          2.9939   -0.1421    3.6616 O.3       1 <0>         0.0000
     12 H1          0.1904   -0.0033    0.0480 H         1 <0>         0.0000
     13 H2          2.2687    0.7270    1.1962 H         1 <0>         0.0000
     14 H3         -1.3315   -1.6274    1.2065 H         1 <0>         0.0000
     15 H4         -0.0109   -3.8180    4.6519 H         1 <0>         0.0000
     16 H5         -0.8978   -2.4984    5.3840 H         1 <0>         0.0000
     17 H6          0.3482   -3.3558    6.3475 H         1 <0>         0.0000
     18 H7          4.7118    0.8920    3.8179 H         1 <0>         0.0000
     19 H8          3.4500    1.7497    2.8917 H         1 <0>         0.0000
     20 H9          4.3410    0.3818    2.1481 H         1 <0>         0.0000
@<TRIPOS>BOND
     1    1    2 ar
     2    1    3 ar
     3    1   12 1
     4    2    4 ar
     5    2   13 1
     6    3    9 ar
     7    3   14 1
     8    4    5 ar
     9    4   11 1
    10    5    6 1
    11    5    9 ar
    12    6    7 1
    13    6   10 2
    14    7   15 1
    15    7   16 1
    16    7   17 1
    17    8   11 1
    18    8   18 1
    19    8   19 1
    20    8   20 1
