@<TRIPOS>MOLECULE
*****
   37    39     0     0     0
SMALL
NO_CHARGES

@<TRIPOS>ATOM
      1 C1          3.3189   -4.7239   -4.9998 C.ar      1 <0>         0.0000
      2 C2          4.6965   -4.8455   -5.2304 C.ar      1 <0>         0.0000
      3 C3          2.7859   -4.8522   -3.7124 C.ar      1 <0>         0.0000
      4 C4         -2.4943   -8.0219   -3.8391 C.ar      1 <0>         0.0000
      5 C5         -1.2686   -8.6574   -4.0333 C.ar      1 <0>         0.0000
      6 C6          5.5776   -5.0725   -4.1656 C.ar      1 <0>         0.0000
      7 C7         -1.4440   -6.4356   -2.3818 C.ar      1 <0>         0.0000
      8 C8          3.6579   -5.1198   -2.6509 C.ar      1 <0>         0.0000
      9 C9         -0.2009   -7.0759   -2.5621 C.ar      1 <0>         0.0000
     10 C10        -2.6018   -6.8947   -3.0055 C.ar      1 <0>         0.0000
     11 C11        -0.0992   -8.2059   -3.4060 C.ar      1 <0>         0.0000
     12 C12         5.0275   -5.2028   -2.8998 C.ar      1 <0>         0.0000
     13 C13         3.4106   -5.2337   -1.1761 C.2       1 <0>         0.0000
     14 C14         0.9924   -6.5673   -1.8865 C.2       1 <0>         0.0000
     15 C15        -3.9325   -6.2066   -2.8078 C.3       1 <0>         0.0000
     16 C16         1.2105   -8.9259   -3.6475 C.3       1 <0>         0.0000
     17 N1          4.4492   -5.3415   -0.3941 N.2       1 <0>         0.0000
     18 N2          0.9495   -5.5432   -1.1004 N.2       1 <0>         0.0000
     19 N3          2.1695   -5.0911   -0.6129 N.pl3     1 <0>         0.0000
     20 O1          6.5107   -6.6683   -1.1897 O.2       1 <0>         0.0000
     21 O2          6.6624   -4.1451   -1.0618 O.2       1 <0>         0.0000
     22 S1          5.8810   -5.3546   -1.3181 S.o2      1 <0>         0.0000
     23 H1          2.6517   -4.5207   -5.8326 H         1 <0>         0.0000
     24 H2          5.0858   -4.7442   -6.2396 H         1 <0>         0.0000
     25 H3          1.7203   -4.7367   -3.5531 H         1 <0>         0.0000
     26 H4         -3.3800   -8.4030   -4.3437 H         1 <0>         0.0000
     27 H5         -1.2167   -9.5252   -4.6865 H         1 <0>         0.0000
     28 H6          6.6507   -5.1312   -4.3205 H         1 <0>         0.0000
     29 H7         -1.4809   -5.5639   -1.7351 H         1 <0>         0.0000
     30 H8          1.9359   -7.0802   -2.0804 H         1 <0>         0.0000
     31 H9         -4.6872   -6.9067   -2.4332 H         1 <0>         0.0000
     32 H10        -3.8539   -5.3833   -2.0931 H         1 <0>         0.0000
     33 H11        -4.3093   -5.7971   -3.7519 H         1 <0>         0.0000
     34 H12         1.9697   -8.2633   -4.0778 H         1 <0>         0.0000
     35 H13         1.6256   -9.3435   -2.7238 H         1 <0>         0.0000
     36 H14         1.0672   -9.7549   -4.3444 H         1 <0>         0.0000
     37 H15         2.1569   -4.8867    0.3811 H         1 <0>         0.0000
@<TRIPOS>BOND
     1    1    2 ar
     2    1    3 ar
     3    1   23 1
     4    2    6 ar
     5    2   24 1
     6    3    8 ar
     7    3   25 1
     8    4    5 ar
     9    4   10 ar
    10    4   26 1
    11    5   11 ar
    12    5   27 1
    13    6   12 ar
    14    6   28 1
    15    7    9 ar
    16    7   10 ar
    17    7   29 1
    18    8   12 ar
    19    8   13 1
    20    9   11 ar
    21    9   14 1
    22   10   15 1
    23   11   16 1
    24   12   22 1
    25   13   17 2
    26   13   19 1
    27   14   18 2
    28   14   30 1
    29   15   31 1
    30   15   32 1
    31   15   33 1
    32   16   34 1
    33   16   35 1
    34   16   36 1
    35   17   22 1
    36   18   19 1
    37   19   37 1
    38   20   22 2
    39   21   22 2
