@<TRIPOS>MOLECULE
*****
   25    26     0     0     0
SMALL
NO_CHARGES

@<TRIPOS>ATOM
      1 C1         -0.7862   -1.4527   -5.1602 C.ar      1 <0>         0.0000
      2 C2         -1.3675   -1.9299   -6.3361 C.ar      1 <0>         0.0000
      3 C3         -3.1308   -0.2732   -6.1233 C.ar      1 <0>         0.0000
      4 C4         -1.3569   -0.3953   -4.4425 C.ar      1 <0>         0.0000
      5 C5         -2.5379    0.1682   -4.9463 C.ar      1 <0>         0.0000
      6 C6         -2.5347   -1.3302   -6.8126 C.ar      1 <0>         0.0000
      7 C7          1.4858    0.1298   -0.5537 C.3       1 <0>         0.0000
      8 C8          2.0583   -0.2332   -1.9211 C.3       1 <0>         0.0000
      9 C9          0.6512    1.5682   -2.1533 C.3       1 <0>         0.0000
     10 C10        -0.5547    1.3958   -3.0659 C.3       1 <0>         0.0000
     11 O1          0.3860    0.9850   -0.8836 O.3       1 <0>         0.0000
     12 O2          1.8247    0.9617   -2.6787 O.3       1 <0>         0.0000
     13 O3         -0.7736   -0.0099   -3.2694 O.3       1 <0>         0.0000
     14 F1         -3.1370    1.1756   -4.2608 F         1 <0>         0.0000
     15 Cl1        -3.2714   -1.9098   -8.2961 Cl        1 <0>         0.0000
     16 H1          0.1288   -1.8935   -4.7767 H         1 <0>         0.0000
     17 H2         -0.9132   -2.7504   -6.8814 H         1 <0>         0.0000
     18 H3         -4.0447    0.1955   -6.4723 H         1 <0>         0.0000
     19 H4          1.0983   -0.7263    0.0034 H         1 <0>         0.0000
     20 H5          2.2180    0.6715    0.0598 H         1 <0>         0.0000
     21 H6          3.1337   -0.4244   -1.9132 H         1 <0>         0.0000
     22 H7          1.5251   -1.0795   -2.3681 H         1 <0>         0.0000
     23 H8          0.8564    2.6436   -2.0438 H         1 <0>         0.0000
     24 H9         -0.3466    1.8876   -4.0222 H         1 <0>         0.0000
     25 H10        -1.4315    1.8588   -2.6035 H         1 <0>         0.0000
@<TRIPOS>BOND
     1    1    2 ar
     2    1    4 ar
     3    1   16 1
     4    2    6 ar
     5    2   17 1
     6    3    5 ar
     7    3    6 ar
     8    3   18 1
     9    4    5 ar
    10    4   13 1
    11    5   14 1
    12    6   15 1
    13    7    8 1
    14    7   11 1
    15    7   19 1
    16    7   20 1
    17    8   12 1
    18    8   21 1
    19    8   22 1
    20    9   10 1
    21    9   12 1
    22    9   11 1
    23    9   23 1
    24   10   13 1
    25   10   24 1
    26   10   25 1
