@<TRIPOS>MOLECULE
*****
   38    39     0     0     0
SMALL
NO_CHARGES

@<TRIPOS>ATOM
      1 C1          2.3970    2.6457    0.6838 C.1       1 <0>         0.0000
      2 C2          1.1891    2.3013   -1.5164 C.2       1 <0>         0.0000
      3 C3         -1.9254    0.5378   -1.1850 C.3       1 <0>         0.0000
      4 C4          0.0041    0.3219    2.9065 C.3       1 <0>         0.0000
      5 C5         -1.5640   -0.6556   -0.2906 C.3       1 <0>         0.0000
      6 C6         -0.6289    0.7822    1.5888 C.3       1 <0>         0.0000
      7 C7         -0.7466    0.9255   -2.0792 C.3       1 <0>         0.0000
      8 C8         -0.1326   -1.1952    2.8307 C.3       1 <0>         0.0000
      9 C9          0.8479    0.0742   -0.3951 C.3       1 <0>         0.0000
     10 C10        -0.3122   -0.3242    0.5443 C.3       1 <0>         0.0000
     11 C11         1.5024   -3.7973    1.7328 C.3       1 <0>         0.0000
     12 C12         2.5326    2.4716   -0.7642 C.3       1 <0>         0.0000
     13 N1          2.2758    2.7717    1.8337 N.1       1 <0>         0.0000
     14 N2          0.4587    1.1772   -1.2747 N.am      1 <0>         0.0000
     15 N3          0.1989   -1.4498    1.4094 N.pl3     1 <0>         0.0000
     16 O1          0.8604    3.1728   -2.3188 O.2       1 <0>         0.0000
     17 O2          0.3889   -3.0550   -0.5499 O.2       1 <0>         0.0000
     18 O3         -1.1214   -3.6998    1.3922 O.2       1 <0>         0.0000
     19 S1          0.0956   -3.0473    0.8902 S.o2      1 <0>         0.0000
     20 H1         -2.7796    0.2797   -1.8199 H         1 <0>         0.0000
     21 H2         -2.2223    1.4037   -0.5833 H         1 <0>         0.0000
     22 H3          1.0576    0.6088    2.9499 H         1 <0>         0.0000
     23 H4         -0.4991    0.7405    3.7816 H         1 <0>         0.0000
     24 H5         -2.3923   -0.9153    0.3763 H         1 <0>         0.0000
     25 H6         -1.3709   -1.5233   -0.9253 H         1 <0>         0.0000
     26 H7         -1.7138    0.8619    1.7079 H         1 <0>         0.0000
     27 H8         -0.2623    1.7578    1.2690 H         1 <0>         0.0000
     28 H9         -0.5262    0.1092   -2.7813 H         1 <0>         0.0000
     29 H10        -0.9536    1.8253   -2.6558 H         1 <0>         0.0000
     30 H11         0.5692   -1.7180    3.4853 H         1 <0>         0.0000
     31 H12        -1.1502   -1.5295    3.0700 H         1 <0>         0.0000
     32 H13         1.7050    0.3468    0.2168 H         1 <0>         0.0000
     33 H14         1.1213   -0.7986   -0.9982 H         1 <0>         0.0000
     34 H15         1.5396   -4.8284    1.3767 H         1 <0>         0.0000
     35 H16         2.4048   -3.2559    1.4502 H         1 <0>         0.0000
     36 H17         1.3426   -3.7818    2.8106 H         1 <0>         0.0000
     37 H18         3.1974    1.6230   -0.9546 H         1 <0>         0.0000
     38 H19         2.9935    3.3663   -1.1861 H         1 <0>         0.0000
@<TRIPOS>BOND
     1    1   12 1
     2    1   13 3
     3    2   12 1
     4    2   14 am
     5    2   16 2
     6    3    5 1
     7    3    7 1
     8    3   20 1
     9    3   21 1
    10    4    6 1
    11    4    8 1
    12    4   22 1
    13    4   23 1
    14    5   10 1
    15    5   24 1
    16    5   25 1
    17    6   10 1
    18    6   26 1
    19    6   27 1
    20    7   14 1
    21    7   28 1
    22    7   29 1
    23    8   15 1
    24    8   30 1
    25    8   31 1
    26    9   10 1
    27    9   14 1
    28    9   32 1
    29    9   33 1
    30   10   15 1
    31   11   19 1
    32   11   34 1
    33   11   35 1
    34   11   36 1
    35   12   37 1
    36   12   38 1
    37   15   19 1
    38   17   19 2
    39   18   19 2
