@<TRIPOS>MOLECULE
*****
   27    28     0     0     0
SMALL
NO_CHARGES

@<TRIPOS>ATOM
      1 C1         -0.1859    2.9545   -1.3863 C.1       1 <0>         0.0000
      2 C2          1.4545   -2.5079    0.9152 C.ar      1 <0>         0.0000
      3 C3          0.6497   -1.8428    1.8416 C.ar      1 <0>         0.0000
      4 C4          2.2309   -1.7866    0.0027 C.ar      1 <0>         0.0000
      5 C5          1.4124    0.2904    0.9732 C.ar      1 <0>         0.0000
      6 C6         -0.7331    1.6832   -1.0617 C.2       1 <0>         0.0000
      7 C7          0.5992   -0.4397    1.8567 C.ar      1 <0>         0.0000
      8 C8          2.2079   -0.3902    0.0528 C.ar      1 <0>         0.0000
      9 C9         -1.1510    1.2665    0.1780 C.2       1 <0>         0.0000
     10 C10        -1.3569   -0.3516   -1.2763 C.2       1 <0>         0.0000
     11 C11        -0.3215    0.2344    2.7967 C.2       1 <0>         0.0000
     12 C12        -1.6335   -1.7512   -1.6882 C.3       1 <0>         0.0000
     13 N1          0.2599    4.0086   -1.6089 N.1       1 <0>         0.0000
     14 N2         -0.8891    0.6348   -1.9753 N.2       1 <0>         0.0000
     15 N3         -1.0928    1.2557    2.6348 N.2       1 <0>         0.0000
     16 N4         -1.1900    1.8956    1.4086 N.pl3     1 <0>         0.0000
     17 O1         -1.5745   -0.0294    0.0498 O.3       1 <0>         0.0000
     18 Cl1         3.1802    0.5319   -1.0734 Cl        1 <0>         0.0000
     19 H1          1.4787   -3.5941    0.8960 H         1 <0>         0.0000
     20 H2          0.0344   -2.4093    2.5357 H         1 <0>         0.0000
     21 H3          2.8513   -2.2945   -0.7287 H         1 <0>         0.0000
     22 H4          1.4328    1.3735    1.0067 H         1 <0>         0.0000
     23 H5         -0.3840   -0.1848    3.8009 H         1 <0>         0.0000
     24 H6         -0.9717   -2.4367   -1.1478 H         1 <0>         0.0000
     25 H7         -2.6675   -2.0315   -1.4657 H         1 <0>         0.0000
     26 H8         -1.4538   -1.8459   -2.7593 H         1 <0>         0.0000
     27 H9         -1.8205    2.6860    1.4738 H         1 <0>         0.0000
@<TRIPOS>BOND
     1    1    6 1
     2    1   13 3
     3    2    3 ar
     4    2    4 ar
     5    2   19 1
     6    3    7 ar
     7    3   20 1
     8    4    8 ar
     9    4   21 1
    10    5    7 ar
    11    5    8 ar
    12    5   22 1
    13    6    9 2
    14    6   14 1
    15    7   11 1
    16    8   18 1
    17    9   16 1
    18    9   17 1
    19   10   12 1
    20   10   14 2
    21   10   17 1
    22   11   15 2
    23   11   23 1
    24   12   24 1
    25   12   25 1
    26   12   26 1
    27   15   16 1
    28   16   27 1
