@<TRIPOS>MOLECULE
*****
   36    38     0     0     0
SMALL
NO_CHARGES

@<TRIPOS>ATOM
      1 C1         -4.6571    9.5878   -1.0975 C.1       1 <0>         0.0000
      2 C2         -0.1271    1.7907   -1.5064 C.ar      1 <0>         0.0000
      3 C3         -0.9765    0.6881   -1.7709 C.ar      1 <0>         0.0000
      4 C4         -0.6591    3.0020   -1.1104 C.ar      1 <0>         0.0000
      5 C5         -2.3436    0.8135   -1.6307 C.ar      1 <0>         0.0000
      6 C6         -4.0555    4.4072   -0.4294 C.ar      1 <0>         0.0000
      7 C7         -3.8732    8.5981   -0.4586 C.2       1 <0>         0.0000
      8 C8         -2.0635    3.1622   -0.9610 C.ar      1 <0>         0.0000
      9 C9         -2.6866    4.3841   -0.5573 C.ar      1 <0>         0.0000
     10 C10        -2.9195    2.0452   -1.2213 C.ar      1 <0>         0.0000
     11 C11        -4.8281    3.2381   -0.7049 C.ar      1 <0>         0.0000
     12 C12        -3.5937    8.4255    0.9366 C.2       1 <0>         0.0000
     13 C13        -3.2236    7.5324   -1.0955 C.2       1 <0>         0.0000
     14 C14        -6.3273    3.2874   -0.5476 C.3       1 <0>         0.0000
     15 C15        -4.0498    9.2920    2.0668 C.3       1 <0>         0.0000
     16 C16        -1.8397    5.6135   -0.2812 C.3       1 <0>         0.0000
     17 N1         -5.3048   10.3895   -1.6486 N.1       1 <0>         0.0000
     18 N2         -4.2812    2.1019   -1.0929 N.ar      1 <0>         0.0000
     19 N3         -2.8468    7.3487    1.1376 N.2       1 <0>         0.0000
     20 N4         -2.6099    6.8266   -0.1166 N.pl3     1 <0>         0.0000
     21 N5         -3.1014    7.2093   -2.4369 N.pl3     1 <0>         0.0000
     22 H1          0.9485    1.6802   -1.6148 H         1 <0>         0.0000
     23 H2         -0.5456   -0.2595   -2.0830 H         1 <0>         0.0000
     24 H3          0.0092    3.8329   -0.9054 H         1 <0>         0.0000
     25 H4         -3.0163   -0.0169   -1.8233 H         1 <0>         0.0000
     26 H5         -4.5649    5.3104   -0.1066 H         1 <0>         0.0000
     27 H6         -6.7625    4.0790   -1.1680 H         1 <0>         0.0000
     28 H7         -6.7639    2.3295   -0.8338 H         1 <0>         0.0000
     29 H8         -6.6006    3.5058    0.4912 H         1 <0>         0.0000
     30 H9         -5.1421    9.3632    2.0897 H         1 <0>         0.0000
     31 H10        -3.7017    8.8780    3.0151 H         1 <0>         0.0000
     32 H11        -3.6592   10.3094    1.9601 H         1 <0>         0.0000
     33 H12        -1.2638    5.4830    0.6383 H         1 <0>         0.0000
     34 H13        -1.1286    5.7717   -1.0990 H         1 <0>         0.0000
     35 H14        -3.6734    7.8003   -3.0325 H         1 <0>         0.0000
     36 H15        -3.2550    6.2257   -2.6442 H         1 <0>         0.0000
@<TRIPOS>BOND
     1    1    7 1
     2    1   17 3
     3    2    3 ar
     4    2    4 ar
     5    2   22 1
     6    3    5 ar
     7    3   23 1
     8    4    8 ar
     9    4   24 1
    10    5   10 ar
    11    5   25 1
    12    6    9 ar
    13    6   11 ar
    14    6   26 1
    15    7   12 1
    16    7   13 2
    17    8    9 ar
    18    8   10 ar
    19    9   16 1
    20   10   18 ar
    21   11   14 1
    22   11   18 ar
    23   12   15 1
    24   12   19 2
    25   13   20 1
    26   13   21 1
    27   14   27 1
    28   14   28 1
    29   14   29 1
    30   15   30 1
    31   15   31 1
    32   15   32 1
    33   16   20 1
    34   16   33 1
    35   16   34 1
    36   19   20 1
    37   21   35 1
    38   21   36 1
