@<TRIPOS>MOLECULE
*****
   28    29     0     0     0
SMALL
NO_CHARGES

@<TRIPOS>ATOM
      1 C1         -1.0542   -0.8877   -9.2784 C.ar      1 <0>         0.0000
      2 C2          0.1272   -0.2055   -8.9798 C.ar      1 <0>         0.0000
      3 C3         -2.0210   -1.0921   -8.2898 C.ar      1 <0>         0.0000
      4 C4         -0.5993    0.0678   -6.6384 C.ar      1 <0>         0.0000
      5 C5          0.3161    0.2542   -7.6833 C.ar      1 <0>         0.0000
      6 C6         -1.7760   -0.6096   -7.0120 C.ar      1 <0>         0.0000
      7 C7          4.8920    0.1282   -2.2494 C.2       1 <0>         0.0000
      8 C8          5.1573   -0.2269   -3.6528 C.2       1 <0>         0.0000
      9 C9          2.7751    0.1480   -3.8906 C.2       1 <0>         0.0000
     10 C10        -0.4839    0.5622   -5.2451 C.2       1 <0>         0.0000
     11 C11         6.0519    0.1280   -1.2993 C.3       1 <0>         0.0000
     12 N1          3.7020    0.4412   -1.8119 N.2       1 <0>         0.0000
     13 N2          2.6016    0.4527   -2.6342 N.2       1 <0>         0.0000
     14 N3          0.5079    0.5812   -4.4251 N.2       1 <0>         0.0000
     15 N4          3.9961   -0.1855   -4.4279 N.am      1 <0>         0.0000
     16 N5          1.7208    0.1026   -4.7887 N.pl3     1 <0>         0.0000
     17 O1          6.2423   -0.5262   -4.1410 O.2       1 <0>         0.0000
     18 F1          1.4654    0.9476   -7.4231 F         1 <0>         0.0000
     19 F2         -2.7164   -0.8057   -6.0606 F         1 <0>         0.0000
     20 H1         -1.2250   -1.2550  -10.2856 H         1 <0>         0.0000
     21 H2          0.8868   -0.0126   -9.7302 H         1 <0>         0.0000
     22 H3         -2.9496   -1.6152   -8.4928 H         1 <0>         0.0000
     23 H4         -1.4128    0.9142   -4.8042 H         1 <0>         0.0000
     24 H5          6.8259    0.8255   -1.6367 H         1 <0>         0.0000
     25 H6          6.5179   -0.8624   -1.2615 H         1 <0>         0.0000
     26 H7          5.7075    0.4118   -0.3039 H         1 <0>         0.0000
     27 H8          4.1124   -0.4116   -5.4131 H         1 <0>         0.0000
     28 H9          1.9507   -0.0196   -5.7706 H         1 <0>         0.0000
@<TRIPOS>BOND
     1    1    3 ar
     2    1    2 ar
     3    1   20 1
     4    2    5 ar
     5    2   21 1
     6    3    6 ar
     7    3   22 1
     8    4    6 ar
     9    4    5 ar
    10    4   10 1
    11    5   18 1
    12    6   19 1
    13    7    8 1
    14    7   11 1
    15    7   12 2
    16    8   15 am
    17    8   17 2
    18    9   13 2
    19    9   15 1
    20    9   16 1
    21   10   14 2
    22   10   23 1
    23   11   24 1
    24   11   25 1
    25   11   26 1
    26   12   13 1
    27   14   16 1
    28   15   27 1
    29   16   28 1
