@<TRIPOS>MOLECULE
*****
   41    44     0     0     0
SMALL
NO_CHARGES

@<TRIPOS>ATOM
      1 C1         -2.9060   -5.4385    0.1284 C.ar      1 <0>         0.0000
      2 C2         -3.0377   -4.7080    1.3299 C.ar      1 <0>         0.0000
      3 C3          2.1565   -2.3967    0.8467 C.ar      1 <0>         0.0000
      4 C4         -1.6717   -5.9357   -0.2910 C.ar      1 <0>         0.0000
      5 C5         -1.9387   -4.4524    2.1521 C.ar      1 <0>         0.0000
      6 C6          1.0909   -1.5510    1.1522 C.ar      1 <0>         0.0000
      7 C7         -0.0964   -2.4030   -0.7917 C.ar      1 <0>         0.0000
      8 C8          2.1217   -3.2600   -0.2577 C.ar      1 <0>         0.0000
      9 C9         -0.5556   -5.6872    0.5182 C.ar      1 <0>         0.0000
     10 C10        -0.7056   -4.9482    1.7210 C.ar      1 <0>         0.0000
     11 C11         1.0032   -3.2089   -1.1120 C.ar      1 <0>         0.0000
     12 C12        -0.0442   -1.5967    0.3408 C.ar      1 <0>         0.0000
     13 C13         1.4150   -5.4622    1.3356 C.2       1 <0>         0.0000
     14 C14         3.2449   -4.2186   -0.4705 C.2       1 <0>         0.0000
     15 C15         4.0217   -4.1243   -1.7587 C.3       1 <0>         0.0000
     16 C16         3.1888   -4.6575   -2.9385 C.3       1 <0>         0.0000
     17 C17         1.9217   -3.8588   -3.2313 C.3       1 <0>         0.0000
     18 C18         0.9475   -4.1283    3.4504 C.3       1 <0>         0.0000
     19 N1          0.7820   -6.0070    0.3212 N.2       1 <0>         0.0000
     20 N2          3.5917   -5.1597    0.3369 N.2       1 <0>         0.0000
     21 N3          0.5770   -4.8213    2.2332 N.pl3     1 <0>         0.0000
     22 N4          2.8228   -5.3887    1.4999 N.pl3     1 <0>         0.0000
     23 O1          0.8871   -3.9838   -2.2349 O.3       1 <0>         0.0000
     24 Br1        -1.5664   -0.5244    0.7978 Br        1 <0>         0.0000
     25 H1         -3.7874   -5.6082   -0.4843 H         1 <0>         0.0000
     26 H2         -4.0140   -4.3260    1.6154 H         1 <0>         0.0000
     27 H3          3.0262   -2.4180    1.4973 H         1 <0>         0.0000
     28 H4         -1.5622   -6.4815   -1.2234 H         1 <0>         0.0000
     29 H5         -2.0422   -3.8733    3.0654 H         1 <0>         0.0000
     30 H6          1.1326   -0.8913    2.0123 H         1 <0>         0.0000
     31 H7         -0.9717   -2.4360   -1.4306 H         1 <0>         0.0000
     32 H8          4.3050   -3.0813   -1.9503 H         1 <0>         0.0000
     33 H9          4.9331   -4.7185   -1.6549 H         1 <0>         0.0000
     34 H10         3.8042   -4.6355   -3.8470 H         1 <0>         0.0000
     35 H11         2.9162   -5.7008   -2.7494 H         1 <0>         0.0000
     36 H12         2.1549   -2.7947   -3.3713 H         1 <0>         0.0000
     37 H13         1.4550   -4.2292   -4.1474 H         1 <0>         0.0000
     38 H14         0.6046   -4.6794    4.3332 H         1 <0>         0.0000
     39 H15         2.0338   -4.0387    3.4793 H         1 <0>         0.0000
     40 H16         0.5053   -3.1282    3.4583 H         1 <0>         0.0000
     41 H17         3.1924   -6.2401    1.9129 H         1 <0>         0.0000
@<TRIPOS>BOND
     1    1    2 ar
     2    1    4 ar
     3    1   25 1
     4    2    5 ar
     5    2   26 1
     6    3    6 ar
     7    3    8 ar
     8    3   27 1
     9    4    9 ar
    10    4   28 1
    11    5   10 ar
    12    5   29 1
    13    6   12 ar
    14    6   30 1
    15    7   11 ar
    16    7   12 ar
    17    7   31 1
    18    8   11 ar
    19    8   14 1
    20    9   10 ar
    21    9   19 1
    22   10   21 1
    23   11   23 1
    24   12   24 1
    25   13   19 2
    26   13   21 1
    27   13   22 1
    28   14   15 1
    29   14   20 2
    30   15   16 1
    31   15   32 1
    32   15   33 1
    33   16   17 1
    34   16   34 1
    35   16   35 1
    36   17   23 1
    37   17   36 1
    38   17   37 1
    39   18   21 1
    40   18   38 1
    41   18   39 1
    42   18   40 1
    43   20   22 1
    44   22   41 1
