@<TRIPOS>MOLECULE
*****
   22    23     0     0     0
SMALL
NO_CHARGES

@<TRIPOS>ATOM
      1 C1          1.3345    1.1757    0.8436 C.2       1 <0>         0.0000
      2 C2          0.5266    1.0883    2.0220 C.2       1 <0>         0.0000
      3 C3          0.9500    2.2190    0.0550 C.2       1 <0>         0.0000
      4 C4         -0.4498    2.0506    2.0985 C.2       1 <0>         0.0000
      5 C5         -1.3021   -3.7472    0.4973 C.2       1 <0>         0.0000
      6 C6         -0.8542   -1.9713    2.0444 C.2       1 <0>         0.0000
      7 C7         -1.6901   -4.9862   -0.2462 C.3       1 <0>         0.0000
      8 N1         -0.8458   -2.6678   -0.0674 N.2       1 <0>         0.0000
      9 N2         -0.5981   -1.6435    0.8105 N.2       1 <0>         0.0000
     10 N3         -0.6586   -1.0946    3.1088 N.pl3     1 <0>         0.0000
     11 O1          0.7358    0.3462    4.5837 O.2       1 <0>         0.0000
     12 O2          1.9332   -0.9751    2.7595 O.2       1 <0>         0.0000
     13 S1         -0.4053    3.1073    0.7170 S.3       1 <0>         0.0000
     14 S2         -1.4396   -3.6117    2.2524 S.3       1 <0>         0.0000
     15 S3          0.8004   -0.1850    3.2260 S.o2      1 <0>         0.0000
     16 Cl1         1.6385    2.6953   -1.4545 Cl        1 <0>         0.0000
     17 Cl2        -1.6439    2.2693    3.3139 Cl        1 <0>         0.0000
     18 H1          2.1316    0.4801    0.6135 H         1 <0>         0.0000
     19 H2         -1.1122   -5.8516    0.0926 H         1 <0>         0.0000
     20 H3         -2.7521   -5.2138   -0.1093 H         1 <0>         0.0000
     21 H4         -1.4971   -4.8248   -1.3084 H         1 <0>         0.0000
     22 H5         -0.9672   -1.3839    4.0333 H         1 <0>         0.0000
@<TRIPOS>BOND
     1    1    2 1
     2    1    3 2
     3    1   18 1
     4    2    4 2
     5    2   15 1
     6    3   13 1
     7    3   16 1
     8    4   13 1
     9    4   17 1
    10    5    7 1
    11    5    8 2
    12    5   14 1
    13    6    9 2
    14    6   10 1
    15    6   14 1
    16    7   19 1
    17    7   20 1
    18    7   21 1
    19    8    9 1
    20   10   15 1
    21   10   22 1
    22   11   15 2
    23   12   15 2
