@<TRIPOS>MOLECULE
*****
   25    26     0     0     0
SMALL
NO_CHARGES

@<TRIPOS>ATOM
      1 C1          1.6607   -1.8623    0.0701 C.ar      1 <0>         0.0000
      2 C2          0.5408   -1.4162    0.7702 C.ar      1 <0>         0.0000
      3 C3          2.9514   -1.5050    0.4706 C.ar      1 <0>         0.0000
      4 C4          2.0108   -0.2281    2.3028 C.ar      1 <0>         0.0000
      5 C5          0.7151   -0.5884    1.8926 C.ar      1 <0>         0.0000
      6 C6          3.1251   -0.6857    1.5925 C.ar      1 <0>         0.0000
      7 C7         -3.9396   -0.1204    6.4070 C.2       1 <0>         0.0000
      8 C8         -2.7954   -0.0744    4.4823 C.2       1 <0>         0.0000
      9 C9         -0.4192   -0.0734    2.6619 C.2       1 <0>         0.0000
     10 C10        -2.6322   -0.8001    6.8819 C.3       1 <0>         0.0000
     11 N1         -3.9214    0.2324    5.0638 N.2       1 <0>         0.0000
     12 N2         -1.6354   -0.3260    2.3194 N.2       1 <0>         0.0000
     13 N3         -2.6290    0.1827    3.1561 N.pl3     1 <0>         0.0000
     14 O1         -4.8676    0.0543    7.1752 O.2       1 <0>         0.0000
     15 O2          4.4116   -0.3659    1.9462 O.3       1 <0>         0.0000
     16 S1         -1.5107   -0.8629    5.4466 S.3       1 <0>         0.0000
     17 H1          1.5343   -2.5013   -0.7996 H         1 <0>         0.0000
     18 H2         -0.4617   -1.6973    0.4666 H         1 <0>         0.0000
     19 H3          3.8284   -1.8519   -0.0676 H         1 <0>         0.0000
     20 H4          2.1437    0.4094    3.1764 H         1 <0>         0.0000
     21 H5         -0.1864    0.5510    3.5293 H         1 <0>         0.0000
     22 H6         -2.1852   -0.2202    7.6909 H         1 <0>         0.0000
     23 H7         -2.8534   -1.8067    7.2409 H         1 <0>         0.0000
     24 H8         -3.5071    0.3355    2.6697 H         1 <0>         0.0000
     25 H9          4.3992    0.1993    2.7349 H         1 <0>         0.0000
@<TRIPOS>BOND
     1    1    2 ar
     2    1    3 ar
     3    1   17 1
     4    2    5 ar
     5    2   18 1
     6    3    6 ar
     7    3   19 1
     8    4    5 ar
     9    4    6 ar
    10    4   20 1
    11    5    9 1
    12    6   15 1
    13    7   10 1
    14    7   11 1
    15    7   14 2
    16    8   11 2
    17    8   13 1
    18    8   16 1
    19    9   12 2
    20    9   21 1
    21   10   16 1
    22   10   22 1
    23   10   23 1
    24   12   13 1
    25   13   24 1
    26   15   25 1
