@<TRIPOS>MOLECULE
*****
   48    51     0     0     0
SMALL
NO_CHARGES

@<TRIPOS>ATOM
      1 C1         -0.6712   -9.0993    6.2420 C.2       1 <0>         0.0000
      2 C2         -2.0296   -8.9348    6.1941 C.2       1 <0>         0.0000
      3 C3         -0.6816   -6.9007    5.9565 C.2       1 <0>         0.0000
      4 C4          0.6590   -1.9542    2.8816 C.2       1 <0>         0.0000
      5 C5          1.7649   -1.2629    5.4529 C.3       1 <0>         0.0000
      6 C6          0.4138   -1.9696    5.4334 C.3       1 <0>         0.0000
      7 C7         -1.2398   -3.2357    3.9414 C.3       1 <0>         0.0000
      8 C8          1.5852    1.3857    1.8539 C.3       1 <0>         0.0000
      9 C9          3.3363   -0.3834    1.4848 C.3       1 <0>         0.0000
     10 C10         1.8171   -0.2479    4.3202 C.3       1 <0>         0.0000
     11 C11        -1.1140   -4.7414    3.6263 C.3       1 <0>         0.0000
     12 C12         1.0371   -4.1038    4.1256 C.3       1 <0>         0.0000
     13 C13         2.0775    2.0283    0.5530 C.3       1 <0>         0.0000
     14 C14         3.7319    0.3787    0.2170 C.3       1 <0>         0.0000
     15 C15         1.8577   -0.1235    1.8094 C.3       1 <0>         0.0000
     16 C16         0.2265   -2.7460    4.1218 C.3       1 <0>         0.0000
     17 C17        -0.1572   -5.5017    5.7632 C.3       1 <0>         0.0000
     18 N1          0.0779   -7.9510    6.1122 N.2       1 <0>         0.0000
     19 N2          1.4298   -0.8279    3.0301 N.am      1 <0>         0.0000
     20 N3          0.0871   -5.1990    4.3449 N.3       1 <0>         0.0000
     21 O1          0.3441   -2.3793    1.7625 O.2       1 <0>         0.0000
     22 O2          3.4633    1.7763    0.3307 O.3       1 <0>         0.0000
     23 S1         -2.4026   -7.2580    5.9762 S.3       1 <0>         0.0000
     24 H1         -0.1673  -10.0504    6.3772 H         1 <0>         0.0000
     25 H2         -2.8056   -9.6845    6.2764 H         1 <0>         0.0000
     26 H3          1.9265   -0.7411    6.4022 H         1 <0>         0.0000
     27 H4          2.5784   -1.9888    5.3387 H         1 <0>         0.0000
     28 H5          0.3144   -2.6527    6.2835 H         1 <0>         0.0000
     29 H6         -0.3831   -1.2210    5.5369 H         1 <0>         0.0000
     30 H7         -1.7598   -2.6953    3.1491 H         1 <0>         0.0000
     31 H8         -1.7906   -3.0812    4.8758 H         1 <0>         0.0000
     32 H9          2.1112    1.8583    2.6904 H         1 <0>         0.0000
     33 H10         0.5125    1.5754    1.9799 H         1 <0>         0.0000
     34 H11         3.4978   -1.4571    1.3398 H         1 <0>         0.0000
     35 H12         3.9764   -0.0537    2.3118 H         1 <0>         0.0000
     36 H13         1.1566    0.5976    4.5582 H         1 <0>         0.0000
     37 H14         2.8293    0.1570    4.2250 H         1 <0>         0.0000
     38 H15        -1.9929   -5.3258    3.9081 H         1 <0>         0.0000
     39 H16        -0.9453   -4.8791    2.5545 H         1 <0>         0.0000
     40 H17         1.4965   -4.2497    3.1442 H         1 <0>         0.0000
     41 H18         1.8289   -4.1182    4.8787 H         1 <0>         0.0000
     42 H19         1.4893    1.6517   -0.2999 H         1 <0>         0.0000
     43 H20         1.9687    3.1155    0.5874 H         1 <0>         0.0000
     44 H21         4.8036    0.2913    0.0210 H         1 <0>         0.0000
     45 H22         3.1904   -0.0323   -0.6505 H         1 <0>         0.0000
     46 H23         1.2582   -0.5560    1.0062 H         1 <0>         0.0000
     47 H24        -0.8393   -4.7874    6.2540 H         1 <0>         0.0000
     48 H25         0.7984   -5.4599    6.2908 H         1 <0>         0.0000
@<TRIPOS>BOND
     1    1    2 2
     2    1   18 1
     3    1   24 1
     4    2   23 1
     5    2   25 1
     6    3   17 1
     7    3   18 2
     8    3   23 1
     9    4   16 1
    10    4   19 am
    11    4   21 2
    12    5    6 1
    13    5   10 1
    14    5   26 1
    15    5   27 1
    16    6   16 1
    17    6   28 1
    18    6   29 1
    19    7   11 1
    20    7   16 1
    21    7   30 1
    22    7   31 1
    23    8   13 1
    24    8   15 1
    25    8   32 1
    26    8   33 1
    27    9   14 1
    28    9   15 1
    29    9   34 1
    30    9   35 1
    31   10   19 1
    32   10   36 1
    33   10   37 1
    34   11   20 1
    35   11   38 1
    36   11   39 1
    37   12   16 1
    38   12   20 1
    39   12   40 1
    40   12   41 1
    41   13   22 1
    42   13   42 1
    43   13   43 1
    44   14   22 1
    45   14   44 1
    46   14   45 1
    47   15   19 1
    48   15   46 1
    49   17   20 1
    50   17   47 1
    51   17   48 1
