@<TRIPOS>MOLECULE
*****
   22    23     0     0     0
SMALL
NO_CHARGES

@<TRIPOS>ATOM
      1 C1          2.4110   -2.2980    3.6545 C.2       1 <0>         0.0000
      2 C2          1.2038   -1.5310    3.6089 C.2       1 <0>         0.0000
      3 C3          2.4881   -3.0354    4.7986 C.2       1 <0>         0.0000
      4 C4          0.3926   -1.7143    4.7000 C.2       1 <0>         0.0000
      5 C5         -1.4130   -4.7973    0.8537 C.2       1 <0>         0.0000
      6 C6         -0.7397   -2.5489    1.3415 C.2       1 <0>         0.0000
      7 C7         -2.0892   -6.0860    0.5070 C.3       1 <0>         0.0000
      8 N1         -0.1553   -4.6867    1.1563 N.2       1 <0>         0.0000
      9 N2          0.2383   -3.4009    1.4430 N.2       1 <0>         0.0000
     10 N3         -0.6070   -1.1826    1.5586 N.pl3     1 <0>         0.0000
     11 O1          1.9035   -0.6387    1.2608 O.2       1 <0>         0.0000
     12 O2          0.3499    0.8158    2.6690 O.2       1 <0>         0.0000
     13 S1          1.0916   -2.8316    5.8351 S.3       1 <0>         0.0000
     14 S2         -2.2788   -3.2533    0.8801 S.3       1 <0>         0.0000
     15 S3          0.8208   -0.4888    2.2169 S.o2      1 <0>         0.0000
     16 Cl1         3.7600   -4.1019    5.2703 Cl        1 <0>         0.0000
     17 Cl2        -1.1612   -1.0326    5.0008 Cl        1 <0>         0.0000
     18 H1          3.1450   -2.3001    2.8587 H         1 <0>         0.0000
     19 H2         -2.9083   -6.3046    1.1995 H         1 <0>         0.0000
     20 H3         -2.5016   -6.0576   -0.5065 H         1 <0>         0.0000
     21 H4         -1.3514   -6.8884    0.5661 H         1 <0>         0.0000
     22 H5         -1.4319   -0.6668    1.8516 H         1 <0>         0.0000
@<TRIPOS>BOND
     1    1    2 1
     2    1    3 2
     3    1   18 1
     4    2    4 2
     5    2   15 1
     6    3   13 1
     7    3   16 1
     8    4   13 1
     9    4   17 1
    10    5    7 1
    11    5    8 2
    12    5   14 1
    13    6    9 2
    14    6   10 1
    15    6   14 1
    16    7   19 1
    17    7   20 1
    18    7   21 1
    19    8    9 1
    20   10   15 1
    21   10   22 1
    22   11   15 2
    23   12   15 2
