@<TRIPOS>MOLECULE
*****
   21    22     0     0     0
SMALL
NO_CHARGES

@<TRIPOS>ATOM
      1 C1          2.2195   -1.2544   -0.0387 C.ar      1 <0>         0.0000
      2 C2          3.1593   -1.4602    0.9773 C.ar      1 <0>         0.0000
      3 C3          0.9075   -0.8897    0.2825 C.ar      1 <0>         0.0000
      4 C4          2.7914   -1.2989    2.3168 C.ar      1 <0>         0.0000
      5 C5          0.5318   -0.7263    1.6196 C.ar      1 <0>         0.0000
      6 C6          1.4783   -0.9245    2.6346 C.ar      1 <0>         0.0000
      7 C7          1.6205    2.9012    5.3254 C.2       1 <0>         0.0000
      8 C8          1.3714    0.9802    4.5503 C.2       1 <0>         0.0000
      9 N1          1.1973    1.6619    5.6745 N.2       1 <0>         0.0000
     10 N2          2.0454    3.0613    4.0825 N.2       1 <0>         0.0000
     11 N3          1.8787    1.8091    3.5914 N.pl3     1 <0>         0.0000
     12 N4          1.6161    4.0247    6.2644 N.pl3     1 <0>         0.0000
     13 O1          1.2067    3.7940    7.4019 O.3       1 <0>         0.0000
     14 O2          2.0218    5.1087    5.8411 O.2       1 <0>         0.0000
     15 S1          0.9968   -0.7275    4.3568 S.3       1 <0>         0.0000
     16 H1          2.5082   -1.3814   -1.0784 H         1 <0>         0.0000
     17 H2          4.1773   -1.7483    0.7301 H         1 <0>         0.0000
     18 H3          0.1751   -0.7342   -0.5047 H         1 <0>         0.0000
     19 H4          3.5142   -1.4586    3.1115 H         1 <0>         0.0000
     20 H5         -0.4849   -0.4451    1.8776 H         1 <0>         0.0000
     21 H6          2.1217    1.5980    2.6301 H         1 <0>         0.0000
@<TRIPOS>BOND
     1    1    3 ar
     2    1    2 ar
     3    1   16 1
     4    2    4 ar
     5    2   17 1
     6    3    5 ar
     7    3   18 1
     8    4    6 ar
     9    4   19 1
    10    5    6 ar
    11    5   20 1
    12    6   15 1
    13    7    9 1
    14    7   10 2
    15    7   12 1
    16    8    9 2
    17    8   11 1
    18    8   15 1
    19   10   11 1
    20   11   21 1
    21   12   13 1
    22   12   14 2
