@<TRIPOS>MOLECULE
*****
   22    23     0     0     0
SMALL
NO_CHARGES

@<TRIPOS>ATOM
      1 C1          0.0879    3.5143    2.1248 C.ar      1 <0>         0.0000
      2 C2         -0.7333    1.8925    3.7277 C.ar      1 <0>         0.0000
      3 C3          0.1311    1.1158    1.5465 C.ar      1 <0>         0.0000
      4 C4          0.3757    2.4748    1.2346 C.ar      1 <0>         0.0000
      5 C5         -0.4631    3.2081    3.3658 C.ar      1 <0>         0.0000
      6 C6         -0.4327    0.8814    2.8113 C.ar      1 <0>         0.0000
      7 C7         -0.6200   -0.9207    0.0242 C.3       1 <0>         0.0000
      8 C8          0.3030   -2.0760    0.4874 C.3       1 <0>         0.0000
      9 C9          0.4866    0.0607    0.5211 C.3       1 <0>         0.0000
     10 N1          1.3440   -1.1006    0.9382 N.3       1 <0>         0.0000
     11 O1          0.9094    2.7528    0.0016 O.3       1 <0>         0.0000
     12 Cl1        -0.8253    4.5037    4.4886 Cl        1 <0>         0.0000
     13 Cl2        -0.8158   -0.7545    3.3467 Cl        1 <0>         0.0000
     14 H1          0.2879    4.5482    1.8559 H         1 <0>         0.0000
     15 H2         -1.1658    1.6540    4.6920 H         1 <0>         0.0000
     16 H3         -0.8120   -0.8653   -1.0500 H         1 <0>         0.0000
     17 H4         -1.5677   -0.8543    0.5604 H         1 <0>         0.0000
     18 H5         -0.1161   -2.6966    1.2861 H         1 <0>         0.0000
     19 H6          0.6726   -2.7295   -0.3096 H         1 <0>         0.0000
     20 H7          0.9667    0.5755   -0.3092 H         1 <0>         0.0000
     21 H8          1.4971   -1.1370    1.9424 H         1 <0>         0.0000
     22 H9          1.0570    3.7091   -0.0730 H         1 <0>         0.0000
@<TRIPOS>BOND
     1    1    4 ar
     2    1    5 ar
     3    1   14 1
     4    2    5 ar
     5    2    6 ar
     6    2   15 1
     7    3    4 ar
     8    3    6 ar
     9    3    9 1
    10    4   11 1
    11    5   12 1
    12    6   13 1
    13    7    8 1
    14    7    9 1
    15    7   16 1
    16    7   17 1
    17    8   10 1
    18    8   18 1
    19    8   19 1
    20    9   10 1
    21    9   20 1
    22   10   21 1
    23   11   22 1
