@<TRIPOS>MOLECULE
*****
   34    36     0     0     0
SMALL
NO_CHARGES

@<TRIPOS>ATOM
      1 C1          5.7963   -2.2828    2.5591 C.ar      1 <0>         0.0000
      2 C2          3.5650   -8.4097   -0.6172 C.ar      1 <0>         0.0000
      3 C3          5.1533   -3.5132    2.3833 C.ar      1 <0>         0.0000
      4 C4          5.0910   -1.0918    2.3626 C.ar      1 <0>         0.0000
      5 C5          4.4078   -7.3769   -1.0476 C.ar      1 <0>         0.0000
      6 C6          2.1783   -8.2269   -0.5915 C.ar      1 <0>         0.0000
      7 C7          3.8085   -3.5562    2.0132 C.ar      1 <0>         0.0000
      8 C8          3.7460   -1.1257    1.9857 C.ar      1 <0>         0.0000
      9 C9          3.8682   -6.1543   -1.4514 C.ar      1 <0>         0.0000
     10 C10         1.6245   -7.0063   -0.9900 C.ar      1 <0>         0.0000
     11 C11         3.1170   -2.3589    1.8149 C.ar      1 <0>         0.0000
     12 C12         2.4811   -5.9885   -1.4115 C.ar      1 <0>         0.0000
     13 C13         0.7399   -1.8354    2.2591 C.2       1 <0>         0.0000
     14 C14         1.3020   -3.0330    0.2752 C.2       1 <0>         0.0000
     15 C15        -0.6394   -2.0448    1.6656 C.3       1 <0>         0.0000
     16 N1          2.1901   -3.5340   -0.5079 N.2       1 <0>         0.0000
     17 N2          1.7261   -2.3963    1.4431 N.am      1 <0>         0.0000
     18 O1          0.9574   -1.2570    3.3047 O.2       1 <0>         0.0000
     19 O2          2.5686   -3.8489   -2.9875 O.2       1 <0>         0.0000
     20 O3          0.3269   -4.5626   -2.0114 O.2       1 <0>         0.0000
     21 S1         -0.4734   -3.0088    0.1221 S.3       1 <0>         0.0000
     22 S2          1.7867   -4.4076   -1.8879 S.o2      1 <0>         0.0000
     23 H1          6.8432   -2.2530    2.8488 H         1 <0>         0.0000
     24 H2          3.9906   -9.3604   -0.3070 H         1 <0>         0.0000
     25 H3          5.6977   -4.4411    2.5351 H         1 <0>         0.0000
     26 H4          5.5860   -0.1344    2.4994 H         1 <0>         0.0000
     27 H5          5.4838   -7.5257   -1.0734 H         1 <0>         0.0000
     28 H6          1.5271   -9.0337   -0.2667 H         1 <0>         0.0000
     29 H7          3.3045   -4.5059    1.8674 H         1 <0>         0.0000
     30 H8          3.1891   -0.2070    1.8327 H         1 <0>         0.0000
     31 H9          4.5022   -5.3432   -1.7954 H         1 <0>         0.0000
     32 H10         0.5516   -6.8416   -0.9882 H         1 <0>         0.0000
     33 H11        -1.2600   -2.5735    2.3919 H         1 <0>         0.0000
     34 H12        -1.0911   -1.0711    1.4630 H         1 <0>         0.0000
@<TRIPOS>BOND
     1    1    4 ar
     2    1    3 ar
     3    1   23 1
     4    2    6 ar
     5    2    5 ar
     6    2   24 1
     7    3    7 ar
     8    3   25 1
     9    4    8 ar
    10    4   26 1
    11    5    9 ar
    12    5   27 1
    13    6   10 ar
    14    6   28 1
    15    7   11 ar
    16    7   29 1
    17    8   11 ar
    18    8   30 1
    19    9   12 ar
    20    9   31 1
    21   10   12 ar
    22   10   32 1
    23   11   17 1
    24   12   22 1
    25   13   15 1
    26   13   17 am
    27   13   18 2
    28   14   16 2
    29   14   17 1
    30   14   21 1
    31   15   21 1
    32   15   33 1
    33   15   34 1
    34   16   22 1
    35   19   22 2
    36   20   22 2
