@<TRIPOS>MOLECULE
*****
   20    20     0     0     0
SMALL
NO_CHARGES

@<TRIPOS>ATOM
      1 C1          1.8932    2.3513    0.6649 C.1       1 <0>         0.0000
      2 C2          1.9871   -1.3619   -0.1963 C.ar      1 <0>         0.0000
      3 C3          2.0417   -1.2169    2.6016 C.ar      1 <0>         0.0000
      4 C4          1.0100   -0.6247    0.4762 C.ar      1 <0>         0.0000
      5 C5          2.9832   -2.0068    0.5286 C.ar      1 <0>         0.0000
      6 C6          1.0547   -0.5681    1.8728 C.ar      1 <0>         0.0000
      7 C7          3.0213   -1.9446    1.9227 C.ar      1 <0>         0.0000
      8 C8          0.5937    2.3949   -0.0194 C.3       1 <0>         0.0000
      9 C9          0.3319    1.1806   -0.9287 C.3       1 <0>         0.0000
     10 N1          2.9314    2.3199    1.1874 N.1       1 <0>         0.0000
     11 O1         -0.0152    0.0010   -0.1965 O.3       1 <0>         0.0000
     12 F1          3.9159   -2.7128   -0.1424 F         1 <0>         0.0000
     13 F2          0.1250    0.1642    2.5269 F         1 <0>         0.0000
     14 Br1         4.3936   -2.8446    2.8844 Br        1 <0>         0.0000
     15 H1          1.9724   -1.4446   -1.2784 H         1 <0>         0.0000
     16 H2          2.0501   -1.1363    3.6830 H         1 <0>         0.0000
     17 H3         -0.2018    2.4666    0.7280 H         1 <0>         0.0000
     18 H4          0.5654    3.3051   -0.6287 H         1 <0>         0.0000
     19 H5          1.1932    0.9953   -1.5802 H         1 <0>         0.0000
     20 H6         -0.5405    1.3912   -1.5503 H         1 <0>         0.0000
@<TRIPOS>BOND
     1    1    8 1
     2    1   10 3
     3    2    4 ar
     4    2    5 ar
     5    2   15 1
     6    3    6 ar
     7    3    7 ar
     8    3   16 1
     9    4    6 ar
    10    4   11 1
    11    5    7 ar
    12    5   12 1
    13    6   13 1
    14    7   14 1
    15    8    9 1
    16    8   17 1
    17    8   18 1
    18    9   11 1
    19    9   19 1
    20    9   20 1
