@<TRIPOS>MOLECULE
*****
   24    25     0     0     0
SMALL
NO_CHARGES

@<TRIPOS>ATOM
      1 C1          2.0810   -5.3078    1.5141 C.ar      1 <0>         0.0000
      2 C2          2.5536   -5.6068    2.7909 C.ar      1 <0>         0.0000
      3 C3          1.5597   -4.0435    1.2411 C.ar      1 <0>         0.0000
      4 C4          1.9947   -3.3412    3.5687 C.ar      1 <0>         0.0000
      5 C5          2.5123   -4.6416    3.7985 C.ar      1 <0>         0.0000
      6 C6          1.5200   -3.0917    2.2563 C.ar      1 <0>         0.0000
      7 C7          3.7349   -0.4060    9.4703 C.2       1 <0>         0.0000
      8 C8          3.0314   -1.1687    7.5220 C.2       1 <0>         0.0000
      9 C9          1.8881   -2.2792    4.5768 C.2       1 <0>         0.0000
     10 C10         4.6048   -1.6446    9.4762 C.3       1 <0>         0.0000
     11 N1          2.9474   -0.1764    8.4857 N.2       1 <0>         0.0000
     12 N2          2.3262   -1.1397    6.4430 N.2       1 <0>         0.0000
     13 N3          2.6067   -2.2412    5.6449 N.2       1 <0>         0.0000
     14 O1          3.7886    0.4589   10.5011 O.3       1 <0>         0.0000
     15 S1          4.2035   -2.4976    7.9099 S.3       1 <0>         0.0000
     16 Cl1         3.0975   -5.1499    5.3660 Cl        1 <0>         0.0000
     17 Cl2         0.8694   -1.5139    1.8252 Cl        1 <0>         0.0000
     18 H1          2.1172   -6.0607    0.7321 H         1 <0>         0.0000
     19 H2          2.9531   -6.5897    3.0171 H         1 <0>         0.0000
     20 H3          1.1904   -3.7916    0.2529 H         1 <0>         0.0000
     21 H4          1.1708   -1.4804    4.3856 H         1 <0>         0.0000
     22 H5          5.6648   -1.3707    9.5193 H         1 <0>         0.0000
     23 H6          4.3712   -2.2756   10.3410 H         1 <0>         0.0000
     24 H7          4.4269    0.1455   11.1626 H         1 <0>         0.0000
@<TRIPOS>BOND
     1    1    3 ar
     2    1    2 ar
     3    1   18 1
     4    2    5 ar
     5    2   19 1
     6    3    6 ar
     7    3   20 1
     8    4    6 ar
     9    4    5 ar
    10    4    9 1
    11    5   16 1
    12    6   17 1
    13    7   10 1
    14    7   11 2
    15    7   14 1
    16    8   11 1
    17    8   12 2
    18    8   15 1
    19    9   13 2
    20    9   21 1
    21   10   15 1
    22   10   22 1
    23   10   23 1
    24   12   13 1
    25   14   24 1
