@<TRIPOS>MOLECULE
*****
   27    29     0     0     0
SMALL
NO_CHARGES

@<TRIPOS>ATOM
      1 C1          0.7687    1.3525    1.3796 C.ar      1 <0>         0.0000
      2 C2          0.4707    1.8797    2.6504 C.ar      1 <0>         0.0000
      3 C3          1.1356   -2.3765    2.0298 C.2       1 <0>         0.0000
      4 C4          0.3700   -3.2858    2.8169 C.2       1 <0>         0.0000
      5 C5         -1.3787    0.1716    1.3016 C.ar      1 <0>         0.0000
      6 C6         -0.1347    0.5125    0.7224 C.ar      1 <0>         0.0000
      7 C7         -0.7535    1.5486    3.2016 C.ar      1 <0>         0.0000
      8 C8         -1.6592    0.7203    2.5369 C.ar      1 <0>         0.0000
      9 C9          0.8028   -2.4274    0.6996 C.2       1 <0>         0.0000
     10 C10        -0.5335   -3.9841    2.0547 C.2       1 <0>         0.0000
     11 C11        -2.4962    1.1862    4.5599 C.3       1 <0>         0.0000
     12 N1          0.2307   -0.0425   -0.5446 N.pl3     1 <0>         0.0000
     13 O1          1.2423   -1.9359   -1.8526 O.2       1 <0>         0.0000
     14 O2          2.6340   -0.7458   -0.0474 O.2       1 <0>         0.0000
     15 O3         -1.3008    1.9665    4.3958 O.3       1 <0>         0.0000
     16 O4         -2.8037    0.5834    3.2898 O.3       1 <0>         0.0000
     17 S1         -0.4640   -3.5746    0.3634 S.3       1 <0>         0.0000
     18 S2          1.3810   -1.3042   -0.5418 S.o2      1 <0>         0.0000
     19 Cl1        -1.6314   -5.1957    2.6117 Cl        1 <0>         0.0000
     20 H1          1.7133    1.5801    0.8990 H         1 <0>         0.0000
     21 H2          1.1656    2.5334    3.1674 H         1 <0>         0.0000
     22 H3          1.8934   -1.7039    2.4153 H         1 <0>         0.0000
     23 H4          0.4798   -3.4236    3.8865 H         1 <0>         0.0000
     24 H5         -2.0754   -0.4986    0.8070 H         1 <0>         0.0000
     25 H6         -2.3163    0.3954    5.3006 H         1 <0>         0.0000
     26 H7         -3.3179    1.8403    4.8580 H         1 <0>         0.0000
     27 H8         -0.5586   -0.3291   -1.1215 H         1 <0>         0.0000
@<TRIPOS>BOND
     1    1    2 ar
     2    1    6 ar
     3    1   20 1
     4    2    7 ar
     5    2   21 1
     6    3    4 1
     7    3    9 2
     8    3   22 1
     9    4   10 2
    10    4   23 1
    11    5    6 ar
    12    5    8 ar
    13    5   24 1
    14    6   12 1
    15    7    8 ar
    16    7   15 1
    17    8   16 1
    18    9   17 1
    19    9   18 1
    20   10   17 1
    21   10   19 1
    22   11   15 1
    23   11   16 1
    24   11   25 1
    25   11   26 1
    26   12   18 1
    27   12   27 1
    28   13   18 2
    29   14   18 2
