@<TRIPOS>MOLECULE
*****
   27    29     0     0     0
SMALL
NO_CHARGES

@<TRIPOS>ATOM
      1 C1          1.0093    0.2911    1.9810 C.ar      1 <0>         0.0000
      2 C2          0.4156    0.7153    3.1845 C.ar      1 <0>         0.0000
      3 C3         -1.8136   -2.5160   -0.4426 C.2       1 <0>         0.0000
      4 C4         -3.1184   -2.4528   -1.0123 C.2       1 <0>         0.0000
      5 C5         -1.0178    0.8272    0.7122 C.ar      1 <0>         0.0000
      6 C6          0.3118    0.3565    0.7711 C.ar      1 <0>         0.0000
      7 C7         -0.8910    1.1635    3.1142 C.ar      1 <0>         0.0000
      8 C8         -1.5911    1.2123    1.9074 C.ar      1 <0>         0.0000
      9 C9         -0.8704   -1.9074   -1.2316 C.2       1 <0>         0.0000
     10 C10        -3.1150   -1.7920   -2.2165 C.2       1 <0>         0.0000
     11 C11        -2.9904    1.8121    3.5503 C.3       1 <0>         0.0000
     12 N1          0.9101   -0.0699   -0.4652 N.pl3     1 <0>         0.0000
     13 O1          1.6765   -1.9032   -2.0040 O.2       1 <0>         0.0000
     14 O2          1.0504   -2.5610    0.3812 O.2       1 <0>         0.0000
     15 O3         -1.6842    1.6492    4.1295 O.3       1 <0>         0.0000
     16 O4         -2.8495    1.7313    2.1217 O.3       1 <0>         0.0000
     17 S1         -1.5354   -1.2387   -2.6934 S.3       1 <0>         0.0000
     18 S2          0.8382   -1.7434   -0.8156 S.o2      1 <0>         0.0000
     19 Cl1        -4.4801   -1.5081   -3.2360 Cl        1 <0>         0.0000
     20 H1          2.0160   -0.1149    1.9929 H         1 <0>         0.0000
     21 H2          0.9516    0.6800    4.1272 H         1 <0>         0.0000
     22 H3         -1.5656   -2.9775    0.5064 H         1 <0>         0.0000
     23 H4         -4.0120   -2.8713   -0.5637 H         1 <0>         0.0000
     24 H5         -1.5461    0.8882   -0.2326 H         1 <0>         0.0000
     25 H6         -3.6443    1.0011    3.8976 H         1 <0>         0.0000
     26 H7         -3.3858    2.7936    3.8200 H         1 <0>         0.0000
     27 H8          1.8810    0.2202   -0.5899 H         1 <0>         0.0000
@<TRIPOS>BOND
     1    1    2 ar
     2    1    6 ar
     3    1   20 1
     4    2    7 ar
     5    2   21 1
     6    3    4 1
     7    3    9 2
     8    3   22 1
     9    4   10 2
    10    4   23 1
    11    5    6 ar
    12    5    8 ar
    13    5   24 1
    14    6   12 1
    15    7    8 ar
    16    7   15 1
    17    8   16 1
    18    9   17 1
    19    9   18 1
    20   10   17 1
    21   10   19 1
    22   11   15 1
    23   11   16 1
    24   11   25 1
    25   11   26 1
    26   12   18 1
    27   12   27 1
    28   13   18 2
    29   14   18 2
