@<TRIPOS>MOLECULE
*****
   45    49     0     0     0
SMALL
NO_CHARGES

@<TRIPOS>ATOM
      1 C1         -1.8200    5.9087    0.9372 C.ar      1 <0>         0.0000
      2 C2          0.5498    5.2726    0.9383 C.ar      1 <0>         0.0000
      3 C3         -2.0324    4.7519    0.1674 C.ar      1 <0>         0.0000
      4 C4         -0.5062    6.1360    1.3052 C.ar      1 <0>         0.0000
      5 C5         -3.1313    4.0739   -0.4586 C.2       1 <0>         0.0000
      6 C6         -7.0117    5.3060   -0.3866 C.ar      1 <0>         0.0000
      7 C7         -0.9057    3.9489   -0.1421 C.ar      1 <0>         0.0000
      8 C8         -6.6509    4.1183   -1.0748 C.ar      1 <0>         0.0000
      9 C9         -4.5428    4.4623   -0.4673 C.ar      1 <0>         0.0000
     10 C10        -8.9295    4.3185   -1.3590 C.2       1 <0>         0.0000
     11 C11         0.4921    1.1872   -3.8364 C.3       1 <0>         0.0000
     12 C12        -1.2631    2.5006   -4.0038 C.3       1 <0>         0.0000
     13 C13        -0.1439    2.2917   -2.9356 C.3       1 <0>         0.0000
     14 C14        -8.4976    5.5416   -0.5118 C.3       1 <0>         0.0000
     15 C15        -0.4072    1.6823   -4.9761 C.3       1 <0>         0.0000
     16 C16        -9.2135    5.5073    0.8514 C.3       1 <0>         0.0000
     17 C17        -8.8202    6.8392   -1.2770 C.3       1 <0>         0.0000
     18 C18        -0.5830    1.8591   -1.5419 C.3       1 <0>         0.0000
     19 N1          0.3658    4.1704    0.2111 N.ar      1 <0>         0.0000
     20 N2         -2.7046    2.9708   -1.0817 N.2       1 <0>         0.0000
     21 N3         -6.1123    6.0267    0.2382 N.ar      1 <0>         0.0000
     22 N4         -5.4234    3.6636   -1.1389 N.ar      1 <0>         0.0000
     23 N5         -4.8299    5.5909    0.1988 N.ar      1 <0>         0.0000
     24 N6         -1.3726    2.8869   -0.8804 N.pl3     1 <0>         0.0000
     25 N7         -7.7816    3.5588   -1.6364 N.am      1 <0>         0.0000
     26 O1        -10.0503    4.0395   -1.7322 O.2       1 <0>         0.0000
     27 F1         -0.1927    7.2271    2.0478 F         1 <0>         0.0000
     28 F2         -1.0520    0.7214   -5.7122 F         1 <0>         0.0000
     29 F3          0.2744    2.4727   -5.8761 F         1 <0>         0.0000
     30 H1         -2.6290    6.5733    1.2181 H         1 <0>         0.0000
     31 H2          1.5629    5.5077    1.2575 H         1 <0>         0.0000
     32 H3          1.5662    1.2358   -4.0225 H         1 <0>         0.0000
     33 H4          0.2107    0.1766   -3.5276 H         1 <0>         0.0000
     34 H5         -2.1900    1.9838   -3.7461 H         1 <0>         0.0000
     35 H6         -1.4845    3.5232   -4.3126 H         1 <0>         0.0000
     36 H7          0.5060    3.1670   -2.8614 H         1 <0>         0.0000
     37 H8        -10.2947    5.5665    0.7020 H         1 <0>         0.0000
     38 H9         -8.8842    6.3557    1.4569 H         1 <0>         0.0000
     39 H10        -8.9884    4.5868    1.3986 H         1 <0>         0.0000
     40 H11        -9.8979    6.9102   -1.4454 H         1 <0>         0.0000
     41 H12        -8.3145    6.8682   -2.2471 H         1 <0>         0.0000
     42 H13        -8.4874    7.6997   -0.6907 H         1 <0>         0.0000
     43 H14         0.2865    1.6568   -0.9111 H         1 <0>         0.0000
     44 H15        -1.2026    0.9600   -1.5894 H         1 <0>         0.0000
     45 H16        -7.7960    2.7015   -2.1794 H         1 <0>         0.0000
@<TRIPOS>BOND
     1    1    3 ar
     2    1    4 ar
     3    1   30 1
     4    2    4 ar
     5    2   19 ar
     6    2   31 1
     7    3    5 1
     8    3    7 ar
     9    4   27 1
    10    5    9 1
    11    5   20 2
    12    6    8 ar
    13    6   14 1
    14    6   21 ar
    15    7   19 ar
    16    7   24 1
    17    8   22 ar
    18    8   25 1
    19    9   22 ar
    20    9   23 ar
    21   10   14 1
    22   10   25 am
    23   10   26 2
    24   11   13 1
    25   11   15 1
    26   11   32 1
    27   11   33 1
    28   12   13 1
    29   12   15 1
    30   12   34 1
    31   12   35 1
    32   13   18 1
    33   13   36 1
    34   14   16 1
    35   14   17 1
    36   15   28 1
    37   15   29 1
    38   16   37 1
    39   16   38 1
    40   16   39 1
    41   17   40 1
    42   17   41 1
    43   17   42 1
    44   18   24 1
    45   18   43 1
    46   18   44 1
    47   20   24 1
    48   21   23 ar
    49   25   45 1
