@<TRIPOS>MOLECULE
*****
   24    24     0     0     0
SMALL
NO_CHARGES

@<TRIPOS>ATOM
      1 C1         -3.4586   -0.8727    5.5286 C.ar      1 <0>         0.0000
      2 C2         -2.3599   -1.6132    5.1516 C.ar      1 <0>         0.0000
      3 C3         -3.0675    0.5832    3.8089 C.ar      1 <0>         0.0000
      4 C4         -1.9684   -0.1568    3.4323 C.ar      1 <0>         0.0000
      5 C5          0.0329   -0.6253    1.9351 C.2       1 <0>         0.0000
      6 C6          0.4573   -0.7150    0.6692 C.2       1 <0>         0.0000
      7 C7         -1.1353    0.2330    2.2691 C.2       1 <0>         0.0000
      8 C8          0.7285    0.8278   -1.2296 C.3       1 <0>         0.0000
      9 C9         -1.3551   -0.4829   -0.9809 C.3       1 <0>         0.0000
     10 N1         -3.8322    0.2388    4.8640 N.ar      1 <0>         0.0000
     11 N2         -1.5951   -1.2685    4.0967 N.ar      1 <0>         0.0000
     12 N3         -0.0685   -0.0874   -0.4236 N.pl3     1 <0>         0.0000
     13 O1         -1.4082    1.2483    1.6381 O.2       1 <0>         0.0000
     14 H1         -4.0727   -1.1496    6.3766 H         1 <0>         0.0000
     15 H2         -2.0616   -2.5074    5.6851 H         1 <0>         0.0000
     16 H3         -3.3749    1.4775    3.2794 H         1 <0>         0.0000
     17 H4          0.5443   -1.1633    2.7251 H         1 <0>         0.0000
     18 H5          1.3071   -1.3304    0.3945 H         1 <0>         0.0000
     19 H6          0.1284    1.2231   -2.0533 H         1 <0>         0.0000
     20 H7          1.5966    0.3082   -1.6443 H         1 <0>         0.0000
     21 H8          1.0795    1.6630   -0.6174 H         1 <0>         0.0000
     22 H9         -1.5962    0.1383   -1.8474 H         1 <0>         0.0000
     23 H10        -2.1436   -0.3645   -0.2328 H         1 <0>         0.0000
     24 H11        -1.3250   -1.5295   -1.2957 H         1 <0>         0.0000
@<TRIPOS>BOND
     1    1    2 ar
     2    1   10 ar
     3    1   14 1
     4    2   11 ar
     5    2   15 1
     6    3    4 ar
     7    3   10 ar
     8    3   16 1
     9    4    7 1
    10    4   11 ar
    11    5    6 2
    12    5    7 1
    13    5   17 1
    14    6   12 1
    15    6   18 1
    16    7   13 2
    17    8   12 1
    18    8   19 1
    19    8   20 1
    20    8   21 1
    21    9   12 1
    22    9   22 1
    23    9   23 1
    24    9   24 1
