@<TRIPOS>MOLECULE
*****
   66    68     0     0     0
SMALL
NO_CHARGES

@<TRIPOS>ATOM
      1 C1         -3.9280   -2.1408   -9.9409 C.1       1 <0>         0.0000
      2 C2         -4.3922   -4.1681   -8.6652 C.ar      1 <0>         0.0000
      3 C3         -4.5294   -4.8550   -7.4607 C.ar      1 <0>         0.0000
      4 C4         -4.0664   -2.8030   -6.2505 C.ar      1 <0>         0.0000
      5 C5         -4.0773   -2.8006   -8.6734 C.ar      1 <0>         0.0000
      6 C6         -3.9166   -2.1175   -7.4498 C.ar      1 <0>         0.0000
      7 C7         -4.3575   -4.1686   -6.2597 C.ar      1 <0>         0.0000
      8 C8         -5.6867   -5.5537   -4.6729 C.2       1 <0>         0.0000
      9 C9         -3.5607   -4.9276   -4.0007 C.2       1 <0>         0.0000
     10 C10         1.6193   -0.0973    0.1623 C.2       1 <0>         0.0000
     11 C11         0.4873   -2.0029    1.4037 C.3       1 <0>         0.0000
     12 C12        -0.6229   -0.8958   -0.4589 C.3       1 <0>         0.0000
     13 C13         0.1134   -3.3740    0.8376 C.3       1 <0>         0.0000
     14 C14        -0.9955   -2.2345   -1.0777 C.3       1 <0>         0.0000
     15 C15        -5.4654   -6.1221   -3.2686 C.3       1 <0>         0.0000
     16 C16        -5.5061   -7.6569   -3.3327 C.3       1 <0>         0.0000
     17 C17        -6.5154   -5.5576   -2.3034 C.3       1 <0>         0.0000
     18 C18         5.0898    0.7198    1.7400 C.3       1 <0>         0.0000
     19 C19         2.8175   -0.2030    1.0939 C.3       1 <0>         0.0000
     20 C20         3.8940    0.8443    0.7912 C.3       1 <0>         0.0000
     21 C21        -3.0541   -4.6845   -0.8976 C.3       1 <0>         0.0000
     22 C22        -3.3689   -5.9352   -1.7640 C.3       1 <0>         0.0000
     23 C23        -1.5708   -4.6378   -0.5363 C.3       1 <0>         0.0000
     24 C24        -3.5853   -0.6396   -7.4289 C.3       1 <0>         0.0000
     25 N1         -3.8102   -1.6423  -10.9859 N.1       1 <0>         0.0000
     26 N2         -4.5173   -4.8618   -5.0209 N.am      1 <0>         0.0000
     27 N3         -4.1122   -5.6131   -2.9698 N.pl3     1 <0>         0.0000
     28 N4          0.5829   -1.0249    0.3411 N.am      1 <0>         0.0000
     29 N5         -1.1535   -3.2863    0.0123 N.4       1 <0>         0.0000
     30 O1         -6.6767   -5.6786   -5.3572 O.2       1 <0>         0.0000
     31 O2          1.5345    0.7383   -0.7251 O.2       1 <0>         0.0000
     32 F1         -3.4939   -0.1732   -6.1573 F         1 <0>         0.0000
     33 F2         -2.4036   -0.3891   -8.0319 F         1 <0>         0.0000
     34 F3         -4.5304    0.0904   -8.0558 F         1 <0>         0.0000
     35 S1         -2.0178   -4.2966   -4.0664 S.2       1 <0>         0.0000
     36 H1         -4.5218   -4.6877   -9.6086 H         1 <0>         0.0000
     37 H2         -4.7729   -5.9119   -7.4577 H         1 <0>         0.0000
     38 H3         -3.9507   -2.2781   -5.3114 H         1 <0>         0.0000
     39 H4         -0.2613   -1.6980    2.1535 H         1 <0>         0.0000
     40 H5          1.4365   -2.1086    1.9265 H         1 <0>         0.0000
     41 H6         -0.4324   -0.1716   -1.2526 H         1 <0>         0.0000
     42 H7         -1.4555   -0.5098    0.1507 H         1 <0>         0.0000
     43 H8          0.8898   -3.7535    0.1700 H         1 <0>         0.0000
     44 H9         -0.0661   -4.0972    1.6363 H         1 <0>         0.0000
     45 H10        -1.9307   -2.1847   -1.6340 H         1 <0>         0.0000
     46 H11        -0.2122   -2.5999   -1.7429 H         1 <0>         0.0000
     47 H12        -5.3837   -8.0935   -2.3373 H         1 <0>         0.0000
     48 H13        -4.7202   -8.0449   -3.9867 H         1 <0>         0.0000
     49 H14        -6.4752   -7.9718   -3.7266 H         1 <0>         0.0000
     50 H15        -6.3625   -5.9547   -1.2949 H         1 <0>         0.0000
     51 H16        -7.5126   -5.8505   -2.6395 H         1 <0>         0.0000
     52 H17        -6.4694   -4.4655   -2.2655 H         1 <0>         0.0000
     53 H18         5.5690   -0.2627    1.6571 H         1 <0>         0.0000
     54 H19         4.7902    0.8586    2.7853 H         1 <0>         0.0000
     55 H20         5.8461    1.4759    1.5106 H         1 <0>         0.0000
     56 H21         3.2481   -1.2107    1.0161 H         1 <0>         0.0000
     57 H22         2.4753   -0.0958    2.1321 H         1 <0>         0.0000
     58 H23         3.4516    1.8419    0.8649 H         1 <0>         0.0000
     59 H24         4.2187    0.7335   -0.2475 H         1 <0>         0.0000
     60 H25        -3.6672   -4.6883    0.0105 H         1 <0>         0.0000
     61 H26        -3.3261   -3.7998   -1.4739 H         1 <0>         0.0000
     62 H27        -2.4405   -6.4402   -2.0519 H         1 <0>         0.0000
     63 H28        -3.9618   -6.6503   -1.1938 H         1 <0>         0.0000
     64 H29        -1.3218   -5.3793    0.2265 H         1 <0>         0.0000
     65 H30        -0.9584   -4.8118   -1.4225 H         1 <0>         0.0000
     66 H31        -1.8991   -2.9606    0.6391 H         1 <0>         0.0000
@<TRIPOS>BOND
     1    1    5 1
     2    1   25 3
     3    2    3 ar
     4    2    5 ar
     5    2   36 1
     6    3    7 ar
     7    3   37 1
     8    4    6 ar
     9    4    7 ar
    10    4   38 1
    11    5    6 ar
    12    6   24 1
    13    7   26 1
    14    8   15 1
    15    8   26 am
    16    8   30 2
    17    9   26 1
    18    9   27 1
    19    9   35 2
    20   10   19 1
    21   10   28 am
    22   10   31 2
    23   11   13 1
    24   11   28 1
    25   11   39 1
    26   11   40 1
    27   12   14 1
    28   12   28 1
    29   12   41 1
    30   12   42 1
    31   13   29 1
    32   13   43 1
    33   13   44 1
    34   14   29 1
    35   14   45 1
    36   14   46 1
    37   15   16 1
    38   15   17 1
    39   15   27 1
    40   16   47 1
    41   16   48 1
    42   16   49 1
    43   17   50 1
    44   17   51 1
    45   17   52 1
    46   18   20 1
    47   18   53 1
    48   18   54 1
    49   18   55 1
    50   19   20 1
    51   19   56 1
    52   19   57 1
    53   20   58 1
    54   20   59 1
    55   21   22 1
    56   21   23 1
    57   21   60 1
    58   21   61 1
    59   22   27 1
    60   22   62 1
    61   22   63 1
    62   23   29 1
    63   23   64 1
    64   23   65 1
    65   24   32 1
    66   24   33 1
    67   24   34 1
    68   29   66 1
