@<TRIPOS>MOLECULE
*****
   66    70     0     0     0
SMALL
NO_CHARGES

@<TRIPOS>ATOM
      1 C1         -1.7686   -3.7400   -2.1259 C.ar      1 <0>         0.0000
      2 C2         -5.9533   -8.6319    0.2079 C.ar      1 <0>         0.0000
      3 C3         -2.6546   -4.6969   -1.6275 C.ar      1 <0>         0.0000
      4 C4         -2.2074   -2.6705   -2.9088 C.ar      1 <0>         0.0000
      5 C5         -6.0469   -7.4862   -0.5829 C.ar      1 <0>         0.0000
      6 C6         -4.4833   -3.5286   -2.7049 C.ar      1 <0>         0.0000
      7 C7         -4.7380   -8.9808    0.7943 C.ar      1 <0>         0.0000
      8 C8         -4.0308   -4.6093   -1.9209 C.ar      1 <0>         0.0000
      9 C9         -3.5766   -2.5859   -3.1784 C.ar      1 <0>         0.0000
     10 C10        -3.6217   -8.1491    0.5214 C.ar      1 <0>         0.0000
     11 C11        -4.8946   -6.6999   -0.7514 C.ar      1 <0>         0.0000
     12 C12        -3.3569  -10.5318    2.0600 C.2       1 <0>         0.0000
     13 C13        -0.4057   -7.5988    2.2850 C.3       1 <0>         0.0000
     14 C14        -0.4089   -7.6239   -0.2184 C.3       1 <0>         0.0000
     15 C15        -3.2757    0.5902   -2.2888 C.3       1 <0>         0.0000
     16 C16        -5.5533   -0.2465   -1.9566 C.3       1 <0>         0.0000
     17 C17         0.6609   -6.5011    2.1975 C.3       1 <0>         0.0000
     18 C18         0.6567   -6.5259   -0.1651 C.3       1 <0>         0.0000
     19 C19        -3.6873    1.8588   -1.5451 C.3       1 <0>         0.0000
     20 C20        -5.8699    1.0558   -1.2238 C.3       1 <0>         0.0000
     21 C21        -2.1857   -9.9235    1.2909 C.3       1 <0>         0.0000
     22 C22        -1.2940   -7.5366    1.0360 C.3       1 <0>         0.0000
     23 C23        -1.9715  -10.7304   -0.0066 C.3       1 <0>         0.0000
     24 C24        -5.7880  -10.6571    2.3002 C.3       1 <0>         0.0000
     25 N1         -3.7132   -7.0391   -0.2216 N.ar      1 <0>         0.0000
     26 N2         -4.5988  -10.0523    1.7058 N.am      1 <0>         0.0000
     27 N3         -2.4077   -8.4911    1.0789 N.pl3     1 <0>         0.0000
     28 N4         -4.4778    0.0245   -2.9251 N.pl3     1 <0>         0.0000
     29 N5         -4.9947   -5.5263   -1.4974 N.pl3     1 <0>         0.0000
     30 O1         -3.1870  -11.4242    2.8874 O.2       1 <0>         0.0000
     31 O2         -3.1380   -0.6704   -4.9486 O.2       1 <0>         0.0000
     32 O3         -5.5294   -1.5323   -4.6118 O.2       1 <0>         0.0000
     33 O4          1.4511   -6.6165    1.0157 O.3       1 <0>         0.0000
     34 O5         -4.7127    1.5949   -0.5902 O.3       1 <0>         0.0000
     35 S1         -4.2093   -1.1737   -4.0889 S.o2      1 <0>         0.0000
     36 H1         -0.7096   -3.8387   -1.9016 H         1 <0>         0.0000
     37 H2         -6.8393   -9.2343    0.3767 H         1 <0>         0.0000
     38 H3         -2.3016   -5.5180   -1.0245 H         1 <0>         0.0000
     39 H4         -1.5187   -1.9412   -3.3205 H         1 <0>         0.0000
     40 H5         -6.9905   -7.2085   -1.0432 H         1 <0>         0.0000
     41 H6         -5.5333   -3.4339   -2.9698 H         1 <0>         0.0000
     42 H7          0.1038   -8.5652    2.3613 H         1 <0>         0.0000
     43 H8         -1.0098   -7.4637    3.1893 H         1 <0>         0.0000
     44 H9         -1.0175   -7.5205   -1.1223 H         1 <0>         0.0000
     45 H10         0.0966   -8.5944   -0.2578 H         1 <0>         0.0000
     46 H11        -2.5481    0.8300   -3.0661 H         1 <0>         0.0000
     47 H12        -2.8296   -0.1253   -1.5815 H         1 <0>         0.0000
     48 H13        -5.2469   -1.0157   -1.2311 H         1 <0>         0.0000
     49 H14        -6.4342   -0.5933   -2.4997 H         1 <0>         0.0000
     50 H15         0.1815   -5.5086    2.2277 H         1 <0>         0.0000
     51 H16         1.3588   -6.5667    3.0358 H         1 <0>         0.0000
     52 H17         1.3509   -6.6069   -1.0053 H         1 <0>         0.0000
     53 H18         0.1772   -5.5335   -0.2118 H         1 <0>         0.0000
     54 H19        -2.8379    2.2592   -0.9863 H         1 <0>         0.0000
     55 H20        -4.0298    2.6132   -2.2684 H         1 <0>         0.0000
     56 H21        -6.2849    1.7841   -1.9359 H         1 <0>         0.0000
     57 H22        -6.6012    0.8735   -0.4325 H         1 <0>         0.0000
     58 H23        -1.3219  -10.0470    1.9411 H         1 <0>         0.0000
     59 H24        -1.7741   -6.5541    1.0284 H         1 <0>         0.0000
     60 H25        -2.8211  -10.6066   -0.6852 H         1 <0>         0.0000
     61 H26        -1.8688  -11.7928    0.2333 H         1 <0>         0.0000
     62 H27        -1.0687  -10.4037   -0.5261 H         1 <0>         0.0000
     63 H28        -6.3570  -11.2215    1.5530 H         1 <0>         0.0000
     64 H29        -6.4292   -9.8813    2.7296 H         1 <0>         0.0000
     65 H30        -5.4592  -11.3391    3.0824 H         1 <0>         0.0000
     66 H31        -5.9250   -5.3439   -1.8493 H         1 <0>         0.0000
@<TRIPOS>BOND
     1    1    3 ar
     2    1    4 ar
     3    1   36 1
     4    2    5 ar
     5    2    7 ar
     6    2   37 1
     7    3    8 ar
     8    3   38 1
     9    4    9 ar
    10    4   39 1
    11    5   11 ar
    12    5   40 1
    13    6    8 ar
    14    6    9 ar
    15    6   41 1
    16    7   10 ar
    17    7   26 1
    18    8   29 1
    19    9   35 1
    20   10   25 ar
    21   10   27 1
    22   11   25 ar
    23   11   29 1
    24   12   21 1
    25   12   26 am
    26   12   30 2
    27   13   17 1
    28   13   22 1
    29   13   42 1
    30   13   43 1
    31   14   18 1
    32   14   22 1
    33   14   44 1
    34   14   45 1
    35   15   19 1
    36   15   28 1
    37   15   46 1
    38   15   47 1
    39   16   20 1
    40   16   28 1
    41   16   48 1
    42   16   49 1
    43   17   33 1
    44   17   50 1
    45   17   51 1
    46   18   33 1
    47   18   52 1
    48   18   53 1
    49   19   34 1
    50   19   54 1
    51   19   55 1
    52   20   34 1
    53   20   56 1
    54   20   57 1
    55   21   23 1
    56   21   27 1
    57   21   58 1
    58   22   27 1
    59   22   59 1
    60   23   60 1
    61   23   61 1
    62   23   62 1
    63   24   26 1
    64   24   63 1
    65   24   64 1
    66   24   65 1
    67   28   35 1
    68   29   66 1
    69   31   35 2
    70   32   35 2
