@<TRIPOS>MOLECULE
*****
   67    69     0     0     0
SMALL
NO_CHARGES

@<TRIPOS>ATOM
      1 C1         -0.0124    0.8581    2.0203 C.1       1 <0>         0.0000
      2 C2          3.6181   -4.8045    4.0128 C.ar      1 <0>         0.0000
      3 C3          2.4552   -4.6315    3.2592 C.ar      1 <0>         0.0000
      4 C4         -0.4566   -2.2170   -0.0184 C.ar      1 <0>         0.0000
      5 C5         -0.0989   -0.5287    1.6659 C.ar      1 <0>         0.0000
      6 C6          1.4360   -3.4931    5.1646 C.ar      1 <0>         0.0000
      7 C7          0.0967   -1.5233    2.6541 C.ar      1 <0>         0.0000
      8 C8          3.7187   -4.3390    5.3250 C.ar      1 <0>         0.0000
      9 C9         -0.3786   -0.8660    0.3268 C.ar      1 <0>         0.0000
     10 C10         1.3821   -3.9836    3.8525 C.ar      1 <0>         0.0000
     11 C11         0.0285   -2.8600    2.2728 C.ar      1 <0>         0.0000
     12 C12        -0.2495   -3.2210    0.9362 C.ar      1 <0>         0.0000
     13 C13         2.6206   -3.6717    5.9070 C.ar      1 <0>         0.0000
     14 C14         0.1597   -2.9229    5.7076 C.2       1 <0>         0.0000
     15 C15         0.4051   -1.1194    4.0801 C.3       1 <0>         0.0000
     16 C16        -0.5952    0.2082   -0.7106 C.3       1 <0>         0.0000
     17 C17        -0.6963   -8.6714   -1.9150 C.3       1 <0>         0.0000
     18 C18        -2.1784   -6.7595   -2.6398 C.3       1 <0>         0.0000
     19 C19         3.8899   -7.8322    8.0317 C.3       1 <0>         0.0000
     20 C20         4.2116   -5.5622    9.0888 C.3       1 <0>         0.0000
     21 C21         2.1253   -2.0860    7.6951 C.3       1 <0>         0.0000
     22 C22        -0.6193   -6.5090   -0.6288 C.3       1 <0>         0.0000
     23 C23         5.0163   -6.0083    6.7111 C.3       1 <0>         0.0000
     24 C24        -0.6170   -4.9878   -0.6462 C.3       1 <0>         0.0000
     25 C25         4.9889   -4.5887    6.1123 C.3       1 <0>         0.0000
     26 C26        -0.8286   -7.1449   -2.0142 C.3       1 <0>         0.0000
     27 C27         3.9516   -6.3189    7.7779 C.3       1 <0>         0.0000
     28 N1          0.0599    1.9909    2.2901 N.1       1 <0>         0.0000
     29 O1         -0.4331   -3.3873    6.6558 O.2       1 <0>         0.0000
     30 O2          0.1617   -3.8893    3.1842 O.3       1 <0>         0.0000
     31 O3         -0.3612   -1.8385    5.0657 O.3       1 <0>         0.0000
     32 O4          6.0879   -4.4207    5.1954 O.3       1 <0>         0.0000
     33 O5          2.8086   -3.2396    7.1883 O.3       1 <0>         0.0000
     34 O6         -0.2771   -4.5492    0.6795 O.3       1 <0>         0.0000
     35 H1          4.4818   -5.2953    3.5762 H         1 <0>         0.0000
     36 H2          2.3607   -5.0086    2.2460 H         1 <0>         0.0000
     37 H3         -0.6710   -2.4815   -1.0471 H         1 <0>         0.0000
     38 H4          1.4753   -1.2262    4.2801 H         1 <0>         0.0000
     39 H5          0.1395   -0.0734    4.2333 H         1 <0>         0.0000
     40 H6         -1.4467    0.8441   -0.4471 H         1 <0>         0.0000
     41 H7          0.2781    0.8637   -0.7893 H         1 <0>         0.0000
     42 H8         -0.7859   -0.2289   -1.6934 H         1 <0>         0.0000
     43 H9         -1.4763   -9.0887   -1.2669 H         1 <0>         0.0000
     44 H10         0.2744   -8.9625   -1.4990 H         1 <0>         0.0000
     45 H11        -0.7953   -9.1403   -2.8998 H         1 <0>         0.0000
     46 H12        -3.0079   -7.0459   -1.9815 H         1 <0>         0.0000
     47 H13        -2.3227   -7.2705   -3.5976 H         1 <0>         0.0000
     48 H14        -2.2583   -5.6840   -2.8294 H         1 <0>         0.0000
     49 H15         4.8527   -8.2088    8.3998 H         1 <0>         0.0000
     50 H16         3.1299   -8.0736    8.7827 H         1 <0>         0.0000
     51 H17         3.6434   -8.3805    7.1157 H         1 <0>         0.0000
     52 H18         5.1760   -5.8574    9.5221 H         1 <0>         0.0000
     53 H19         4.2176   -4.4801    8.9376 H         1 <0>         0.0000
     54 H20         3.4335   -5.7871    9.8262 H         1 <0>         0.0000
     55 H21         2.7707   -1.6844    8.4786 H         1 <0>         0.0000
     56 H22         1.1537   -2.3554    8.1113 H         1 <0>         0.0000
     57 H23         2.0000   -1.3281    6.9137 H         1 <0>         0.0000
     58 H24         0.3389   -6.8433   -0.2147 H         1 <0>         0.0000
     59 H25        -1.3983   -6.8538    0.0620 H         1 <0>         0.0000
     60 H26         6.0107   -6.1739    7.1546 H         1 <0>         0.0000
     61 H27         4.9229   -6.7138    5.8765 H         1 <0>         0.0000
     62 H28         0.1250   -4.6072   -1.3613 H         1 <0>         0.0000
     63 H29        -1.5992   -4.5843   -0.9165 H         1 <0>         0.0000
     64 H30         5.0640   -3.8446    6.9110 H         1 <0>         0.0000
     65 H31        -0.0303   -6.7812   -2.6774 H         1 <0>         0.0000
     66 H32         2.9747   -6.0052    7.3912 H         1 <0>         0.0000
     67 H33         6.8962   -4.6877    5.6608 H         1 <0>         0.0000
@<TRIPOS>BOND
     1    1    5 1
     2    1   28 3
     3    2    3 ar
     4    2    8 ar
     5    2   35 1
     6    3   10 ar
     7    3   36 1
     8    4    9 ar
     9    4   12 ar
    10    4   37 1
    11    5    7 ar
    12    5    9 ar
    13    6   10 ar
    14    6   13 ar
    15    6   14 1
    16    7   11 ar
    17    7   15 1
    18    8   13 ar
    19    8   25 1
    20    9   16 1
    21   10   30 1
    22   11   12 ar
    23   11   30 1
    24   12   34 1
    25   13   33 1
    26   14   29 2
    27   14   31 1
    28   15   31 1
    29   15   38 1
    30   15   39 1
    31   16   40 1
    32   16   41 1
    33   16   42 1
    34   17   26 1
    35   17   43 1
    36   17   44 1
    37   17   45 1
    38   18   26 1
    39   18   46 1
    40   18   47 1
    41   18   48 1
    42   19   27 1
    43   19   49 1
    44   19   50 1
    45   19   51 1
    46   20   27 1
    47   20   52 1
    48   20   53 1
    49   20   54 1
    50   21   33 1
    51   21   55 1
    52   21   56 1
    53   21   57 1
    54   22   24 1
    55   22   26 1
    56   22   58 1
    57   22   59 1
    58   23   25 1
    59   23   27 1
    60   23   60 1
    61   23   61 1
    62   24   34 1
    63   24   62 1
    64   24   63 1
    65   25   32 1
    66   25   64 1
    67   26   65 1
    68   27   66 1
    69   32   67 1
