@<TRIPOS>MOLECULE
*****
   41    44     0     0     0
SMALL
NO_CHARGES

@<TRIPOS>ATOM
      1 C1          3.8108    4.1689   -6.7542 C.2       1 <0>         0.0000
      2 C2          3.0520    0.6802   -4.2518 C.ar      1 <0>         0.0000
      3 C3          2.6115   -0.2584   -3.3171 C.ar      1 <0>         0.0000
      4 C4          3.2811    5.0812   -5.8112 C.2       1 <0>         0.0000
      5 C5          1.4808    1.4821   -2.0716 C.ar      1 <0>         0.0000
      6 C6          3.6976    2.9031   -6.2174 C.2       1 <0>         0.0000
      7 C7          2.7108    2.0221   -4.0788 C.ar      1 <0>         0.0000
      8 C8          1.8284    0.1402   -2.2317 C.ar      1 <0>         0.0000
      9 C9          1.9320    2.4300   -2.9895 C.ar      1 <0>         0.0000
     10 C10         2.8603    4.3451   -4.7244 C.2       1 <0>         0.0000
     11 C11         1.6204   -2.1989   -1.3018 C.2       1 <0>         0.0000
     12 C12         0.6214   -3.0272    3.6806 C.2       1 <0>         0.0000
     13 C13         2.3143    4.7511   -3.4054 C.3       1 <0>         0.0000
     14 C14         0.4768   -0.5081   -0.2144 C.3       1 <0>         0.0000
     15 C15         0.5271   -1.7442    0.6577 C.3       1 <0>         0.0000
     16 C16         0.7832   -4.3523    4.3486 C.3       1 <0>         0.0000
     17 C17         1.4904   -1.6130    1.8293 C.3       1 <0>         0.0000
     18 N1          3.0893    3.0176   -4.9917 N.pl3     1 <0>         0.0000
     19 N2          1.3762   -0.8280   -1.2904 N.am      1 <0>         0.0000
     20 N3          1.4797   -2.8089    2.6060 N.am      1 <0>         0.0000
     21 O1          2.2442   -2.8703   -2.1114 O.2       1 <0>         0.0000
     22 O2         -0.2214   -2.2404    4.0955 O.2       1 <0>         0.0000
     23 O3          1.5035    3.7203   -2.8130 O.3       1 <0>         0.0000
     24 O4          1.0000   -2.7777   -0.2174 O.3       1 <0>         0.0000
     25 H1          4.2392    4.4054   -7.7180 H         1 <0>         0.0000
     26 H2          3.6539    0.3380   -5.0874 H         1 <0>         0.0000
     27 H3          2.8810   -1.3039   -3.4484 H         1 <0>         0.0000
     28 H4          3.2359    6.1574   -5.9022 H         1 <0>         0.0000
     29 H5          0.8581    1.7909   -1.2347 H         1 <0>         0.0000
     30 H6          3.9859    1.9467   -6.6313 H         1 <0>         0.0000
     31 H7          3.1265    4.9938   -2.7106 H         1 <0>         0.0000
     32 H8          1.6838    5.6401   -3.5104 H         1 <0>         0.0000
     33 H9         -0.5230   -0.3749   -0.6447 H         1 <0>         0.0000
     34 H10         0.7742    0.4122    0.2988 H         1 <0>         0.0000
     35 H11        -0.4689   -2.0155    1.0167 H         1 <0>         0.0000
     36 H12         1.5180   -4.3226    5.1692 H         1 <0>         0.0000
     37 H13        -0.1526   -4.7084    4.8086 H         1 <0>         0.0000
     38 H14         1.1142   -5.1734    3.6928 H         1 <0>         0.0000
     39 H15         2.4848   -1.4357    1.4186 H         1 <0>         0.0000
     40 H16         1.1615   -0.7658    2.4318 H         1 <0>         0.0000
     41 H17         2.1419   -3.5507    2.3590 H         1 <0>         0.0000
@<TRIPOS>BOND
     1    1    4 1
     2    1    6 2
     3    1   25 1
     4    2    3 ar
     5    2    7 ar
     6    2   26 1
     7    3    8 ar
     8    3   27 1
     9    4   10 2
    10    4   28 1
    11    5    8 ar
    12    5    9 ar
    13    5   29 1
    14    6   18 1
    15    6   30 1
    16    7    9 ar
    17    7   18 1
    18    8   19 1
    19    9   23 1
    20   10   13 1
    21   10   18 1
    22   11   19 am
    23   11   21 2
    24   11   24 1
    25   12   16 1
    26   12   20 am
    27   12   22 2
    28   13   23 1
    29   13   31 1
    30   13   32 1
    31   14   15 1
    32   14   19 1
    33   14   33 1
    34   14   34 1
    35   15   17 1
    36   15   24 1
    37   15   35 1
    38   16   36 1
    39   16   37 1
    40   16   38 1
    41   17   20 1
    42   17   39 1
    43   17   40 1
    44   20   41 1
