@<TRIPOS>MOLECULE
*****
   29    30     0     0     0
SMALL
NO_CHARGES

@<TRIPOS>ATOM
      1 C1         -0.0619    1.1501   -0.0438 C.ar      1 <0>         0.0000
      2 C2          0.2338    1.7675    1.1768 C.ar      1 <0>         0.0000
      3 C3          0.3202   -0.1762   -0.2628 C.ar      1 <0>         0.0000
      4 C4          0.9137    1.0617    2.1704 C.ar      1 <0>         0.0000
      5 C5          0.9731   -0.8961    0.7411 C.ar      1 <0>         0.0000
      6 C6         -1.4253   -0.6818    4.4344 C.ar      1 <0>         0.0000
      7 C7         -2.2307    0.4485    4.3315 C.ar      1 <0>         0.0000
      8 C8         -1.9159   -1.2328    2.1154 C.ar      1 <0>         0.0000
      9 C9          1.2673   -0.2824    1.9689 C.ar      1 <0>         0.0000
     10 C10        -1.2604   -1.4955    3.3126 C.ar      1 <0>         0.0000
     11 C11        -2.8711    0.7507    3.1233 C.ar      1 <0>         0.0000
     12 C12        -2.7278   -0.1012    2.0175 C.ar      1 <0>         0.0000
     13 C13         1.9293   -1.0396    3.0541 C.2       1 <0>         0.0000
     14 C14         1.4710   -2.1422    3.6603 C.2       1 <0>         0.0000
     15 O1         -0.4086   -3.6291    4.6519 O.2       1 <0>         0.0000
     16 O2         -0.1863   -3.5921    2.1023 O.2       1 <0>         0.0000
     17 S1         -0.1379   -2.9037    3.4013 S.o2      1 <0>         0.0000
     18 Cl1        -3.8323    2.2002    3.0278 Cl        1 <0>         0.0000
     19 Cl2        -3.5287    0.2265    0.5054 Cl        1 <0>         0.0000
     20 H1         -0.5951    1.6984   -0.8150 H         1 <0>         0.0000
     21 H2         -0.0686    2.7957    1.3550 H         1 <0>         0.0000
     22 H3          0.0919   -0.6602   -1.2084 H         1 <0>         0.0000
     23 H4          1.1367    1.5404    3.1208 H         1 <0>         0.0000
     24 H5          1.2366   -1.9372    0.5860 H         1 <0>         0.0000
     25 H6         -0.9278   -0.9209    5.3689 H         1 <0>         0.0000
     26 H7         -2.3686    1.1081    5.1820 H         1 <0>         0.0000
     27 H8         -1.7769   -1.8880    1.2636 H         1 <0>         0.0000
     28 H9          2.8819   -0.6499    3.4158 H         1 <0>         0.0000
     29 H10         2.0130   -2.6570    4.4489 H         1 <0>         0.0000
@<TRIPOS>BOND
     1    1    3 ar
     2    1    2 ar
     3    1   20 1
     4    2    4 ar
     5    2   21 1
     6    3    5 ar
     7    3   22 1
     8    4    9 ar
     9    4   23 1
    10    5    9 ar
    11    5   24 1
    12    6    7 ar
    13    6   10 ar
    14    6   25 1
    15    7   11 ar
    16    7   26 1
    17    8   10 ar
    18    8   12 ar
    19    8   27 1
    20    9   13 1
    21   10   17 1
    22   11   12 ar
    23   11   18 1
    24   12   19 1
    25   13   14 2
    26   13   28 1
    27   14   17 1
    28   14   29 1
    29   15   17 2
    30   16   17 2
