@<TRIPOS>MOLECULE
*****
   18    19     0     0     0
SMALL
NO_CHARGES

@<TRIPOS>ATOM
      1 C1         -1.1971   -0.2072    2.4205 C.2       1 <0>         0.0000
      2 C2         -0.9113    0.2847    3.6664 C.2       1 <0>         0.0000
      3 C3         -0.0962    0.1916    1.6430 C.2       1 <0>         0.0000
      4 C4          0.7622   -1.3874   -0.1110 C.2       1 <0>         0.0000
      5 C5         -1.0330    0.3194   -0.8008 C.3       1 <0>         0.0000
      6 C6          0.2785    1.0404   -0.8064 C.3       1 <0>         0.0000
      7 C7          0.0670   -0.1210    0.1422 C.3       1 <0>         0.0000
      8 N1          0.8037    0.8784    2.3525 N.2       1 <0>         0.0000
      9 O1          0.2183   -2.4755   -0.2271 O.2       1 <0>         0.0000
     10 O2          0.2803    0.9346    3.6387 O.3       1 <0>         0.0000
     11 O3          2.1004   -1.1899   -0.1975 O.3       1 <0>         0.0000
     12 H1         -2.0710   -0.7686    2.1248 H         1 <0>         0.0000
     13 H2         -1.4150    0.2629    4.6212 H         1 <0>         0.0000
     14 H3         -1.8911    0.8406   -0.3927 H         1 <0>         0.0000
     15 H4         -1.2637   -0.3089   -1.6535 H         1 <0>         0.0000
     16 H5          0.9264    0.8970   -1.6635 H         1 <0>         0.0000
     17 H6          0.3003    2.0463   -0.4038 H         1 <0>         0.0000
     18 H7          2.5841   -2.0267   -0.3650 H         1 <0>         0.0000
@<TRIPOS>BOND
     1    1    2 2
     2    1    3 1
     3    1   12 1
     4    2   10 1
     5    2   13 1
     6    3    7 1
     7    3    8 2
     8    4    7 1
     9    4    9 2
    10    4   11 1
    11    5    6 1
    12    5    7 1
    13    5   14 1
    14    5   15 1
    15    6    7 1
    16    6   16 1
    17    6   17 1
    18    8   10 1
    19   11   18 1
