@<TRIPOS>MOLECULE
*****
   43    44     0     0     0
SMALL
NO_CHARGES

@<TRIPOS>ATOM
      1 C1          5.0041   -3.4368   -3.0002 C.ar      1 <0>         0.0000
      2 C2          4.2972   -2.6175   -3.8884 C.ar      1 <0>         0.0000
      3 C3          4.5173   -3.6684   -1.7087 C.ar      1 <0>         0.0000
      4 C4          3.1011   -2.0180   -3.4862 C.ar      1 <0>         0.0000
      5 C5          3.3223   -3.0742   -1.2939 C.ar      1 <0>         0.0000
      6 C6         -1.2032    0.4892    2.3573 C.2       1 <0>         0.0000
      7 C7          0.8417    0.6352    1.8881 C.2       1 <0>         0.0000
      8 C8          2.6359   -2.2516   -2.1898 C.ar      1 <0>         0.0000
      9 C9          0.9991    4.6195   -2.1416 C.3       1 <0>         0.0000
     10 C10         1.2302    2.4164   -3.3185 C.3       1 <0>         0.0000
     11 C11        -0.9924    3.1210   -2.3708 C.3       1 <0>         0.0000
     12 C12         1.7245    0.1407   -1.0272 C.3       1 <0>         0.0000
     13 C13         0.5421    1.0299   -0.6185 C.3       1 <0>         0.0000
     14 C14         0.8578    2.5343   -0.7667 C.3       1 <0>         0.0000
     15 C15         0.5343    3.1494   -2.1578 C.3       1 <0>         0.0000
     16 N1          0.0370    0.4722    2.9305 N.2       1 <0>         0.0000
     17 N2         -1.2094    0.6529    1.0392 N.2       1 <0>         0.0000
     18 N3          0.1191    0.7324    0.7468 N.pl3     1 <0>         0.0000
     19 O1          0.2998   -1.1558   -2.8383 O.2       1 <0>         0.0000
     20 O2          0.5645   -2.2267   -0.5231 O.2       1 <0>         0.0000
     21 O3          2.2331    2.6844   -0.3788 O.3       1 <0>         0.0000
     22 S1          1.1170   -1.4588   -1.6478 S.o2      1 <0>         0.0000
     23 H1          5.9326   -3.9032   -3.3187 H         1 <0>         0.0000
     24 H2          4.6718   -2.4531   -4.8949 H         1 <0>         0.0000
     25 H3          5.0622   -4.3166   -1.0280 H         1 <0>         0.0000
     26 H4          2.5228   -1.3987   -4.1654 H         1 <0>         0.0000
     27 H5          2.9120   -3.2571   -0.3052 H         1 <0>         0.0000
     28 H6         -2.1212    0.3725    2.9186 H         1 <0>         0.0000
     29 H7          1.9207    0.6951    1.9175 H         1 <0>         0.0000
     30 H8          0.5684    5.1695   -1.2952 H         1 <0>         0.0000
     31 H9          2.0904    4.7004   -2.0933 H         1 <0>         0.0000
     32 H10         0.6801    5.1279   -3.0569 H         1 <0>         0.0000
     33 H11         0.8563    1.3956   -3.4446 H         1 <0>         0.0000
     34 H12         2.3154    2.3842   -3.1732 H         1 <0>         0.0000
     35 H13         1.0404    2.9481   -4.2572 H         1 <0>         0.0000
     36 H14        -1.3835    2.1035   -2.4572 H         1 <0>         0.0000
     37 H15        -1.5221    3.6158   -1.5491 H         1 <0>         0.0000
     38 H16        -1.2487    3.6451   -3.2972 H         1 <0>         0.0000
     39 H17         2.2939    0.5831   -1.8408 H         1 <0>         0.0000
     40 H18         2.4059   -0.0615   -0.2021 H         1 <0>         0.0000
     41 H19        -0.3235    0.7930   -1.2359 H         1 <0>         0.0000
     42 H20         0.2184    3.0501   -0.0383 H         1 <0>         0.0000
     43 H21         2.3906    3.6156   -0.1630 H         1 <0>         0.0000
@<TRIPOS>BOND
     1    1    3 ar
     2    1    2 ar
     3    1   23 1
     4    2    4 ar
     5    2   24 1
     6    3    5 ar
     7    3   25 1
     8    4    8 ar
     9    4   26 1
    10    5    8 ar
    11    5   27 1
    12    6   16 1
    13    6   17 2
    14    6   28 1
    15    7   16 2
    16    7   18 1
    17    7   29 1
    18    8   22 1
    19    9   15 1
    20    9   30 1
    21    9   31 1
    22    9   32 1
    23   10   15 1
    24   10   33 1
    25   10   34 1
    26   10   35 1
    27   11   15 1
    28   11   36 1
    29   11   37 1
    30   11   38 1
    31   12   13 1
    32   12   22 1
    33   12   39 1
    34   12   40 1
    35   13   14 1
    36   13   18 1
    37   13   41 1
    38   14   15 1
    39   14   21 1
    40   14   42 1
    41   17   18 1
    42   19   22 2
    43   20   22 2
    44   21   43 1
