@<TRIPOS>MOLECULE
*****
   26    27     0     0     0
SMALL
NO_CHARGES

@<TRIPOS>ATOM
      1 C1         -1.5952    2.1681   -0.1372 C.ar      1 <0>         0.0000
      2 C2         -0.3165    2.6992    0.0743 C.ar      1 <0>         0.0000
      3 C3         -1.7575    0.7938   -0.3289 C.ar      1 <0>         0.0000
      4 C4          0.8001    1.8565    0.1163 C.ar      1 <0>         0.0000
      5 C5         -0.6508   -0.0634   -0.2937 C.ar      1 <0>         0.0000
      6 C6          0.6254    0.4850   -0.0519 C.ar      1 <0>         0.0000
      7 C7          0.2029   -2.1833   -0.2998 C.2       1 <0>         0.0000
      8 C8          1.4267   -1.6727    0.4403 C.3       1 <0>         0.0000
      9 C9          1.2452   -1.6732    1.9721 C.3       1 <0>         0.0000
     10 C10         0.6112   -2.9415    2.5520 C.3       1 <0>         0.0000
     11 N1         -0.7972   -1.4331   -0.5914 N.2       1 <0>         0.0000
     12 N2          0.1677   -3.5571   -0.5647 N.pl3     1 <0>         0.0000
     13 O1          1.7262   -0.3455   -0.0297 O.3       1 <0>         0.0000
     14 O2          1.2765   -4.1435    2.1531 O.3       1 <0>         0.0000
     15 H1         -2.4605    2.8246   -0.1640 H         1 <0>         0.0000
     16 H2         -0.1858    3.7690    0.2129 H         1 <0>         0.0000
     17 H3         -2.7355    0.3622   -0.5233 H         1 <0>         0.0000
     18 H4          1.8002    2.2450    0.2866 H         1 <0>         0.0000
     19 H5          2.3029   -2.2685    0.1754 H         1 <0>         0.0000
     20 H6          0.6126   -0.8208    2.2453 H         1 <0>         0.0000
     21 H7          2.2309   -1.5051    2.4176 H         1 <0>         0.0000
     22 H8          0.6667   -2.8972    3.6437 H         1 <0>         0.0000
     23 H9         -0.4516   -2.9863    2.2807 H         1 <0>         0.0000
     24 H10        -0.6321   -3.8014   -1.1459 H         1 <0>         0.0000
     25 H11         1.0341   -3.9167   -0.9575 H         1 <0>         0.0000
     26 H12         0.8638   -4.4087    1.3127 H         1 <0>         0.0000
@<TRIPOS>BOND
     1    1    2 ar
     2    1    3 ar
     3    1   15 1
     4    2    4 ar
     5    2   16 1
     6    3    5 ar
     7    3   17 1
     8    4    6 ar
     9    4   18 1
    10    5    6 ar
    11    5   11 1
    12    6   13 1
    13    7    8 1
    14    7   11 2
    15    7   12 1
    16    8    9 1
    17    8   13 1
    18    8   19 1
    19    9   10 1
    20    9   20 1
    21    9   21 1
    22   10   14 1
    23   10   22 1
    24   10   23 1
    25   12   24 1
    26   12   25 1
    27   14   26 1
