@<TRIPOS>MOLECULE
*****
   27    28     0     0     0
SMALL
NO_CHARGES

@<TRIPOS>ATOM
      1 C1         -2.1064    1.0261   -1.7562 C.ar      1 <0>         0.0000
      2 C2         -1.9306    2.0584   -0.8260 C.ar      1 <0>         0.0000
      3 C3         -1.2575   -0.0819   -1.7402 C.ar      1 <0>         0.0000
      4 C4         -0.9143    1.9936    0.1321 C.ar      1 <0>         0.0000
      5 C5         -0.2411   -0.1372   -0.7863 C.ar      1 <0>         0.0000
      6 C6         -0.0717    0.8865    0.1515 C.ar      1 <0>         0.0000
      7 C7          1.4888   -1.4170    0.2889 C.cat     1 <0>         0.0000
      8 C8          1.3584   -0.4727    1.4750 C.3       1 <0>         0.0000
      9 C9          0.4083   -1.0167    2.5587 C.3       1 <0>         0.0000
     10 C10         0.8072   -2.4025    3.0701 C.3       1 <0>         0.0000
     11 N1          0.6873   -1.2195   -0.7450 N.pl3     1 <0>         0.0000
     12 N2          2.3871   -2.3910    0.3500 N.pl3     1 <0>         0.0000
     13 O1          0.9831    0.8297    1.0364 O.3       1 <0>         0.0000
     14 O2          2.2471   -2.4511    3.1834 O.3       1 <0>         0.0000
     15 H1         -2.9008    1.0833   -2.4931 H         1 <0>         0.0000
     16 H2         -2.5912    2.9197   -0.8435 H         1 <0>         0.0000
     17 H3         -1.3826   -0.8867   -2.4611 H         1 <0>         0.0000
     18 H4         -0.7610    2.7876    0.8562 H         1 <0>         0.0000
     19 H5          2.3520   -0.3493    1.9054 H         1 <0>         0.0000
     20 H6         -0.6189   -1.0496    2.1813 H         1 <0>         0.0000
     21 H7          0.4411   -0.2861    3.3715 H         1 <0>         0.0000
     22 H8          0.3371   -2.5833    4.0407 H         1 <0>         0.0000
     23 H9          0.4700   -3.1883    2.3818 H         1 <0>         0.0000
     24 H10         0.7291   -1.8351   -1.5541 H         1 <0>         0.0000
     25 H11         2.4948   -3.0838   -0.3845 H         1 <0>         0.0000
     26 H12         2.8150   -2.5783    1.2631 H         1 <0>         0.0000
     27 H13         2.4997   -3.0854    3.8729 H         1 <0>         0.0000
@<TRIPOS>BOND
     1    1    2 ar
     2    1    3 ar
     3    1   15 1
     4    2    4 ar
     5    2   16 1
     6    3    5 ar
     7    3   17 1
     8    4    6 ar
     9    4   18 1
    10    5    6 ar
    11    5   11 1
    12    6   13 1
    13    7    8 1
    14    7   11 2
    15    7   12 1
    16    8    9 1
    17    8   13 1
    18    8   19 1
    19    9   10 1
    20    9   20 1
    21    9   21 1
    22   10   14 1
    23   10   22 1
    24   10   23 1
    25   11   24 1
    26   12   25 1
    27   12   26 1
    28   14   27 1
