@<TRIPOS>MOLECULE
*****
   27    28     0     0     0
SMALL
NO_CHARGES

@<TRIPOS>ATOM
      1 C1         -2.3777    1.6290   -1.4963 C.ar      1 <0>         0.0000
      2 C2         -2.0491    2.6386   -0.5828 C.ar      1 <0>         0.0000
      3 C3         -1.6130    0.4627   -1.5570 C.ar      1 <0>         0.0000
      4 C4         -0.9636    2.4932    0.2871 C.ar      1 <0>         0.0000
      5 C5         -0.5266    0.3277   -0.6928 C.ar      1 <0>         0.0000
      6 C6         -0.2069    1.3280    0.2320 C.ar      1 <0>         0.0000
      7 C7          1.2041   -1.0675    0.2186 C.cat     1 <0>         0.0000
      8 C8          1.1539   -0.1723    1.4458 C.3       1 <0>         0.0000
      9 C9          0.1213   -0.7113    2.4439 C.3       1 <0>         0.0000
     10 C10         0.0321    0.1513    3.7027 C.3       1 <0>         0.0000
     11 N1          0.3366   -0.8080   -0.7437 N.pl3     1 <0>         0.0000
     12 N2          2.0710   -2.0743    0.1623 N.pl3     1 <0>         0.0000
     13 O1          0.9045    1.1727    1.0354 O.3       1 <0>         0.0000
     14 O2         -0.8760   -0.5226    4.5635 O.3       1 <0>         0.0000
     15 H1         -3.2267    1.7491   -2.1612 H         1 <0>         0.0000
     16 H2         -2.6456    3.5447   -0.5422 H         1 <0>         0.0000
     17 H3         -1.8574   -0.3249   -2.2658 H         1 <0>         0.0000
     18 H4         -0.6950    3.2678    0.9986 H         1 <0>         0.0000
     19 H5          2.1474   -0.1423    1.9010 H         1 <0>         0.0000
     20 H6          0.4055   -1.7282    2.7382 H         1 <0>         0.0000
     21 H7         -0.8677   -0.7724    1.9791 H         1 <0>         0.0000
     22 H8          1.0276    0.2485    4.1626 H         1 <0>         0.0000
     23 H9         -0.3223    1.1576    3.4454 H         1 <0>         0.0000
     24 H10         0.2989   -1.3899   -1.5779 H         1 <0>         0.0000
     25 H11         2.1141   -2.7277   -0.6143 H         1 <0>         0.0000
     26 H12         2.7157   -2.2337    0.9285 H         1 <0>         0.0000
     27 H13        -1.0190    0.0140    5.3593 H         1 <0>         0.0000
@<TRIPOS>BOND
     1    1    2 ar
     2    1    3 ar
     3    1   15 1
     4    2    4 ar
     5    2   16 1
     6    3    5 ar
     7    3   17 1
     8    4    6 ar
     9    4   18 1
    10    5    6 ar
    11    5   11 1
    12    6   13 1
    13    7    8 1
    14    7   11 2
    15    7   12 1
    16    8    9 1
    17    8   13 1
    18    8   19 1
    19    9   10 1
    20    9   20 1
    21    9   21 1
    22   10   14 1
    23   10   22 1
    24   10   23 1
    25   11   24 1
    26   12   25 1
    27   12   26 1
    28   14   27 1
