@<TRIPOS>MOLECULE
*****
   46    49     0     0     0
SMALL
NO_CHARGES

@<TRIPOS>ATOM
      1 C1         -6.5088    0.4978    1.7513 C.ar      1 <0>         0.0000
      2 C2         -7.4587    0.2503    3.9518 C.ar      1 <0>         0.0000
      3 C3         -7.3078   -0.5465    1.2760 C.ar      1 <0>         0.0000
      4 C4         -8.2701   -0.7923    3.4990 C.ar      1 <0>         0.0000
      5 C5         -6.5668    0.9061    3.0915 C.ar      1 <0>         0.0000
      6 C6         -8.1718   -1.1757    2.1652 C.ar      1 <0>         0.0000
      7 C7         -3.7748   -1.8063    2.8312 C.2       1 <0>         0.0000
      8 C8         -3.3096    0.3230    2.2691 C.2       1 <0>         0.0000
      9 C9         -1.1413   -1.2497    0.6682 C.2       1 <0>         0.0000
     10 C10        -3.9150   -3.2821    2.6377 C.3       1 <0>         0.0000
     11 C11        -2.9578   -3.7777    1.5401 C.3       1 <0>         0.0000
     12 C12        -3.0543   -2.8869    0.2921 C.3       1 <0>         0.0000
     13 C13         0.8052    0.0596   -0.2078 C.3       1 <0>         0.0000
     14 C14        -1.1196    0.7679   -0.9524 C.3       1 <0>         0.0000
     15 C15        -2.6692   -1.4212    0.5773 C.3       1 <0>         0.0000
     16 C16         0.3330    1.2773   -1.0235 C.3       1 <0>         0.0000
     17 C17        -5.6055    1.9507    3.6090 C.3       1 <0>         0.0000
     18 C18        -4.3820    1.3100    4.3063 C.3       1 <0>         0.0000
     19 N1         -4.1429   -1.1036    3.8650 N.2       1 <0>         0.0000
     20 N2         -3.2692   -0.9993    1.8313 N.am      1 <0>         0.0000
     21 N3         -3.8255    0.2129    3.5343 N.am      1 <0>         0.0000
     22 N4         -0.5821   -0.4408   -0.2713 N.am      1 <0>         0.0000
     23 O1         -2.9685    1.3316    1.6383 O.2       1 <0>         0.0000
     24 O2         -0.4677   -1.8510    1.5032 O.2       1 <0>         0.0000
     25 F1         -8.9498   -2.1975    1.7147 F         1 <0>         0.0000
     26 F2          0.8435    1.3354   -2.2923 F         1 <0>         0.0000
     27 F3          0.5561    2.4905   -0.4466 F         1 <0>         0.0000
     28 H1         -5.8248    0.9983    1.0707 H         1 <0>         0.0000
     29 H2         -7.5138    0.5470    4.9968 H         1 <0>         0.0000
     30 H3         -7.2715   -0.8676    0.2392 H         1 <0>         0.0000
     31 H4         -8.9619   -1.3068    4.1589 H         1 <0>         0.0000
     32 H5         -3.7378   -3.7885    3.5896 H         1 <0>         0.0000
     33 H6         -4.9530   -3.4922    2.3499 H         1 <0>         0.0000
     34 H7         -1.9299   -3.7742    1.9095 H         1 <0>         0.0000
     35 H8         -3.2152   -4.8070    1.2720 H         1 <0>         0.0000
     36 H9         -2.4098   -3.2673   -0.5056 H         1 <0>         0.0000
     37 H10        -4.0829   -2.8989   -0.0884 H         1 <0>         0.0000
     38 H11         1.5377   -0.5779   -0.7077 H         1 <0>         0.0000
     39 H12         1.1282    0.2976    0.8089 H         1 <0>         0.0000
     40 H13        -1.7712    1.3666   -0.3111 H         1 <0>         0.0000
     41 H14        -1.5708    0.5710   -1.9281 H         1 <0>         0.0000
     42 H15        -3.0642   -0.7770   -0.2124 H         1 <0>         0.0000
     43 H16        -6.0942    2.6165    4.3291 H         1 <0>         0.0000
     44 H17        -5.2484    2.5692    2.7818 H         1 <0>         0.0000
     45 H18        -3.6053    2.0632    4.4655 H         1 <0>         0.0000
     46 H19        -4.6580    0.8834    5.2718 H         1 <0>         0.0000
@<TRIPOS>BOND
     1    1    3 ar
     2    1    5 ar
     3    1   28 1
     4    2    4 ar
     5    2    5 ar
     6    2   29 1
     7    3    6 ar
     8    3   30 1
     9    4    6 ar
    10    4   31 1
    11    5   17 1
    12    6   25 1
    13    7   10 1
    14    7   19 2
    15    7   20 1
    16    8   20 am
    17    8   21 am
    18    8   23 2
    19    9   15 1
    20    9   22 am
    21    9   24 2
    22   10   11 1
    23   10   32 1
    24   10   33 1
    25   11   12 1
    26   11   34 1
    27   11   35 1
    28   12   15 1
    29   12   36 1
    30   12   37 1
    31   13   16 1
    32   13   22 1
    33   13   38 1
    34   13   39 1
    35   14   16 1
    36   14   22 1
    37   14   40 1
    38   14   41 1
    39   15   20 1
    40   15   42 1
    41   16   26 1
    42   16   27 1
    43   17   18 1
    44   17   43 1
    45   17   44 1
    46   18   21 1
    47   18   45 1
    48   18   46 1
    49   19   21 1
