@<TRIPOS>MOLECULE
*****
   27    28     0     0     0
SMALL
NO_CHARGES

@<TRIPOS>ATOM
      1 C1         -2.1343    1.3169   -1.4677 C.ar      1 <0>         0.0000
      2 C2         -1.6795    2.3262   -0.6095 C.ar      1 <0>         0.0000
      3 C3         -1.4673    0.0919   -1.5244 C.ar      1 <0>         0.0000
      4 C4         -0.5639    2.1229    0.2091 C.ar      1 <0>         0.0000
      5 C5         -0.3502   -0.1012   -0.7119 C.ar      1 <0>         0.0000
      6 C6          0.0956    0.8997    0.1585 C.ar      1 <0>         0.0000
      7 C7          1.3150   -1.5981    0.1584 C.cat     1 <0>         0.0000
      8 C8          1.3991   -0.6641    1.3545 C.3       1 <0>         0.0000
      9 C9          0.3823   -1.0882    2.4218 C.3       1 <0>         0.0000
     10 C10         0.4323   -0.1873    3.6556 C.3       1 <0>         0.0000
     11 N1          0.4183   -1.3031   -0.7660 N.pl3     1 <0>         0.0000
     12 N2          2.0992   -2.6701    0.0929 N.pl3     1 <0>         0.0000
     13 O1          1.2326    0.6827    0.9098 O.3       1 <0>         0.0000
     14 O2         -0.4889   -0.7526    4.5783 O.3       1 <0>         0.0000
     15 H1         -3.0056    1.4828   -2.0926 H         1 <0>         0.0000
     16 H2         -2.2005    3.2778   -0.5718 H         1 <0>         0.0000
     17 H3         -1.8099   -0.6962   -2.1907 H         1 <0>         0.0000
     18 H4         -0.1981    2.8961    0.8774 H         1 <0>         0.0000
     19 H5          2.4147   -0.6982    1.7575 H         1 <0>         0.0000
     20 H6          0.5976   -2.1171    2.7323 H         1 <0>         0.0000
     21 H7         -0.6323   -1.0788    2.0112 H         1 <0>         0.0000
     22 H8          1.4538   -0.1685    4.0654 H         1 <0>         0.0000
     23 H9          0.1570    0.8397    3.3835 H         1 <0>         0.0000
     24 H10         0.2919   -1.9055   -1.5765 H         1 <0>         0.0000
     25 H11         2.0541   -3.3466   -0.6635 H         1 <0>         0.0000
     26 H12         2.7716   -2.8539    0.8292 H         1 <0>         0.0000
     27 H13        -0.5424   -0.1853    5.3637 H         1 <0>         0.0000
@<TRIPOS>BOND
     1    1    2 ar
     2    1    3 ar
     3    1   15 1
     4    2    4 ar
     5    2   16 1
     6    3    5 ar
     7    3   17 1
     8    4    6 ar
     9    4   18 1
    10    5    6 ar
    11    5   11 1
    12    6   13 1
    13    7    8 1
    14    7   11 1
    15    7   12 2
    16    8    9 1
    17    8   13 1
    18    8   19 1
    19    9   10 1
    20    9   20 1
    21    9   21 1
    22   10   14 1
    23   10   22 1
    24   10   23 1
    25   11   24 1
    26   12   25 1
    27   12   26 1
    28   14   27 1
