@<TRIPOS>MOLECULE
*****
   26    27     0     0     0
SMALL
NO_CHARGES

@<TRIPOS>ATOM
      1 C1         -1.6593    2.4976   -0.4364 C.ar      1 <0>         0.0000
      2 C2         -0.3823    2.9467   -0.0791 C.ar      1 <0>         0.0000
      3 C3         -1.8995    1.1295   -0.5893 C.ar      1 <0>         0.0000
      4 C4          0.6503    2.0281    0.1429 C.ar      1 <0>         0.0000
      5 C5         -0.8760    0.1968   -0.3772 C.ar      1 <0>         0.0000
      6 C6          0.3934    0.6659    0.0077 C.ar      1 <0>         0.0000
      7 C7         -0.2010   -1.9938   -0.1854 C.2       1 <0>         0.0000
      8 C8          1.0483   -1.5653    0.5718 C.3       1 <0>         0.0000
      9 C9          0.9164   -1.7250    2.0981 C.3       1 <0>         0.0000
     10 C10        -0.3016   -1.0696    2.7648 C.3       1 <0>         0.0000
     11 N1         -1.1193   -1.1745   -0.5766 N.2       1 <0>         0.0000
     12 N2         -0.3082   -3.3367   -0.4581 N.pl3     1 <0>         0.0000
     13 O1          1.4230   -0.2259    0.2143 O.3       1 <0>         0.0000
     14 O2         -1.5292   -1.7510    2.4946 O.3       1 <0>         0.0000
     15 H1         -2.4620    3.2103   -0.6031 H         1 <0>         0.0000
     16 H2         -0.1872    4.0097    0.0330 H         1 <0>         0.0000
     17 H3         -2.8764    0.7578   -0.8865 H         1 <0>         0.0000
     18 H4          1.6477    2.3515    0.4278 H         1 <0>         0.0000
     19 H5          1.8888   -2.1790    0.2342 H         1 <0>         0.0000
     20 H6          1.8311   -1.3065    2.5350 H         1 <0>         0.0000
     21 H7          0.9043   -2.7946    2.3437 H         1 <0>         0.0000
     22 H8         -0.1676   -1.1234    3.8491 H         1 <0>         0.0000
     23 H9         -0.3715   -0.0091    2.4975 H         1 <0>         0.0000
     24 H10        -1.2302   -3.6281   -0.7666 H         1 <0>         0.0000
     25 H11         0.1388   -3.9782    0.1857 H         1 <0>         0.0000
     26 H12        -1.8528   -1.4708    1.6229 H         1 <0>         0.0000
@<TRIPOS>BOND
     1    1    2 ar
     2    1    3 ar
     3    1   15 1
     4    2    4 ar
     5    2   16 1
     6    3    5 ar
     7    3   17 1
     8    4    6 ar
     9    4   18 1
    10    5    6 ar
    11    5   11 1
    12    6   13 1
    13    7    8 1
    14    7   11 2
    15    7   12 1
    16    8    9 1
    17    8   13 1
    18    8   19 1
    19    9   10 1
    20    9   20 1
    21    9   21 1
    22   10   14 1
    23   10   22 1
    24   10   23 1
    25   12   24 1
    26   12   25 1
    27   14   26 1
