@<TRIPOS>MOLECULE
*****
   34    34     0     0     0
SMALL
NO_CHARGES

@<TRIPOS>ATOM
      1 C1          9.1108   -1.4761   -0.1972 C.2       1 <0>         0.0000
      2 C2          7.4060   -0.4390    1.0678 C.2       1 <0>         0.0000
      3 C3         10.1842   -2.3275   -0.8311 C.2       1 <0>         0.0000
      4 C4         -0.3528   -0.7962    1.0668 C.3       1 <0>         0.0000
      5 C5         13.3919   -2.7917   -0.8528 C.3       1 <0>         0.0000
      6 C6          0.8663   -0.3527    1.8828 C.3       1 <0>         0.0000
      7 C7          2.1910   -0.5874    1.1469 C.3       1 <0>         0.0000
      8 C8          3.4127   -0.1565    1.9702 C.3       1 <0>         0.0000
      9 C9         12.2134   -3.6608   -0.4053 C.3       1 <0>         0.0000
     10 C10         4.7146   -0.3957    1.2106 C.3       1 <0>         0.0000
     11 N1          8.6599   -0.3864   -0.7633 N.2       1 <0>         0.0000
     12 N2          7.6785    0.2174   -0.0211 N.2       1 <0>         0.0000
     13 N3         11.0665   -2.8766    0.0591 N.am      1 <0>         0.0000
     14 O1         10.2099   -2.5236   -2.0388 O.2       1 <0>         0.0000
     15 O2          6.2346   -0.9763    3.3857 O.2       1 <0>         0.0000
     16 S1          8.3451   -1.8819    1.3272 S.3       1 <0>         0.0000
     17 S2          6.1506    0.0629    2.2837 S.o       1 <0>         0.0000
     18 H1         -0.4120   -0.2529    0.1167 H         1 <0>         0.0000
     19 H2         -0.3048   -1.8662    0.8343 H         1 <0>         0.0000
     20 H3         -1.2843   -0.6152    1.6132 H         1 <0>         0.0000
     21 H4         13.0931   -2.1423   -1.6797 H         1 <0>         0.0000
     22 H5         13.7578   -2.1661   -0.0314 H         1 <0>         0.0000
     23 H6         14.2191   -3.4241   -1.1923 H         1 <0>         0.0000
     24 H7          0.8847   -0.8908    2.8392 H         1 <0>         0.0000
     25 H8          0.7745    0.7125    2.1316 H         1 <0>         0.0000
     26 H9          2.1793   -0.0437    0.1928 H         1 <0>         0.0000
     27 H10         2.2821   -1.6521    0.8939 H         1 <0>         0.0000
     28 H11         3.4381   -0.7152    2.9122 H         1 <0>         0.0000
     29 H12         3.3256    0.9064    2.2285 H         1 <0>         0.0000
     30 H13        12.5059   -4.3290    0.4104 H         1 <0>         0.0000
     31 H14        11.8624   -4.2785   -1.2341 H         1 <0>         0.0000
     32 H15         4.7990    0.2176    0.3079 H         1 <0>         0.0000
     33 H16         4.8489   -1.4505    0.9516 H         1 <0>         0.0000
     34 H17        11.1110   -2.4818    0.9908 H         1 <0>         0.0000
@<TRIPOS>BOND
     1    1    3 1
     2    1   11 2
     3    1   16 1
     4    2   12 2
     5    2   16 1
     6    2   17 1
     7    3   13 am
     8    3   14 2
     9    4    6 1
    10    4   18 1
    11    4   19 1
    12    4   20 1
    13    5    9 1
    14    5   21 1
    15    5   22 1
    16    5   23 1
    17    6    7 1
    18    6   24 1
    19    6   25 1
    20    7    8 1
    21    7   26 1
    22    7   27 1
    23    8   10 1
    24    8   28 1
    25    8   29 1
    26    9   13 1
    27    9   30 1
    28    9   31 1
    29   10   17 1
    30   10   32 1
    31   10   33 1
    32   11   12 1
    33   13   34 1
    34   15   17 2
