@<TRIPOS>MOLECULE
*****
   46    50     0     0     0
SMALL
NO_CHARGES

@<TRIPOS>ATOM
      1 C1         -2.4725   -1.3261    5.1319 C.ar      1 <0>         0.0000
      2 C2          2.3942    0.0183   -0.6836 C.ar      1 <0>         0.0000
      3 C3         -2.2931   -0.1986    4.3275 C.ar      1 <0>         0.0000
      4 C4          1.1699    0.4381   -0.1658 C.ar      1 <0>         0.0000
      5 C5         -3.3162   -2.3637    4.7240 C.ar      1 <0>         0.0000
      6 C6          1.2494   -1.4713    1.3236 C.ar      1 <0>         0.0000
      7 C7          4.5839   -2.7364   -1.4680 C.ar      1 <0>         0.0000
      8 C8         -3.7912   -1.1339    2.6769 C.ar      1 <0>         0.0000
      9 C9          5.3376   -0.4920   -1.1004 C.ar      1 <0>         0.0000
     10 C10         6.6963   -1.8937   -2.3000 C.ar      1 <0>         0.0000
     11 C11         3.0717   -1.1276   -0.2326 C.ar      1 <0>         0.0000
     12 C12         2.4923   -1.8917    0.8161 C.ar      1 <0>         0.0000
     13 C13         4.3453   -1.4695   -0.9169 C.ar      1 <0>         0.0000
     14 C14        -2.9481   -0.0925    3.0904 C.ar      1 <0>         0.0000
     15 C15         0.5919   -0.3338    0.8525 C.ar      1 <0>         0.0000
     16 C16         5.7664   -2.9216   -2.1610 C.ar      1 <0>         0.0000
     17 C17        -3.9713   -2.2474    3.4973 C.ar      1 <0>         0.0000
     18 C18         3.0988   -3.0665    1.4536 C.2       1 <0>         0.0000
     19 C19        -1.4557    1.0582    1.3024 C.2       1 <0>         0.0000
     20 C20        -3.8788    1.8214    1.5932 C.3       1 <0>         0.0000
     21 C21        -3.0730    2.4718    2.6817 C.3       1 <0>         0.0000
     22 C22        -2.6940    1.0794    2.1905 C.3       1 <0>         0.0000
     23 N1          4.3605   -3.5150    1.2849 N.2       1 <0>         0.0000
     24 N2          6.4844   -0.6836   -1.7695 N.ar      1 <0>         0.0000
     25 N3          2.4233   -3.8223    2.3513 N.2       1 <0>         0.0000
     26 N4          4.4586   -4.5767    2.1000 N.2       1 <0>         0.0000
     27 N5          3.2983   -4.7600    2.7358 N.2       1 <0>         0.0000
     28 N6         -0.6536   -0.0317    1.4622 N.am      1 <0>         0.0000
     29 O1         -1.2351    1.9868    0.5196 O.2       1 <0>         0.0000
     30 F1          6.0336   -4.1300   -2.7334 F         1 <0>         0.0000
     31 Cl1        -5.0417   -3.5396    2.9669 Cl        1 <0>         0.0000
     32 H1         -1.9459   -1.4087    6.0786 H         1 <0>         0.0000
     33 H2          2.8345    0.5901   -1.4967 H         1 <0>         0.0000
     34 H3         -1.6296    0.6008    4.6469 H         1 <0>         0.0000
     35 H4          0.6722    1.3229   -0.5374 H         1 <0>         0.0000
     36 H5         -3.4558   -3.2471    5.3386 H         1 <0>         0.0000
     37 H6          0.8208   -2.0671    2.1257 H         1 <0>         0.0000
     38 H7          3.8777   -3.5500   -1.3525 H         1 <0>         0.0000
     39 H8         -4.2943   -1.0760    1.7167 H         1 <0>         0.0000
     40 H9          5.1998    0.4958   -0.6644 H         1 <0>         0.0000
     41 H10         7.6238   -2.0610   -2.8455 H         1 <0>         0.0000
     42 H11        -4.8672    1.4479    1.8431 H         1 <0>         0.0000
     43 H12        -3.7455    2.1957    0.5840 H         1 <0>         0.0000
     44 H13        -2.4048    3.2771    2.3956 H         1 <0>         0.0000
     45 H14        -3.5078    2.5345    3.6749 H         1 <0>         0.0000
     46 H15        -0.9516   -0.7133    2.1491 H         1 <0>         0.0000
@<TRIPOS>BOND
     1    1    3 ar
     2    1    5 ar
     3    1   32 1
     4    2    4 ar
     5    2   11 ar
     6    2   33 1
     7    3   14 ar
     8    3   34 1
     9    4   15 ar
    10    4   35 1
    11    5   17 ar
    12    5   36 1
    13    6   12 ar
    14    6   15 ar
    15    6   37 1
    16    7   13 ar
    17    7   16 ar
    18    7   38 1
    19    8   14 ar
    20    8   17 ar
    21    8   39 1
    22    9   13 ar
    23    9   24 ar
    24    9   40 1
    25   10   16 ar
    26   10   24 ar
    27   10   41 1
    28   11   12 ar
    29   11   13 1
    30   12   18 1
    31   14   22 1
    32   15   28 1
    33   16   30 1
    34   17   31 1
    35   18   23 1
    36   18   25 2
    37   19   22 1
    38   19   28 am
    39   19   29 2
    40   20   21 1
    41   20   22 1
    42   20   42 1
    43   20   43 1
    44   21   22 1
    45   21   44 1
    46   21   45 1
    47   23   26 1
    48   25   27 1
    49   26   27 2
    50   28   46 1
