@<TRIPOS>MOLECULE
*****
   43    44     0     0     0
SMALL
NO_CHARGES

@<TRIPOS>ATOM
      1 C1         -0.3611   -0.4234   -5.6030 C.ar      1 <0>         0.0000
      2 C2         -1.2280   -0.6382   -4.5264 C.ar      1 <0>         0.0000
      3 C3          1.0209   -0.5787   -5.4412 C.ar      1 <0>         0.0000
      4 C4         -0.7153   -0.9950   -3.2759 C.ar      1 <0>         0.0000
      5 C5          1.5441   -0.9350   -4.1965 C.ar      1 <0>         0.0000
      6 C6          0.4306    0.6081    3.0626 C.2       1 <0>         0.0000
      7 C7         -0.7229   -0.1353    1.4662 C.2       1 <0>         0.0000
      8 C8          0.6667   -1.1246   -3.1257 C.ar      1 <0>         0.0000
      9 C9          0.8943    4.6594   -1.6895 C.3       1 <0>         0.0000
     10 C10         1.7355    2.6639   -2.9480 C.3       1 <0>         0.0000
     11 C11        -0.7135    2.8808   -2.4172 C.3       1 <0>         0.0000
     12 C12         1.8309    0.0925   -0.8476 C.3       1 <0>         0.0000
     13 C13         0.6286    0.9490   -0.4201 C.3       1 <0>         0.0000
     14 C14         0.9037    2.4765   -0.5126 C.3       1 <0>         0.0000
     15 C15         0.7138    3.1415   -1.9006 C.3       1 <0>         0.0000
     16 N1         -0.6598   -0.1629    2.7925 N.2       1 <0>         0.0000
     17 N2          1.0367    1.1093    1.9909 N.2       1 <0>         0.0000
     18 N3          0.2738    0.6264    0.9641 N.pl3     1 <0>         0.0000
     19 O1          0.2342   -2.0504   -0.6864 O.2       1 <0>         0.0000
     20 O2          2.5791   -2.3037   -1.7040 O.2       1 <0>         0.0000
     21 O3          2.2127    2.7631   -0.0336 O.3       1 <0>         0.0000
     22 S1          1.3435   -1.5320   -1.5079 S.o2      1 <0>         0.0000
     23 H1         -0.7635   -0.1448   -6.5732 H         1 <0>         0.0000
     24 H2         -2.3011   -0.5336   -4.6596 H         1 <0>         0.0000
     25 H3          1.6896   -0.4271   -6.2838 H         1 <0>         0.0000
     26 H4         -1.3701   -1.1944   -2.4332 H         1 <0>         0.0000
     27 H5          2.6113   -1.0783   -4.0554 H         1 <0>         0.0000
     28 H6          0.7892    0.8085    4.0639 H         1 <0>         0.0000
     29 H7         -1.4327   -0.6593    0.8422 H         1 <0>         0.0000
     30 H8          0.1684    5.0465   -0.9650 H         1 <0>         0.0000
     31 H9          1.8960    4.8870   -1.3190 H         1 <0>         0.0000
     32 H10         0.7417    5.1919   -2.6343 H         1 <0>         0.0000
     33 H11         1.5465    1.6371   -3.2717 H         1 <0>         0.0000
     34 H12         2.7571    2.7361   -2.5640 H         1 <0>         0.0000
     35 H13         1.6677    3.2927   -3.8423 H         1 <0>         0.0000
     36 H14        -0.8683    1.8387   -2.7129 H         1 <0>         0.0000
     37 H15        -1.4687    3.1438   -1.6668 H         1 <0>         0.0000
     38 H16        -0.9048    3.4932   -3.3045 H         1 <0>         0.0000
     39 H17         2.4414    0.5698   -1.6105 H         1 <0>         0.0000
     40 H18         2.4733   -0.1360    0.0052 H         1 <0>         0.0000
     41 H19        -0.2519    0.7087   -1.0165 H         1 <0>         0.0000
     42 H20         0.1573    2.9411    0.1482 H         1 <0>         0.0000
     43 H21         2.2282    2.4659    0.8979 H         1 <0>         0.0000
@<TRIPOS>BOND
     1    1    3 ar
     2    1    2 ar
     3    1   23 1
     4    2    4 ar
     5    2   24 1
     6    3    5 ar
     7    3   25 1
     8    4    8 ar
     9    4   26 1
    10    5    8 ar
    11    5   27 1
    12    6   16 1
    13    6   17 2
    14    6   28 1
    15    7   16 2
    16    7   18 1
    17    7   29 1
    18    8   22 1
    19    9   15 1
    20    9   30 1
    21    9   31 1
    22    9   32 1
    23   10   15 1
    24   10   33 1
    25   10   34 1
    26   10   35 1
    27   11   15 1
    28   11   36 1
    29   11   37 1
    30   11   38 1
    31   12   13 1
    32   12   22 1
    33   12   39 1
    34   12   40 1
    35   13   14 1
    36   13   18 1
    37   13   41 1
    38   14   15 1
    39   14   21 1
    40   14   42 1
    41   17   18 1
    42   19   22 2
    43   20   22 2
    44   21   43 1
