@<TRIPOS>MOLECULE
*****
   43    44     0     0     0
SMALL
NO_CHARGES

@<TRIPOS>ATOM
      1 C1          3.1927   -3.8832    1.4248 C.ar      1 <0>         0.0000
      2 C2          3.9942   -3.3640    0.3995 C.ar      1 <0>         0.0000
      3 C3          1.8011   -3.7745    1.3584 C.ar      1 <0>         0.0000
      4 C4          3.4049   -2.7251   -0.6915 C.ar      1 <0>         0.0000
      5 C5          1.1998   -3.1338    0.2715 C.ar      1 <0>         0.0000
      6 C6          1.5244   -0.2577    2.2469 C.2       1 <0>         0.0000
      7 C7         -0.2124   -0.3313    1.0585 C.2       1 <0>         0.0000
      8 C8          2.0123   -2.6068   -0.7302 C.ar      1 <0>         0.0000
      9 C9          0.9500    4.6506   -1.6563 C.3       1 <0>         0.0000
     10 C10         1.3960    2.9241   -3.4139 C.3       1 <0>         0.0000
     11 C11        -0.8639    3.0471   -2.3055 C.3       1 <0>         0.0000
     12 C12         1.7200   -0.0085   -1.9226 C.3       1 <0>         0.0000
     13 C13         0.7685    0.7735   -1.0216 C.3       1 <0>         0.0000
     14 C14         1.1146    2.2877   -0.9258 C.3       1 <0>         0.0000
     15 C15         0.6534    3.1996   -2.0925 C.3       1 <0>         0.0000
     16 N1          0.2189   -0.6485    2.2747 N.2       1 <0>         0.0000
     17 N2          1.9200    0.2782    1.0953 N.2       1 <0>         0.0000
     18 N3          0.7873    0.2178    0.3345 N.pl3     1 <0>         0.0000
     19 O1          1.9244   -2.2163   -3.3553 O.2       1 <0>         0.0000
     20 O2         -0.2112   -1.8576   -1.9783 O.2       1 <0>         0.0000
     21 O3          2.5138    2.4620   -0.7271 O.3       1 <0>         0.0000
     22 S1          1.2550   -1.7636   -2.1253 S.o2      1 <0>         0.0000
     23 H1          3.6565   -4.3781    2.2740 H         1 <0>         0.0000
     24 H2          5.0751   -3.4627    0.4475 H         1 <0>         0.0000
     25 H3          1.1801   -4.1776    2.1529 H         1 <0>         0.0000
     26 H4          4.0120   -2.3400   -1.5056 H         1 <0>         0.0000
     27 H5          0.1221   -3.0433    0.1966 H         1 <0>         0.0000
     28 H6          2.2015   -0.3709    3.0832 H         1 <0>         0.0000
     29 H7         -1.2021   -0.5006    0.6556 H         1 <0>         0.0000
     30 H8          0.4360    4.8950   -0.7194 H         1 <0>         0.0000
     31 H9          2.0208    4.8031   -1.5044 H         1 <0>         0.0000
     32 H10         0.6029    5.3522   -2.4220 H         1 <0>         0.0000
     33 H11         1.0421    2.0143   -3.9083 H         1 <0>         0.0000
     34 H12         2.4742    2.8430   -3.2524 H         1 <0>         0.0000
     35 H13         1.2202    3.7476   -4.1139 H         1 <0>         0.0000
     36 H14        -1.1338    2.0678   -2.7144 H         1 <0>         0.0000
     37 H15        -1.4194    3.1934   -1.3714 H         1 <0>         0.0000
     38 H16        -1.2172    3.7989   -3.0187 H         1 <0>         0.0000
     39 H17         1.6998    0.3723   -2.9421 H         1 <0>         0.0000
     40 H18         2.7478    0.0251   -1.5618 H         1 <0>         0.0000
     41 H19        -0.2537    0.6393   -1.3748 H         1 <0>         0.0000
     42 H20         0.5686    2.6402   -0.0368 H         1 <0>         0.0000
     43 H21         2.7529    1.9506    0.0705 H         1 <0>         0.0000
@<TRIPOS>BOND
     1    1    3 ar
     2    1    2 ar
     3    1   23 1
     4    2    4 ar
     5    2   24 1
     6    3    5 ar
     7    3   25 1
     8    4    8 ar
     9    4   26 1
    10    5    8 ar
    11    5   27 1
    12    6   16 1
    13    6   17 2
    14    6   28 1
    15    7   16 2
    16    7   18 1
    17    7   29 1
    18    8   22 1
    19    9   15 1
    20    9   30 1
    21    9   31 1
    22    9   32 1
    23   10   15 1
    24   10   33 1
    25   10   34 1
    26   10   35 1
    27   11   15 1
    28   11   36 1
    29   11   37 1
    30   11   38 1
    31   12   13 1
    32   12   22 1
    33   12   39 1
    34   12   40 1
    35   13   14 1
    36   13   18 1
    37   13   41 1
    38   14   15 1
    39   14   21 1
    40   14   42 1
    41   17   18 1
    42   19   22 2
    43   20   22 2
    44   21   43 1
