@<TRIPOS>MOLECULE
*****
   12    11     0     0     0
SMALL
NO_CHARGES

@<TRIPOS>ATOM
      1 C1          0.0623    0.1662   -0.0873 C.2       1 <0>         0.0000
      2 C2         -0.3335    2.4823   -0.0883 C.3       1 <0>         0.0000
      3 C3          1.1125    1.7276   -1.3555 C.3       1 <0>         0.0000
      4 O1         -0.6533    1.1890    0.4328 O.3       1 <0>         0.0000
      5 O2          0.9628    0.3827   -0.9897 O.3       1 <0>         0.0000
      6 H1         -0.2131   -0.8121    0.3392 H         1 <0>         0.0000
      7 H2         -0.9623    3.2355    0.3927 H         1 <0>         0.0000
      8 H3         -0.4973    2.4915   -1.1688 H         1 <0>         0.0000
      9 H4          0.7166    2.7001    0.1208 H         1 <0>         0.0000
     10 H5          1.8607    2.1972   -0.7129 H         1 <0>         0.0000
     11 H6          1.4383    1.7806   -2.3966 H         1 <0>         0.0000
     12 H7          0.1552    2.2420   -1.2449 H         1 <0>         0.0000
@<TRIPOS>BOND
     1    1    4 1
     2    1    5 2
     3    1    6 1
     4    2    4 1
     5    2    7 1
     6    2    8 1
     7    2    9 1
     8    3    5 1
     9    3   10 1
    10    3   11 1
    11    3   12 1
