@<TRIPOS>MOLECULE
*****
   22    22     0     0     0
SMALL
NO_CHARGES

@<TRIPOS>ATOM
      1 C1          1.8851   -1.0363   -0.1124 C.ar      1 <0>         0.0000
      2 C2          2.8783   -1.6520    2.0022 C.ar      1 <0>         0.0000
      3 C3          0.8066   -0.4630    0.5610 C.ar      1 <0>         0.0000
      4 C4          1.7997   -1.0786    2.6757 C.ar      1 <0>         0.0000
      5 C5          2.9210   -1.6309    0.6081 C.ar      1 <0>         0.0000
      6 C6          0.7638   -0.4841    1.9551 C.ar      1 <0>         0.0000
      7 C7          4.7175   -2.4842   -3.4882 C.3       1 <0>         0.0000
      8 C8          6.1904   -2.8615   -1.5106 C.3       1 <0>         0.0000
      9 N1          4.0030   -2.2054   -0.0666 N.2       1 <0>         0.0000
     10 N2          3.8510   -2.0813   -1.3014 N.2       1 <0>         0.0000
     11 N3          4.8658   -2.6129   -2.0528 N.pl3     1 <0>         0.0000
     12 Br1        -0.6958    0.2955    2.8679 Br        1 <0>         0.0000
     13 H1          1.9103   -1.0153   -1.1988 H         1 <0>         0.0000
     14 H2          3.6811   -2.1127    2.5719 H         1 <0>         0.0000
     15 H3          0.0077   -0.0036   -0.0154 H         1 <0>         0.0000
     16 H4          1.7821   -1.1028    3.7623 H         1 <0>         0.0000
     17 H5          4.5196   -3.4622   -3.9346 H         1 <0>         0.0000
     18 H6          5.6315   -2.0754   -3.9275 H         1 <0>         0.0000
     19 H7          3.8857   -1.8150   -3.7238 H         1 <0>         0.0000
     20 H8          6.6925   -1.9145   -1.2962 H         1 <0>         0.0000
     21 H9          6.7930   -3.4247   -2.2284 H         1 <0>         0.0000
     22 H10         6.1177   -3.4388   -0.5849 H         1 <0>         0.0000
@<TRIPOS>BOND
     1    1    3 ar
     2    1    5 ar
     3    1   13 1
     4    2    4 ar
     5    2    5 ar
     6    2   14 1
     7    3    6 ar
     8    3   15 1
     9    4    6 ar
    10    4   16 1
    11    5    9 1
    12    6   12 1
    13    7   11 1
    14    7   17 1
    15    7   18 1
    16    7   19 1
    17    8   11 1
    18    8   20 1
    19    8   21 1
    20    8   22 1
    21    9   10 2
    22   10   11 1
