@<TRIPOS>MOLECULE
*****
   37    38     0     0     0
SMALL
NO_CHARGES

@<TRIPOS>ATOM
      1 C1          5.7174   -4.6875    1.2309 C.ar      1 <0>         0.0000
      2 C2          6.1741   -2.3328    0.9145 C.ar      1 <0>         0.0000
      3 C3          4.8644   -4.6631    0.1252 C.ar      1 <0>         0.0000
      4 C4          5.3233   -2.3129   -0.1854 C.ar      1 <0>         0.0000
      5 C5          6.3812   -3.5207    1.6398 C.ar      1 <0>         0.0000
      6 C6          4.6518   -3.4794   -0.5904 C.ar      1 <0>         0.0000
      7 C7          7.3058   -3.4914    2.8176 C.2       1 <0>         0.0000
      8 C8         -0.5910   -2.6437   -1.1352 C.3       1 <0>         0.0000
      9 C9          0.3382   -2.6654    0.0855 C.3       1 <0>         0.0000
     10 C10         0.1089   -2.0156   -2.3475 C.3       1 <0>         0.0000
     11 C11         1.6699   -3.3640   -0.2243 C.3       1 <0>         0.0000
     12 C12         1.4382   -2.7174   -2.6576 C.3       1 <0>         0.0000
     13 C13         2.3739   -2.7315   -1.4365 C.3       1 <0>         0.0000
     14 C14         7.5368   -4.7744    3.5978 C.3       1 <0>         0.0000
     15 C15         3.6983   -3.4405   -1.7682 C.3       1 <0>         0.0000
     16 O1          7.8673   -2.4525    3.1486 O.2       1 <0>         0.0000
     17 O2          4.2804   -2.7394   -2.8793 O.3       1 <0>         0.0000
     18 H1          5.8615   -5.6207    1.7669 H         1 <0>         0.0000
     19 H2          6.6953   -1.4366    1.2369 H         1 <0>         0.0000
     20 H3          4.3538   -5.5734   -0.1814 H         1 <0>         0.0000
     21 H4          5.1729   -1.3948   -0.7467 H         1 <0>         0.0000
     22 H5         -1.5132   -2.0987   -0.9009 H         1 <0>         0.0000
     23 H6         -0.8875   -3.6728   -1.3823 H         1 <0>         0.0000
     24 H7          0.5416   -1.6333    0.4027 H         1 <0>         0.0000
     25 H8         -0.1529   -3.1608    0.9313 H         1 <0>         0.0000
     26 H9         -0.5450   -2.0516   -3.2269 H         1 <0>         0.0000
     27 H10         0.3006   -0.9528   -2.1440 H         1 <0>         0.0000
     28 H11         2.3201   -3.3294    0.6557 H         1 <0>         0.0000
     29 H12         1.4801   -4.4273   -0.4335 H         1 <0>         0.0000
     30 H13         1.2363   -3.7563   -2.9581 H         1 <0>         0.0000
     31 H14         1.9397   -2.2366   -3.5014 H         1 <0>         0.0000
     32 H15         2.6267   -1.6918   -1.1834 H         1 <0>         0.0000
     33 H16         7.9610   -5.5522    2.9537 H         1 <0>         0.0000
     34 H17         6.5959   -5.1617    4.0034 H         1 <0>         0.0000
     35 H18         8.2262   -4.5692    4.4175 H         1 <0>         0.0000
     36 H19         3.4675   -4.4755   -2.0657 H         1 <0>         0.0000
     37 H20         5.1455   -3.1397   -3.0615 H         1 <0>         0.0000
@<TRIPOS>BOND
     1    1    3 ar
     2    1    5 ar
     3    1   18 1
     4    2    4 ar
     5    2    5 ar
     6    2   19 1
     7    3    6 ar
     8    3   20 1
     9    4    6 ar
    10    4   21 1
    11    5    7 1
    12    6   15 1
    13    7   14 1
    14    7   16 2
    15    8   10 1
    16    8    9 1
    17    8   22 1
    18    8   23 1
    19    9   11 1
    20    9   24 1
    21    9   25 1
    22   10   12 1
    23   10   26 1
    24   10   27 1
    25   11   13 1
    26   11   28 1
    27   11   29 1
    28   12   13 1
    29   12   30 1
    30   12   31 1
    31   13   15 1
    32   13   32 1
    33   14   33 1
    34   14   34 1
    35   14   35 1
    36   15   17 1
    37   15   36 1
    38   17   37 1
