@<TRIPOS>MOLECULE
*****
   34    36     0     0     0
SMALL
NO_CHARGES

@<TRIPOS>ATOM
      1 C1         -3.6215   -1.9190   -0.7488 C.ar      1 <0>         0.0000
      2 C2         -2.4489   -2.9618    1.0623 C.ar      1 <0>         0.0000
      3 C3         -2.5142   -1.0865   -0.9342 C.ar      1 <0>         0.0000
      4 C4         -3.5986   -2.8662    0.2717 C.ar      1 <0>         0.0000
      5 C5         -1.3988   -1.2289   -0.0736 C.ar      1 <0>         0.0000
      6 C6         -1.2880   -2.8859   -3.4681 C.3       1 <0>         0.0000
      7 C7         -0.3773   -2.2177   -4.4751 C.3       1 <0>         0.0000
      8 C8          1.1047   -0.9440    0.4250 C.3       1 <0>         0.0000
      9 C9          1.0031   -0.8894   -1.0807 C.3       1 <0>         0.0000
     10 C10        -1.5911   -1.4952   -3.9536 C.3       1 <0>         0.0000
     11 C11        -0.1493   -0.3766   -0.1776 C.3       1 <0>         0.0000
     12 C12        -0.3173    1.1352   -0.0484 C.3       1 <0>         0.0000
     13 C13        -2.5549   -0.0993   -2.0710 C.3       1 <0>         0.0000
     14 N1         -1.3924   -2.1672    0.8840 N.ar      1 <0>         0.0000
     15 N2         -1.4012   -0.3365   -3.0386 N.4       1 <0>         0.0000
     16 Cl1        -4.9519   -3.9185    0.5445 Cl        1 <0>         0.0000
     17 H1         -4.4928   -1.8390   -1.3933 H         1 <0>         0.0000
     18 H2         -2.3856   -3.7002    1.8588 H         1 <0>         0.0000
     19 H3         -1.9562   -3.6722   -3.8025 H         1 <0>         0.0000
     20 H4         -0.9219   -3.0124   -2.4556 H         1 <0>         0.0000
     21 H5          0.6005   -1.8937   -4.1296 H         1 <0>         0.0000
     22 H6         -0.4031   -2.5379   -5.5111 H         1 <0>         0.0000
     23 H7          1.0334   -1.9175    0.8931 H         1 <0>         0.0000
     24 H8          1.7801   -0.2467    0.9091 H         1 <0>         0.0000
     25 H9          1.6115   -0.1566   -1.6079 H         1 <0>         0.0000
     26 H10         0.9025   -1.8514   -1.5783 H         1 <0>         0.0000
     27 H11        -2.4402   -1.3298   -4.6085 H         1 <0>         0.0000
     28 H12         0.6605    1.6125    0.0547 H         1 <0>         0.0000
     29 H13        -0.9002    1.3758    0.8455 H         1 <0>         0.0000
     30 H14        -0.8059    1.6136   -0.9037 H         1 <0>         0.0000
     31 H15        -3.4732   -0.1975   -2.6512 H         1 <0>         0.0000
     32 H16        -2.4727    0.9348   -1.7364 H         1 <0>         0.0000
     33 H17        -0.5444   -0.4618   -2.4674 H         1 <0>         0.0000
     34 H18        -1.2491    0.5061   -3.6052 H         1 <0>         0.0000
@<TRIPOS>BOND
     1    1    3 ar
     2    1    4 ar
     3    1   17 1
     4    2    4 ar
     5    2   14 ar
     6    2   18 1
     7    3    5 ar
     8    3   13 1
     9    4   16 1
    10    5   11 1
    11    5   14 ar
    12    6    7 1
    13    6   10 1
    14    6   19 1
    15    6   20 1
    16    7   10 1
    17    7   21 1
    18    7   22 1
    19    8    9 1
    20    8   11 1
    21    8   23 1
    22    8   24 1
    23    9   11 1
    24    9   25 1
    25    9   26 1
    26   10   15 1
    27   10   27 1
    28   11   12 1
    29   12   28 1
    30   12   29 1
    31   12   30 1
    32   13   15 1
    33   13   31 1
    34   13   32 1
    35   15   33 1
    36   15   34 1
