@<TRIPOS>MOLECULE
*****
   30    31     0     0     0
SMALL
NO_CHARGES

@<TRIPOS>ATOM
      1 C1          0.3214    2.5960   -0.8096 C.ar      1 <0>         0.0000
      2 C2         -0.7541    2.6148    0.0873 C.ar      1 <0>         0.0000
      3 C3          0.9343    1.3868   -1.1442 C.ar      1 <0>         0.0000
      4 C4         -1.2236    1.4324    0.6686 C.ar      1 <0>         0.0000
      5 C5          0.4556    0.2104   -0.5680 C.ar      1 <0>         0.0000
      6 C6         -0.6091    0.2290    0.3403 C.ar      1 <0>         0.0000
      7 C7          0.7306   -2.1462   -0.1913 C.cat     1 <0>         0.0000
      8 C8         -0.0654   -1.9422    1.0841 C.3       1 <0>         0.0000
      9 C9          1.4170    0.9012    4.5258 C.3       1 <0>         0.0000
     10 C10         0.8800   -1.5718    2.2431 C.3       1 <0>         0.0000
     11 C11         0.1145   -1.3736    3.5586 C.3       1 <0>         0.0000
     12 N1          0.9945   -1.0669   -0.9086 N.pl3     1 <0>         0.0000
     13 N2          1.1622   -3.3597   -0.5232 N.pl3     1 <0>         0.0000
     14 O1         -1.0788   -0.9631    0.8519 O.3       1 <0>         0.0000
     15 S1          1.2043   -0.8672    4.9317 S.3       1 <0>         0.0000
     16 H1          0.6819    3.5198   -1.2499 H         1 <0>         0.0000
     17 H2         -1.2290    3.5575    0.3409 H         1 <0>         0.0000
     18 H3          1.7668    1.3617   -1.8434 H         1 <0>         0.0000
     19 H4         -2.0584    1.4299    1.3625 H         1 <0>         0.0000
     20 H5         -0.6118   -2.8601    1.3156 H         1 <0>         0.0000
     21 H6          2.0140    1.3348    5.3309 H         1 <0>         0.0000
     22 H7          0.4502    1.4107    4.4934 H         1 <0>         0.0000
     23 H8          1.9505    1.0497    3.5831 H         1 <0>         0.0000
     24 H9          1.4292   -0.6616    1.9836 H         1 <0>         0.0000
     25 H10         1.6221   -2.3677    2.3670 H         1 <0>         0.0000
     26 H11        -0.6857   -0.6386    3.4382 H         1 <0>         0.0000
     27 H12        -0.3499   -2.3133    3.8741 H         1 <0>         0.0000
     28 H13         1.5536   -1.1313   -1.7565 H         1 <0>         0.0000
     29 H14         1.7393   -3.5405   -1.3393 H         1 <0>         0.0000
     30 H15         0.9286   -4.1584    0.0561 H         1 <0>         0.0000
@<TRIPOS>BOND
     1    1    2 ar
     2    1    3 ar
     3    1   16 1
     4    2    4 ar
     5    2   17 1
     6    3    5 ar
     7    3   18 1
     8    4    6 ar
     9    4   19 1
    10    5    6 ar
    11    5   12 1
    12    6   14 1
    13    7    8 1
    14    7   12 2
    15    7   13 1
    16    8   10 1
    17    8   14 1
    18    8   20 1
    19    9   15 1
    20    9   21 1
    21    9   22 1
    22    9   23 1
    23   10   11 1
    24   10   24 1
    25   10   25 1
    26   11   15 1
    27   11   26 1
    28   11   27 1
    29   12   28 1
    30   13   29 1
    31   13   30 1
