@<TRIPOS>MOLECULE
*****
   30    31     0     0     0
SMALL
NO_CHARGES

@<TRIPOS>ATOM
      1 C1          0.2567    2.5234   -0.9652 C.ar      1 <0>         0.0000
      2 C2         -0.7894    2.5683   -0.0349 C.ar      1 <0>         0.0000
      3 C3          0.8935    1.3130   -1.2464 C.ar      1 <0>         0.0000
      4 C4         -1.2052    1.4117    0.6328 C.ar      1 <0>         0.0000
      5 C5          0.4680    0.1620   -0.5837 C.ar      1 <0>         0.0000
      6 C6         -0.5667    0.2074    0.3575 C.ar      1 <0>         0.0000
      7 C7          0.8232   -2.1589   -0.0749 C.cat     1 <0>         0.0000
      8 C8          0.0631   -1.8985    1.2122 C.3       1 <0>         0.0000
      9 C9          1.5798    1.1876    4.4224 C.3       1 <0>         0.0000
     10 C10         1.0353   -1.4329    2.3136 C.3       1 <0>         0.0000
     11 C11         0.3076   -1.1738    3.6399 C.3       1 <0>         0.0000
     12 N1          1.0327   -1.1187   -0.8644 N.pl3     1 <0>         0.0000
     13 N2          1.2803   -3.3780   -0.3466 N.pl3     1 <0>         0.0000
     14 O1         -0.9849   -0.9633    0.9562 O.3       1 <0>         0.0000
     15 S1          1.4268   -0.5569    4.9424 S.3       1 <0>         0.0000
     16 H1          0.5754    3.4278   -1.4728 H         1 <0>         0.0000
     17 H2         -1.2832    3.5116    0.1769 H         1 <0>         0.0000
     18 H3          1.7034    1.2674   -1.9707 H         1 <0>         0.0000
     19 H4         -2.0167    1.4293    1.3536 H         1 <0>         0.0000
     20 H5         -0.4482   -2.8151    1.5174 H         1 <0>         0.0000
     21 H6          2.1888    1.6851    5.1802 H         1 <0>         0.0000
     22 H7          0.5991    1.6698    4.3896 H         1 <0>         0.0000
     23 H8          2.0805    1.2907    3.4560 H         1 <0>         0.0000
     24 H9          1.5501   -0.5265    1.9807 H         1 <0>         0.0000
     25 H10         1.8026   -2.2004    2.4600 H         1 <0>         0.0000
     26 H11        -0.5158   -0.4680    3.5026 H         1 <0>         0.0000
     27 H12        -0.1205   -2.1037    4.0272 H         1 <0>         0.0000
     28 H13         1.5655   -1.2199   -1.7255 H         1 <0>         0.0000
     29 H14         1.8331   -3.5933   -1.1711 H         1 <0>         0.0000
     30 H15         1.0842   -4.1468    0.2847 H         1 <0>         0.0000
@<TRIPOS>BOND
     1    1    2 ar
     2    1    3 ar
     3    1   16 1
     4    2    4 ar
     5    2   17 1
     6    3    5 ar
     7    3   18 1
     8    4    6 ar
     9    4   19 1
    10    5    6 ar
    11    5   12 1
    12    6   14 1
    13    7    8 1
    14    7   12 1
    15    7   13 2
    16    8   10 1
    17    8   14 1
    18    8   20 1
    19    9   15 1
    20    9   21 1
    21    9   22 1
    22    9   23 1
    23   10   11 1
    24   10   24 1
    25   10   25 1
    26   11   15 1
    27   11   26 1
    28   11   27 1
    29   12   28 1
    30   13   29 1
    31   13   30 1
