@<TRIPOS>MOLECULE
*****
   52    56     0     0     0
SMALL
NO_CHARGES

@<TRIPOS>ATOM
      1 C1         -3.5187   -0.7301   -1.3319 C.2       1 <0>         0.0000
      2 C2         -2.5469    0.3025   -1.0522 C.2       1 <0>         0.0000
      3 C3         -1.4458   -0.1973   -0.4113 C.2       1 <0>         0.0000
      4 C4         -4.8146   -0.5829   -1.9722 C.2       1 <0>         0.0000
      5 C5         -3.1272   -1.9789   -0.8936 C.2       1 <0>         0.0000
      6 C6         -5.1603   -3.0451   -1.6336 C.2       1 <0>         0.0000
      7 C7          1.1844    2.1406   -1.2894 C.2       1 <0>         0.0000
      8 C8         -7.1324   -2.7123   -3.9600 C.3       1 <0>         0.0000
      9 C9          2.0960    0.7730   -2.9573 C.3       1 <0>         0.0000
     10 C10         1.3820   -0.1118   -1.9164 C.3       1 <0>         0.0000
     11 C11        -2.1314   -6.5724   -1.0074 C.3       1 <0>         0.0000
     12 C12        -3.1949   -5.8535   -2.6483 C.3       1 <0>         0.0000
     13 C13        -6.7746   -1.3011   -4.3613 C.3       1 <0>         0.0000
     14 C14        -2.5417   -5.1463   -1.4370 C.3       1 <0>         0.0000
     15 C15        -6.7689   -1.7057   -2.9001 C.3       1 <0>         0.0000
     16 C16        -2.7165    1.7451   -1.4416 C.3       1 <0>         0.0000
     17 C17        -5.4907   -1.0349   -5.1186 C.3       1 <0>         0.0000
     18 C18        -0.1884    0.5265   -0.0108 C.3       1 <0>         0.0000
     19 C19        -3.4577   -4.4017   -0.4735 C.3       1 <0>         0.0000
     20 N1         -5.5051   -1.8095   -2.1919 N.am      1 <0>         0.0000
     21 N2         -3.9066   -3.1068   -1.0071 N.am      1 <0>         0.0000
     22 N3          2.2078    2.0412   -2.2327 N.am      1 <0>         0.0000
     23 N4          0.6339    0.8767   -1.1545 N.am      1 <0>         0.0000
     24 O1         -5.3121    0.4798   -2.3270 O.2       1 <0>         0.0000
     25 O2         -5.8826   -4.0327   -1.6901 O.2       1 <0>         0.0000
     26 O3          0.8381    3.1518   -0.6890 O.2       1 <0>         0.0000
     27 O4         -2.6901   -7.1480   -2.2140 O.3       1 <0>         0.0000
     28 S1         -1.5652   -1.9377   -0.1337 S.3       1 <0>         0.0000
     29 H1         -8.1650   -3.0461   -3.9866 H         1 <0>         0.0000
     30 H2         -6.4076   -3.4900   -4.1747 H         1 <0>         0.0000
     31 H3          3.0760    0.3775   -3.2347 H         1 <0>         0.0000
     32 H4          1.4822    0.8728   -3.8629 H         1 <0>         0.0000
     33 H5          0.7200   -0.8495   -2.3782 H         1 <0>         0.0000
     34 H6          2.1042   -0.6407   -1.2753 H         1 <0>         0.0000
     35 H7         -1.0555   -6.7634   -0.9231 H         1 <0>         0.0000
     36 H8         -2.6386   -6.9478   -0.1081 H         1 <0>         0.0000
     37 H9         -4.2889   -5.8271   -2.6622 H         1 <0>         0.0000
     38 H10        -2.8003   -5.5808   -3.6333 H         1 <0>         0.0000
     39 H11        -7.5983   -0.6422   -4.6257 H         1 <0>         0.0000
     40 H12        -1.6880   -4.5219   -1.7125 H         1 <0>         0.0000
     41 H13        -7.5693   -1.3121   -2.2808 H         1 <0>         0.0000
     42 H14        -3.6369    2.1518   -1.0148 H         1 <0>         0.0000
     43 H15        -1.8682    2.3506   -1.1181 H         1 <0>         0.0000
     44 H16        -2.8159    1.8370   -2.5276 H         1 <0>         0.0000
     45 H17        -4.6828   -1.6918   -4.7792 H         1 <0>         0.0000
     46 H18        -5.1650    0.0000   -4.9835 H         1 <0>         0.0000
     47 H19        -5.6354   -1.2189   -6.1889 H         1 <0>         0.0000
     48 H20        -0.4317    1.4659    0.4917 H         1 <0>         0.0000
     49 H21         0.3900   -0.0801    0.7018 H         1 <0>         0.0000
     50 H22        -2.9459   -4.2142    0.4769 H         1 <0>         0.0000
     51 H23        -4.3521   -4.9890   -0.2653 H         1 <0>         0.0000
     52 H24         2.4101    2.8949   -2.7387 H         1 <0>         0.0000
@<TRIPOS>BOND
     1    1    2 1
     2    1    5 2
     3    1    4 1
     4    2    3 2
     5    2   16 1
     6    3   18 1
     7    3   28 1
     8    4   20 am
     9    4   24 2
    10    5   21 1
    11    5   28 1
    12    6   21 am
    13    6   20 am
    14    6   25 2
    15    7   22 am
    16    7   23 am
    17    7   26 2
    18    8   13 1
    19    8   15 1
    20    8   29 1
    21    8   30 1
    22    9   10 1
    23    9   22 1
    24    9   31 1
    25    9   32 1
    26   10   23 1
    27   10   33 1
    28   10   34 1
    29   11   14 1
    30   11   27 1
    31   11   35 1
    32   11   36 1
    33   12   14 1
    34   12   27 1
    35   12   37 1
    36   12   38 1
    37   13   15 1
    38   13   17 1
    39   13   39 1
    40   14   19 1
    41   14   40 1
    42   15   20 1
    43   15   41 1
    44   16   42 1
    45   16   43 1
    46   16   44 1
    47   17   45 1
    48   17   46 1
    49   17   47 1
    50   18   23 1
    51   18   48 1
    52   18   49 1
    53   19   21 1
    54   19   50 1
    55   19   51 1
    56   22   52 1
