@<TRIPOS>MOLECULE
*****
   60    63     0     0     0
SMALL
NO_CHARGES

@<TRIPOS>ATOM
      1 C1         10.9642   -5.3479   -0.6559 C.1       1 <0>         0.0000
      2 C2          9.1709   -3.8997   -1.5248 C.ar      1 <0>         0.0000
      3 C3          9.0060   -4.7897    0.7307 C.ar      1 <0>         0.0000
      4 C4          7.9522   -3.2512   -1.3506 C.ar      1 <0>         0.0000
      5 C5          7.7887   -4.1353    0.8925 C.ar      1 <0>         0.0000
      6 C6          5.5891   -2.0926    1.2741 C.ar      1 <0>         0.0000
      7 C7          5.0241   -2.5629   -1.0221 C.ar      1 <0>         0.0000
      8 C8          4.3705   -1.4467    1.4447 C.ar      1 <0>         0.0000
      9 C9          3.8038   -1.9101   -0.8540 C.ar      1 <0>         0.0000
     10 C10         2.1432    0.7226   -1.5185 C.ar      1 <0>         0.0000
     11 C11        -0.5773    0.2681   -1.8810 C.ar      1 <0>         0.0000
     12 C12         9.7073   -4.6758   -0.4824 C.ar      1 <0>         0.0000
     13 C13         7.2384   -3.3556   -0.1421 C.ar      1 <0>         0.0000
     14 C14         5.9416   -2.6647    0.0361 C.ar      1 <0>         0.0000
     15 C15         3.4564   -1.3378    0.3812 C.ar      1 <0>         0.0000
     16 C16         1.4470   -0.0928   -0.6155 C.ar      1 <0>         0.0000
     17 C17         0.0749   -0.3341   -0.8036 C.ar      1 <0>         0.0000
     18 C18         1.4870    1.3247   -2.5903 C.ar      1 <0>         0.0000
     19 C19         0.1055    1.1074   -2.7652 C.ar      1 <0>         0.0000
     20 C20         2.1474   -0.6611    0.5643 C.2       1 <0>         0.0000
     21 C21         0.3759    0.8800    3.1066 C.2       1 <0>         0.0000
     22 C22        -0.6388   -1.2380    0.1649 C.3       1 <0>         0.0000
     23 C23        -0.7841   -0.6179    1.5622 C.3       1 <0>         0.0000
     24 C24        -1.1993   -1.6749    2.5924 C.3       1 <0>         0.0000
     25 C25         1.5928    1.8690    4.9807 C.3       1 <0>         0.0000
     26 C26         2.3837    1.6271   -4.7610 C.3       1 <0>         0.0000
     27 C27        -0.7169    3.0984   -3.7576 C.3       1 <0>         0.0000
     28 N1         11.9847   -5.8936   -0.7969 N.1       1 <0>         0.0000
     29 N2          1.6989   -0.5841    1.7793 N.2       1 <0>         0.0000
     30 N3          0.4657    0.0835    1.9514 N.am      1 <0>         0.0000
     31 N4          1.5747    1.1804    3.6988 N.am      1 <0>         0.0000
     32 O1         -0.7075    1.3232    3.4955 O.2       1 <0>         0.0000
     33 O2          2.2026    2.1496   -3.4339 O.3       1 <0>         0.0000
     34 O3         -0.5867    1.6649   -3.8160 O.3       1 <0>         0.0000
     35 H1          9.7171   -3.8031   -2.4581 H         1 <0>         0.0000
     36 H2          9.4149   -5.3969    1.5325 H         1 <0>         0.0000
     37 H3          7.5617   -2.6319   -2.1525 H         1 <0>         0.0000
     38 H4          7.2429   -4.2539    1.8238 H         1 <0>         0.0000
     39 H5          6.2923   -2.1287    2.1016 H         1 <0>         0.0000
     40 H6          5.2500   -3.0279   -1.9776 H         1 <0>         0.0000
     41 H7          4.1150   -1.0121    2.4049 H         1 <0>         0.0000
     42 H8          3.1059   -1.8631   -1.6837 H         1 <0>         0.0000
     43 H9          3.2053    0.9130   -1.3961 H         1 <0>         0.0000
     44 H10        -1.6388    0.1060   -2.0493 H         1 <0>         0.0000
     45 H11        -1.6386   -1.4868   -0.2013 H         1 <0>         0.0000
     46 H12        -0.0913   -2.1845    0.2509 H         1 <0>         0.0000
     47 H13        -1.5386    0.1696    1.5269 H         1 <0>         0.0000
     48 H14        -0.4156   -2.4318    2.7035 H         1 <0>         0.0000
     49 H15        -2.1181   -2.1773    2.2699 H         1 <0>         0.0000
     50 H16        -1.3874   -1.2102    3.5623 H         1 <0>         0.0000
     51 H17         2.5997    2.2544    5.1614 H         1 <0>         0.0000
     52 H18         1.3031    1.2151    5.8140 H         1 <0>         0.0000
     53 H19         0.8930    2.7051    4.9469 H         1 <0>         0.0000
     54 H20         2.9667    2.3734   -5.3041 H         1 <0>         0.0000
     55 H21         1.4226    1.4687   -5.2596 H         1 <0>         0.0000
     56 H22         2.9407    0.6827   -4.7249 H         1 <0>         0.0000
     57 H23        -1.2951    3.3835   -4.6382 H         1 <0>         0.0000
     58 H24         0.2617    3.5862   -3.7764 H         1 <0>         0.0000
     59 H25        -1.2590    3.3908   -2.8508 H         1 <0>         0.0000
     60 H26         2.3476    0.5745    3.4525 H         1 <0>         0.0000
@<TRIPOS>BOND
     1    1   12 1
     2    1   28 3
     3    2    4 ar
     4    2   12 ar
     5    2   35 1
     6    3    5 ar
     7    3   12 ar
     8    3   36 1
     9    4   13 ar
    10    4   37 1
    11    5   13 ar
    12    5   38 1
    13    6    8 ar
    14    6   14 ar
    15    6   39 1
    16    7    9 ar
    17    7   14 ar
    18    7   40 1
    19    8   15 ar
    20    8   41 1
    21    9   15 ar
    22    9   42 1
    23   10   16 ar
    24   10   18 ar
    25   10   43 1
    26   11   17 ar
    27   11   19 ar
    28   11   44 1
    29   13   14 1
    30   15   20 1
    31   16   17 ar
    32   16   20 1
    33   17   22 1
    34   18   19 ar
    35   18   33 1
    36   19   34 1
    37   20   29 2
    38   21   30 am
    39   21   31 am
    40   21   32 2
    41   22   23 1
    42   22   45 1
    43   22   46 1
    44   23   24 1
    45   23   30 1
    46   23   47 1
    47   24   48 1
    48   24   49 1
    49   24   50 1
    50   25   31 1
    51   25   51 1
    52   25   52 1
    53   25   53 1
    54   26   33 1
    55   26   54 1
    56   26   55 1
    57   26   56 1
    58   27   34 1
    59   27   57 1
    60   27   58 1
    61   27   59 1
    62   29   30 1
    63   31   60 1
