@<TRIPOS>MOLECULE
*****
   50    54     0     0     0
SMALL
NO_CHARGES

@<TRIPOS>ATOM
      1 C1         -0.7200    4.1801    4.3291 C.ar      1 <0>         0.0000
      2 C2          1.4562   -2.1331    0.2473 C.ar      1 <0>         0.0000
      3 C3         -1.3964    3.4078    3.3817 C.ar      1 <0>         0.0000
      4 C4          0.3592   -1.4089    0.7109 C.ar      1 <0>         0.0000
      5 C5         -0.6168    3.7491    5.6552 C.ar      1 <0>         0.0000
      6 C6          5.0098   -2.0525   -0.3106 C.ar      1 <0>         0.0000
      7 C7          1.8152   -0.3391    2.3188 C.ar      1 <0>         0.0000
      8 C8          3.8204   -4.1074   -0.0171 C.ar      1 <0>         0.0000
      9 C9         -1.8801    1.7505    5.0759 C.ar      1 <0>         0.0000
     10 C10         6.0189   -2.7976   -0.9197 C.ar      1 <0>         0.0000
     11 C11         2.7434   -1.9832    0.7822 C.ar      1 <0>         0.0000
     12 C12         3.8733   -2.7203    0.1632 C.ar      1 <0>         0.0000
     13 C13         2.9072   -1.0794    1.8544 C.ar      1 <0>         0.0000
     14 C14        -1.9848    2.1871    3.7468 C.ar      1 <0>         0.0000
     15 C15         0.5407   -0.4871    1.7548 C.ar      1 <0>         0.0000
     16 C16        -1.2028    2.5329    6.0123 C.ar      1 <0>         0.0000
     17 C17         4.8847   -4.7753   -0.6369 C.ar      1 <0>         0.0000
     18 C18         4.1896   -0.9228    2.5608 C.2       1 <0>         0.0000
     19 C19        -1.8216    0.3407    1.9388 C.2       1 <0>         0.0000
     20 C20        -4.0934    0.8615    2.9730 C.3       1 <0>         0.0000
     21 C21        -3.8330    1.9089    1.9333 C.3       1 <0>         0.0000
     22 C22        -2.6631    1.3285    2.7209 C.3       1 <0>         0.0000
     23 C23         4.8730   -6.2721   -0.8248 C.3       1 <0>         0.0000
     24 N1          5.9740   -4.1255   -1.0856 N.ar      1 <0>         0.0000
     25 N2          5.0494   -1.9480    2.8505 N.2       1 <0>         0.0000
     26 N3          4.6246    0.2424    3.0558 N.2       1 <0>         0.0000
     27 N4          6.0420   -1.4298    3.5306 N.2       1 <0>         0.0000
     28 N5          5.7628   -0.1318    3.6381 N.pl3     1 <0>         0.0000
     29 N6         -0.4920    0.3090    2.2885 N.am      1 <0>         0.0000
     30 O1         -2.3164   -0.3693    1.0644 O.2       1 <0>         0.0000
     31 Cl1        -1.0857    1.9750    7.6731 Cl        1 <0>         0.0000
     32 H1         -0.2690    5.1253    4.0393 H         1 <0>         0.0000
     33 H2          1.3165   -2.8169   -0.5852 H         1 <0>         0.0000
     34 H3         -1.4729    3.7477    2.3524 H         1 <0>         0.0000
     35 H4         -0.6200   -1.5392    0.2719 H         1 <0>         0.0000
     36 H5         -0.0960    4.3441    6.3986 H         1 <0>         0.0000
     37 H6          5.1036   -0.9741   -0.2200 H         1 <0>         0.0000
     38 H7          1.9647    0.3452    3.1504 H         1 <0>         0.0000
     39 H8          2.9661   -4.6709    0.3479 H         1 <0>         0.0000
     40 H9         -2.3258    0.8064    5.3745 H         1 <0>         0.0000
     41 H10         6.9102   -2.2995   -1.2998 H         1 <0>         0.0000
     42 H11        -4.5440    1.1703    3.9111 H         1 <0>         0.0000
     43 H12        -4.3387   -0.1370    2.6281 H         1 <0>         0.0000
     44 H13        -3.9038    1.6110    0.8929 H         1 <0>         0.0000
     45 H14        -4.1042    2.9352    2.1603 H         1 <0>         0.0000
     46 H15         5.0404   -6.5217   -1.8770 H         1 <0>         0.0000
     47 H16         5.6862   -6.7287   -0.2508 H         1 <0>         0.0000
     48 H17         3.9276   -6.7155   -0.5014 H         1 <0>         0.0000
     49 H18         6.3768    0.5175    4.1178 H         1 <0>         0.0000
     50 H19        -0.2112    0.9443    3.0256 H         1 <0>         0.0000
@<TRIPOS>BOND
     1    1    3 ar
     2    1    5 ar
     3    1   32 1
     4    2    4 ar
     5    2   11 ar
     6    2   33 1
     7    3   14 ar
     8    3   34 1
     9    4   15 ar
    10    4   35 1
    11    5   16 ar
    12    5   36 1
    13    6   10 ar
    14    6   12 ar
    15    6   37 1
    16    7   13 ar
    17    7   15 ar
    18    7   38 1
    19    8   12 ar
    20    8   17 ar
    21    8   39 1
    22    9   14 ar
    23    9   16 ar
    24    9   40 1
    25   10   24 ar
    26   10   41 1
    27   11   12 1
    28   11   13 ar
    29   13   18 1
    30   14   22 1
    31   15   29 1
    32   16   31 1
    33   17   23 1
    34   17   24 ar
    35   18   25 1
    36   18   26 2
    37   19   22 1
    38   19   29 am
    39   19   30 2
    40   20   21 1
    41   20   22 1
    42   20   42 1
    43   20   43 1
    44   21   22 1
    45   21   44 1
    46   21   45 1
    47   23   46 1
    48   23   47 1
    49   23   48 1
    50   25   27 2
    51   26   28 1
    52   27   28 1
    53   28   49 1
    54   29   50 1
