@<TRIPOS>MOLECULE
*****
   66    70     0     0     0
SMALL
NO_CHARGES

@<TRIPOS>ATOM
      1 C1         -6.5359    3.6259   -4.5954 C.1       1 <0>         0.0000
      2 C2         -7.3471    4.5008   -4.8369 C.1       1 <0>         0.0000
      3 C3          1.3102   -2.0761   -2.1434 C.ar      1 <0>         0.0000
      4 C4          0.9873   -3.4356   -2.1857 C.ar      1 <0>         0.0000
      5 C5         -5.4029    1.5310   -5.2513 C.ar      1 <0>         0.0000
      6 C6          0.2902   -1.1298   -2.2347 C.ar      1 <0>         0.0000
      7 C7         -0.3437   -3.8277   -2.3443 C.ar      1 <0>         0.0000
      8 C8         -4.4867    0.5239   -5.0102 C.ar      1 <0>         0.0000
      9 C9         -4.8252    2.6038   -3.1522 C.ar      1 <0>         0.0000
     10 C10        -5.5874    2.5936   -4.3244 C.ar      1 <0>         0.0000
     11 C11        -3.8988    1.5814   -2.9035 C.ar      1 <0>         0.0000
     12 C12        -1.0496   -1.5225   -2.3763 C.ar      1 <0>         0.0000
     13 C13        -1.3811   -2.8904   -2.4592 C.ar      1 <0>         0.0000
     14 C14        -3.7143    0.5308   -3.8277 C.ar      1 <0>         0.0000
     15 C15        -3.1284    1.5750   -1.6591 C.2       1 <0>         0.0000
     16 C16        -2.1006   -0.4715   -2.5197 C.2       1 <0>         0.0000
     17 C17        -2.7875   -0.6818    3.3682 C.3       1 <0>         0.0000
     18 C18        -9.0363    6.2057   -3.9304 C.3       1 <0>         0.0000
     19 C19        -7.9778    6.9816   -4.6662 C.3       1 <0>         0.0000
     20 C20        -1.8797   -0.1107    2.2738 C.3       1 <0>         0.0000
     21 C21        -3.3233   -2.0570    2.9643 C.3       1 <0>         0.0000
     22 C22        -3.1411   -1.5246    0.6200 C.3       1 <0>         0.0000
     23 C23        -8.2979    5.5516   -5.0959 C.3       1 <0>         0.0000
     24 C24        -2.5966   -0.1222    0.9169 C.3       1 <0>         0.0000
     25 C25        -2.7935   -3.3677   -2.6983 C.3       1 <0>         0.0000
     26 C26        -3.9862   -4.4257    1.0065 C.3       1 <0>         0.0000
     27 C27        -5.8748   -2.8864    0.2994 C.3       1 <0>         0.0000
     28 C28        -1.6291    0.3544   -0.1729 C.3       1 <0>         0.0000
     29 C29        -4.8195   -3.1811    1.3733 C.3       1 <0>         0.0000
     30 N1         -2.7876   -0.4718   -3.6241 N.2       1 <0>         0.0000
     31 N2         -2.2611    0.4703   -1.5063 N.am      1 <0>         0.0000
     32 N3         -4.0324   -1.9741    1.6876 N.3       1 <0>         0.0000
     33 O1         -3.2159    2.4292   -0.7775 O.2       1 <0>         0.0000
     34 H1          2.3431   -1.7555   -2.0394 H         1 <0>         0.0000
     35 H2          1.7681   -4.1872   -2.1028 H         1 <0>         0.0000
     36 H3         -5.9955    1.5244   -6.1615 H         1 <0>         0.0000
     37 H4          0.5332   -0.0704   -2.2066 H         1 <0>         0.0000
     38 H5         -0.5876   -4.8867   -2.3869 H         1 <0>         0.0000
     39 H6         -4.3353   -0.2847   -5.7191 H         1 <0>         0.0000
     40 H7         -4.9417    3.3946   -2.4186 H         1 <0>         0.0000
     41 H8         -2.2403   -0.7630    4.3147 H         1 <0>         0.0000
     42 H9         -3.6355   -0.0071    3.5322 H         1 <0>         0.0000
     43 H10        -8.8027    5.8384   -2.9366 H         1 <0>         0.0000
     44 H11       -10.0780    6.4662   -4.0922 H         1 <0>         0.0000
     45 H12        -8.2888    7.7776   -5.3362 H         1 <0>         0.0000
     46 H13        -7.0251    7.1413   -4.1724 H         1 <0>         0.0000
     47 H14        -1.5652    0.9085    2.5267 H         1 <0>         0.0000
     48 H15        -0.9665   -0.7203    2.2061 H         1 <0>         0.0000
     49 H16        -2.4784   -2.7729    2.9259 H         1 <0>         0.0000
     50 H17        -4.0214   -2.4240    3.7245 H         1 <0>         0.0000
     51 H18        -3.7035   -1.4990   -0.3158 H         1 <0>         0.0000
     52 H19        -2.2884   -2.2152    0.4690 H         1 <0>         0.0000
     53 H20        -8.8621    5.4460   -6.0191 H         1 <0>         0.0000
     54 H21        -3.4427    0.5692    0.9655 H         1 <0>         0.0000
     55 H22        -3.5239   -2.8081   -2.1112 H         1 <0>         0.0000
     56 H23        -3.0675   -3.2302   -3.7486 H         1 <0>         0.0000
     57 H24        -2.8911   -4.4275   -2.4482 H         1 <0>         0.0000
     58 H25        -3.4507   -4.2862    0.0626 H         1 <0>         0.0000
     59 H26        -3.2497   -4.6615    1.7814 H         1 <0>         0.0000
     60 H27        -4.6388   -5.2980    0.8912 H         1 <0>         0.0000
     61 H28        -5.4319   -2.7506   -0.6925 H         1 <0>         0.0000
     62 H29        -6.4318   -1.9798    0.5530 H         1 <0>         0.0000
     63 H30        -6.5797   -3.7212    0.2244 H         1 <0>         0.0000
     64 H31        -0.7906   -0.3330   -0.2442 H         1 <0>         0.0000
     65 H32        -1.2472    1.3434    0.0867 H         1 <0>         0.0000
     66 H33        -5.3641   -3.4103    2.2976 H         1 <0>         0.0000
@<TRIPOS>BOND
     1    1    2 3
     2    1   10 1
     3    2   23 1
     4    3    4 ar
     5    3    6 ar
     6    3   34 1
     7    4    7 ar
     8    4   35 1
     9    5    8 ar
    10    5   10 ar
    11    5   36 1
    12    6   12 ar
    13    6   37 1
    14    7   13 ar
    15    7   38 1
    16    8   14 ar
    17    8   39 1
    18    9   10 ar
    19    9   11 ar
    20    9   40 1
    21   11   14 ar
    22   11   15 1
    23   12   13 ar
    24   12   16 1
    25   13   25 1
    26   14   30 1
    27   15   31 am
    28   15   33 2
    29   16   30 2
    30   16   31 1
    31   17   20 1
    32   17   21 1
    33   17   41 1
    34   17   42 1
    35   18   19 1
    36   18   23 1
    37   18   43 1
    38   18   44 1
    39   19   23 1
    40   19   45 1
    41   19   46 1
    42   20   24 1
    43   20   47 1
    44   20   48 1
    45   21   32 1
    46   21   49 1
    47   21   50 1
    48   22   24 1
    49   22   32 1
    50   22   51 1
    51   22   52 1
    52   23   53 1
    53   24   28 1
    54   24   54 1
    55   25   55 1
    56   25   56 1
    57   25   57 1
    58   26   29 1
    59   26   58 1
    60   26   59 1
    61   26   60 1
    62   27   29 1
    63   27   61 1
    64   27   62 1
    65   27   63 1
    66   28   31 1
    67   28   64 1
    68   28   65 1
    69   29   32 1
    70   29   66 1
