@<TRIPOS>MOLECULE
*****
   66    69     0     0     0
SMALL
NO_CHARGES

@<TRIPOS>ATOM
      1 C1         -1.2969    2.0011   -0.3619 C.ar      1 <0>         0.0000
      2 C2         -3.0495    1.0449   -1.7965 C.ar      1 <0>         0.0000
      3 C3         -1.5244   -0.3566   -0.5064 C.ar      1 <0>         0.0000
      4 C4         -0.8448    0.7450    0.0291 C.ar      1 <0>         0.0000
      5 C5         -1.2667   -1.7388   -0.2786 C.2       1 <0>         0.0000
      6 C6         -2.3930    2.1560   -1.2577 C.ar      1 <0>         0.0000
      7 C7         -2.5968   -0.2282   -1.4143 C.ar      1 <0>         0.0000
      8 C8         -2.1696   -2.4404   -1.0497 C.2       1 <0>         0.0000
      9 C9          2.4336    2.6427    3.5979 C.2       1 <0>         0.0000
     10 C10        -0.1874   -2.1143    0.6887 C.3       1 <0>         0.0000
     11 C11         1.4496    1.4659    0.8226 C.3       1 <0>         0.0000
     12 C12         3.0834   -0.3420    1.4277 C.3       1 <0>         0.0000
     13 C13         0.3183    0.4346    0.9602 C.3       1 <0>         0.0000
     14 C14         0.8864   -1.0009    0.6974 C.3       1 <0>         0.0000
     15 C15         2.6797    1.1218    1.6712 C.3       1 <0>         0.0000
     16 C16        -2.8415    3.5542   -1.6234 C.3       1 <0>         0.0000
     17 C17         2.3448   -2.6843    5.1810 C.3       1 <0>         0.0000
     18 C18         0.9508    4.7654    5.5549 C.3       1 <0>         0.0000
     19 C19         3.1968    0.9481    6.4670 C.3       1 <0>         0.0000
     20 C20        -1.3296   -4.5082   -2.6883 C.3       1 <0>         0.0000
     21 C21         2.8245   -2.1297    3.8350 C.3       1 <0>         0.0000
     22 C22         1.6461   -1.6894    2.9594 C.3       1 <0>         0.0000
     23 C23         2.3338    4.1064    5.5409 C.3       1 <0>         0.0000
     24 C24         1.9767    1.6440    5.8483 C.3       1 <0>         0.0000
     25 N1         -2.9723   -1.5155   -1.7518 N.pl3     1 <0>         0.0000
     26 N2          2.0173   -1.3348    1.5833 N.3       1 <0>         0.0000
     27 N3          2.4219    1.3448    3.1017 N.am      1 <0>         0.0000
     28 N4          2.3219    2.7583    4.9695 N.am      1 <0>         0.0000
     29 O1          2.5182    3.6281    2.8564 O.2       1 <0>         0.0000
     30 S1         -2.4047   -4.1722   -1.2323 S.3       1 <0>         0.0000
     31 H1         -0.8121    2.9004    0.0102 H         1 <0>         0.0000
     32 H2         -3.8764    1.1766   -2.4905 H         1 <0>         0.0000
     33 H3         -0.6360   -2.2177    1.6831 H         1 <0>         0.0000
     34 H4          0.2817   -3.0732    0.4469 H         1 <0>         0.0000
     35 H5          1.7613    1.5088   -0.2293 H         1 <0>         0.0000
     36 H6          1.1093    2.4671    1.0916 H         1 <0>         0.0000
     37 H7          3.4348   -0.4059    0.3903 H         1 <0>         0.0000
     38 H8          3.9368   -0.6163    2.0538 H         1 <0>         0.0000
     39 H9         -0.0516    0.4646    1.9945 H         1 <0>         0.0000
     40 H10         1.3078   -0.9784   -0.3181 H         1 <0>         0.0000
     41 H11         3.5058    1.7714    1.3551 H         1 <0>         0.0000
     42 H12        -2.0089    4.1477   -2.0175 H         1 <0>         0.0000
     43 H13        -3.6305    3.5383   -2.3807 H         1 <0>         0.0000
     44 H14        -3.2302    4.0866   -0.7471 H         1 <0>         0.0000
     45 H15         1.7562   -1.9393    5.7289 H         1 <0>         0.0000
     46 H16         1.7132   -3.5687    5.0432 H         1 <0>         0.0000
     47 H17         3.1899   -2.9713    5.8149 H         1 <0>         0.0000
     48 H18         0.5803    4.8732    4.5323 H         1 <0>         0.0000
     49 H19         0.2292    4.1710    6.1268 H         1 <0>         0.0000
     50 H20         1.0049    5.7601    6.0115 H         1 <0>         0.0000
     51 H21         3.8511    0.5239    5.6981 H         1 <0>         0.0000
     52 H22         3.7927    1.6575    7.0498 H         1 <0>         0.0000
     53 H23         2.8840    0.1345    7.1304 H         1 <0>         0.0000
     54 H24        -1.4074   -5.5783   -2.8989 H         1 <0>         0.0000
     55 H25        -0.2922   -4.2564   -2.4593 H         1 <0>         0.0000
     56 H26        -1.6664   -3.9430   -3.5599 H         1 <0>         0.0000
     57 H27         3.4016   -2.8883    3.2934 H         1 <0>         0.0000
     58 H28         3.5169   -1.3016    4.0279 H         1 <0>         0.0000
     59 H29         0.9686   -2.5449    2.9022 H         1 <0>         0.0000
     60 H30         1.0881   -0.8907    3.4780 H         1 <0>         0.0000
     61 H31         2.7362    4.0324    6.5577 H         1 <0>         0.0000
     62 H32         3.0261    4.7129    4.9549 H         1 <0>         0.0000
     63 H33         1.3397    2.0342    6.6492 H         1 <0>         0.0000
     64 H34         1.3605    0.9259    5.2988 H         1 <0>         0.0000
     65 H35        -3.7757   -1.7841   -2.3024 H         1 <0>         0.0000
     66 H36         2.7893    0.6342    3.7175 H         1 <0>         0.0000
@<TRIPOS>BOND
     1    1    4 ar
     2    1    6 ar
     3    1   31 1
     4    2    6 ar
     5    2    7 ar
     6    2   32 1
     7    3    4 ar
     8    3    5 1
     9    3    7 ar
    10    4   13 1
    11    5    8 2
    12    5   10 1
    13    6   16 1
    14    7   25 1
    15    8   25 1
    16    8   30 1
    17    9   27 am
    18    9   28 am
    19    9   29 2
    20   10   14 1
    21   10   33 1
    22   10   34 1
    23   11   13 1
    24   11   15 1
    25   11   35 1
    26   11   36 1
    27   12   15 1
    28   12   26 1
    29   12   37 1
    30   12   38 1
    31   13   14 1
    32   13   39 1
    33   14   26 1
    34   14   40 1
    35   15   27 1
    36   15   41 1
    37   16   42 1
    38   16   43 1
    39   16   44 1
    40   17   21 1
    41   17   45 1
    42   17   46 1
    43   17   47 1
    44   18   23 1
    45   18   48 1
    46   18   49 1
    47   18   50 1
    48   19   24 1
    49   19   51 1
    50   19   52 1
    51   19   53 1
    52   20   30 1
    53   20   54 1
    54   20   55 1
    55   20   56 1
    56   21   22 1
    57   21   57 1
    58   21   58 1
    59   22   26 1
    60   22   59 1
    61   22   60 1
    62   23   28 1
    63   23   61 1
    64   23   62 1
    65   24   28 1
    66   24   63 1
    67   24   64 1
    68   25   65 1
    69   27   66 1
