@<TRIPOS>MOLECULE
*****
   57    61     0     0     0
SMALL
NO_CHARGES

@<TRIPOS>ATOM
      1 C1         -1.0426    1.6210    1.6204 C.ar      1 <0>         0.0000
      2 C2         -0.8926    0.4378    0.8565 C.ar      1 <0>         0.0000
      3 C3         -7.4353   -2.7073   -0.5580 C.ar      1 <0>         0.0000
      4 C4         -2.0957    1.7616    2.5142 C.ar      1 <0>         0.0000
      5 C5         -4.8611    1.2236    5.7712 C.ar      1 <0>         0.0000
      6 C6         -5.0347    2.8271    3.9815 C.ar      1 <0>         0.0000
      7 C7         -6.4531   -2.9911    0.4023 C.ar      1 <0>         0.0000
      8 C8         -1.7808   -0.6253    0.9781 C.ar      1 <0>         0.0000
      9 C9         -7.2361   -1.7098   -1.5063 C.ar      1 <0>         0.0000
     10 C10        -5.3268    2.1760    6.6830 C.ar      1 <0>         0.0000
     11 C11        -5.4929    3.7852    4.8767 C.ar      1 <0>         0.0000
     12 C12        -5.0478   -1.2613   -0.5555 C.ar      1 <0>         0.0000
     13 C13        -3.0212    0.7065    2.6415 C.ar      1 <0>         0.0000
     14 C14        -4.7156    1.5205    4.4076 C.ar      1 <0>         0.0000
     15 C15        -4.1998    0.5287    3.4424 C.2       1 <0>         0.0000
     16 C16        -5.2580   -2.2721    0.3988 C.ar      1 <0>         0.0000
     17 C17        -2.8433   -0.4873    1.8882 C.ar      1 <0>         0.0000
     18 C18        -5.6460    3.4675    6.2380 C.ar      1 <0>         0.0000
     19 C19        -6.0365   -0.9769   -1.5019 C.ar      1 <0>         0.0000
     20 C20        -4.6907   -0.7428    3.1533 C.2       1 <0>         0.0000
     21 C21        -5.8833   -1.4378    3.6927 C.2       1 <0>         0.0000
     22 C22        -7.6461    5.3246   10.3370 C.3       1 <0>         0.0000
     23 C23        -8.2683    5.7735    9.0325 C.3       1 <0>         0.0000
     24 C24        -6.7925    5.4543    9.0925 C.3       1 <0>         0.0000
     25 C25        -4.7379    0.7807   -2.4734 C.3       1 <0>         0.0000
     26 C26        -4.1864   -2.5590    1.4342 C.3       1 <0>         0.0000
     27 C27        -6.2779    4.2055    8.4357 C.3       1 <0>         0.0000
     28 N1         -3.8485   -1.3709    2.2294 N.pl3     1 <0>         0.0000
     29 O1         -6.0424   -2.6444    3.6542 O.2       1 <0>         0.0000
     30 O2         -6.8421   -0.6557    4.2510 O.3       1 <0>         0.0000
     31 O3         -5.9258   -0.0051   -2.4617 O.3       1 <0>         0.0000
     32 O4         -6.1095    4.4718    7.0343 O.3       1 <0>         0.0000
     33 H1         -0.3202    2.4240    1.5027 H         1 <0>         0.0000
     34 H2         -0.0597    0.3549    0.1634 H         1 <0>         0.0000
     35 H3         -8.3692   -3.2633   -0.5555 H         1 <0>         0.0000
     36 H4         -2.2101    2.6657    3.1059 H         1 <0>         0.0000
     37 H5         -4.6034    0.2307    6.1296 H         1 <0>         0.0000
     38 H6         -4.9345    3.0808    2.9296 H         1 <0>         0.0000
     39 H7         -6.6288   -3.7444    1.1641 H         1 <0>         0.0000
     40 H8         -1.6435   -1.5269    0.3890 H         1 <0>         0.0000
     41 H9         -7.9905   -1.4732   -2.2510 H         1 <0>         0.0000
     42 H10        -5.4272    1.8996    7.7260 H         1 <0>         0.0000
     43 H11        -5.7481    4.7877    4.5457 H         1 <0>         0.0000
     44 H12        -4.1212   -0.6998   -0.5367 H         1 <0>         0.0000
     45 H13        -7.5084    6.0592   11.1245 H         1 <0>         0.0000
     46 H14        -7.8792    4.3250   10.6942 H         1 <0>         0.0000
     47 H15        -8.9115    5.0729    8.5073 H         1 <0>         0.0000
     48 H16        -8.5599    6.8143    8.9321 H         1 <0>         0.0000
     49 H17        -6.1078    6.2978    9.0550 H         1 <0>         0.0000
     50 H18        -4.8601    1.4949   -3.2888 H         1 <0>         0.0000
     51 H19        -3.8507    0.1631   -2.6614 H         1 <0>         0.0000
     52 H20        -4.6067    1.3235   -1.5291 H         1 <0>         0.0000
     53 H21        -4.5120   -3.3470    2.1088 H         1 <0>         0.0000
     54 H22        -3.2615   -2.8871    0.9543 H         1 <0>         0.0000
     55 H23        -6.9895    3.3798    8.5713 H         1 <0>         0.0000
     56 H24        -5.3139    3.9051    8.8677 H         1 <0>         0.0000
     57 H25        -6.5749    0.2831    4.2322 H         1 <0>         0.0000
@<TRIPOS>BOND
     1    1    2 ar
     2    1    4 ar
     3    1   33 1
     4    2    8 ar
     5    2   34 1
     6    3    7 ar
     7    3    9 ar
     8    3   35 1
     9    4   13 ar
    10    4   36 1
    11    5   10 ar
    12    5   14 ar
    13    5   37 1
    14    6   11 ar
    15    6   14 ar
    16    6   38 1
    17    7   16 ar
    18    7   39 1
    19    8   17 ar
    20    8   40 1
    21    9   19 ar
    22    9   41 1
    23   10   18 ar
    24   10   42 1
    25   11   18 ar
    26   11   43 1
    27   12   16 ar
    28   12   19 ar
    29   12   44 1
    30   13   15 1
    31   13   17 ar
    32   14   15 1
    33   15   20 2
    34   16   26 1
    35   17   28 1
    36   18   32 1
    37   19   31 1
    38   20   21 1
    39   20   28 1
    40   21   29 2
    41   21   30 1
    42   22   23 1
    43   22   24 1
    44   22   45 1
    45   22   46 1
    46   23   24 1
    47   23   47 1
    48   23   48 1
    49   24   27 1
    50   24   49 1
    51   25   31 1
    52   25   50 1
    53   25   51 1
    54   25   52 1
    55   26   28 1
    56   26   53 1
    57   26   54 1
    58   27   32 1
    59   27   55 1
    60   27   56 1
    61   30   57 1
