@<TRIPOS>MOLECULE
*****
   66    69     0     0     0
SMALL
NO_CHARGES

@<TRIPOS>ATOM
      1 C1          0.5819    1.8660    0.5511 C.ar      1 <0>         0.0000
      2 C2          0.6004    1.0982    2.8858 C.ar      1 <0>         0.0000
      3 C3          0.1961   -0.4253    1.0244 C.ar      1 <0>         0.0000
      4 C4          0.3077    0.5901    0.0690 C.ar      1 <0>         0.0000
      5 C5         -0.0846   -1.8025    0.8027 C.2       1 <0>         0.0000
      6 C6          0.7319    2.1234    1.9431 C.ar      1 <0>         0.0000
      7 C7          0.3278   -0.1941    2.4098 C.ar      1 <0>         0.0000
      8 C8         -0.1254   -2.4013    2.0441 C.2       1 <0>         0.0000
      9 C9         -3.0616    2.6932   -3.7760 C.2       1 <0>         0.0000
     10 C10        -0.1739   -2.2907   -0.6088 C.3       1 <0>         0.0000
     11 C11        -0.6549    1.3024   -2.1808 C.3       1 <0>         0.0000
     12 C12        -1.1799   -0.4996   -3.8480 C.3       1 <0>         0.0000
     13 C13         0.0816    0.1916   -1.3823 C.3       1 <0>         0.0000
     14 C14        -0.7131   -1.1524   -1.5065 C.3       1 <0>         0.0000
     15 C15        -1.7176    0.7367   -3.1372 C.3       1 <0>         0.0000
     16 C16         1.0308    3.5366    2.3940 C.3       1 <0>         0.0000
     17 C17         0.8105   -4.1238   -5.2668 C.3       1 <0>         0.0000
     18 C18        -3.6759    5.9536   -3.6033 C.3       1 <0>         0.0000
     19 C19        -3.1031    2.9949   -7.0518 C.3       1 <0>         0.0000
     20 C20         1.2782   -4.7487    2.4794 C.3       1 <0>         0.0000
     21 C21        -0.2258   -3.0963   -4.7982 C.3       1 <0>         0.0000
     22 C22         0.1770   -2.4551   -3.4640 C.3       1 <0>         0.0000
     23 C23        -4.2411    4.7452   -4.3552 C.3       1 <0>         0.0000
     24 C24        -2.5091    3.8594   -5.9320 C.3       1 <0>         0.0000
     25 N1          0.1449   -1.4203    3.0233 N.pl3     1 <0>         0.0000
     26 N2         -0.8674   -1.5911   -2.9134 N.3       1 <0>         0.0000
     27 N3         -2.1419    1.7147   -4.1366 N.am      1 <0>         0.0000
     28 N4         -3.2178    3.7419   -4.6614 N.am      1 <0>         0.0000
     29 O1         -3.7236    2.6077   -2.7360 O.2       1 <0>         0.0000
     30 S1         -0.4333   -4.0722    2.4921 S.3       1 <0>         0.0000
     31 H1          0.6732    2.7044   -0.1363 H         1 <0>         0.0000
     32 H2          0.7044    1.3100    3.9474 H         1 <0>         0.0000
     33 H3          0.8322   -2.5828   -0.9315 H         1 <0>         0.0000
     34 H4         -0.8163   -3.1716   -0.7044 H         1 <0>         0.0000
     35 H5         -1.1472    2.0027   -1.5023 H         1 <0>         0.0000
     36 H6          0.0693    1.8798   -2.7693 H         1 <0>         0.0000
     37 H7         -1.9093   -0.8377   -4.5919 H         1 <0>         0.0000
     38 H8         -0.2708   -0.1949   -4.4072 H         1 <0>         0.0000
     39 H9          1.0641    0.0185   -1.8437 H         1 <0>         0.0000
     40 H10        -1.7227   -0.9482   -1.1303 H         1 <0>         0.0000
     41 H11        -2.6166    0.4785   -2.5773 H         1 <0>         0.0000
     42 H12         0.2649    4.2359    2.0397 H         1 <0>         0.0000
     43 H13         1.0721    3.6103    3.4844 H         1 <0>         0.0000
     44 H14         1.9931    3.8835    1.9991 H         1 <0>         0.0000
     45 H15         1.7969   -3.6631   -5.3970 H         1 <0>         0.0000
     46 H16         0.9186   -4.9387   -4.5416 H         1 <0>         0.0000
     47 H17         0.5229   -4.5681   -6.2254 H         1 <0>         0.0000
     48 H18        -3.2611    5.6347   -2.6431 H         1 <0>         0.0000
     49 H19        -2.8828    6.4465   -4.1772 H         1 <0>         0.0000
     50 H20        -4.4638    6.6910   -3.4120 H         1 <0>         0.0000
     51 H21        -3.0746    1.9351   -6.7840 H         1 <0>         0.0000
     52 H22        -4.1476    3.2688   -7.2318 H         1 <0>         0.0000
     53 H23        -2.5464    3.1347   -7.9853 H         1 <0>         0.0000
     54 H24         1.2038   -5.8018    2.7640 H         1 <0>         0.0000
     55 H25         1.9096   -4.2233    3.1989 H         1 <0>         0.0000
     56 H26         1.7096   -4.6726    1.4792 H         1 <0>         0.0000
     57 H27        -1.2039   -3.5748   -4.6687 H         1 <0>         0.0000
     58 H28        -0.3487   -2.3316   -5.5726 H         1 <0>         0.0000
     59 H29         0.3713   -3.2700   -2.7657 H         1 <0>         0.0000
     60 H30         1.1357   -1.9134   -3.6035 H         1 <0>         0.0000
     61 H31        -4.6986    5.0599   -5.3003 H         1 <0>         0.0000
     62 H32        -5.0147    4.2633   -3.7567 H         1 <0>         0.0000
     63 H33        -2.5398    4.9137   -6.2230 H         1 <0>         0.0000
     64 H34        -1.4431    3.6358   -5.7986 H         1 <0>         0.0000
     65 H35         0.0363   -1.5849    4.0144 H         1 <0>         0.0000
     66 H36        -1.4283    1.9694   -4.8072 H         1 <0>         0.0000
@<TRIPOS>BOND
     1    1    4 ar
     2    1    6 ar
     3    1   31 1
     4    2    6 ar
     5    2    7 ar
     6    2   32 1
     7    3    4 ar
     8    3    5 1
     9    3    7 ar
    10    4   13 1
    11    5    8 2
    12    5   10 1
    13    6   16 1
    14    7   25 1
    15    8   25 1
    16    8   30 1
    17    9   27 am
    18    9   28 am
    19    9   29 2
    20   10   14 1
    21   10   33 1
    22   10   34 1
    23   11   13 1
    24   11   15 1
    25   11   35 1
    26   11   36 1
    27   12   15 1
    28   12   26 1
    29   12   37 1
    30   12   38 1
    31   13   14 1
    32   13   39 1
    33   14   26 1
    34   14   40 1
    35   15   27 1
    36   15   41 1
    37   16   42 1
    38   16   43 1
    39   16   44 1
    40   17   21 1
    41   17   45 1
    42   17   46 1
    43   17   47 1
    44   18   23 1
    45   18   48 1
    46   18   49 1
    47   18   50 1
    48   19   24 1
    49   19   51 1
    50   19   52 1
    51   19   53 1
    52   20   30 1
    53   20   54 1
    54   20   55 1
    55   20   56 1
    56   21   22 1
    57   21   57 1
    58   21   58 1
    59   22   26 1
    60   22   59 1
    61   22   60 1
    62   23   28 1
    63   23   61 1
    64   23   62 1
    65   24   28 1
    66   24   63 1
    67   24   64 1
    68   25   65 1
    69   27   66 1
