@<TRIPOS>MOLECULE
*****
   21    21     0     0     0
SMALL
NO_CHARGES

@<TRIPOS>ATOM
      1 C1         -0.3809    0.1105    1.4785 C.2       1 <0>         0.0000
      2 C2          0.7044    0.6235    0.8823 C.2       1 <0>         0.0000
      3 C3          0.8729    0.3890   -0.5798 C.2       1 <0>         0.0000
      4 C4         -1.2202   -0.8211   -0.4032 C.2       1 <0>         0.0000
      5 C5         -2.2302   -1.6055   -1.1865 C.3       1 <0>         0.0000
      6 C6          2.1750    3.5523    2.3000 C.3       1 <0>         0.0000
      7 C7          1.0974    2.4943    2.1950 C.3       1 <0>         0.0000
      8 N1         -1.3692   -0.6201    0.8690 N.2       1 <0>         0.0000
      9 N2         -0.1519   -0.3516   -1.1406 N.pl3     1 <0>         0.0000
     10 O1          1.6405    1.3451    1.5893 O.3       1 <0>         0.0000
     11 S1          2.1472    0.9323   -1.5236 S.2       1 <0>         0.0000
     12 H1         -0.5278    0.2662    2.5432 H         1 <0>         0.0000
     13 H2         -2.9923   -0.9326   -1.5731 H         1 <0>         0.0000
     14 H3         -2.6937   -2.3487   -0.5409 H         1 <0>         0.0000
     15 H4         -1.7359   -2.1105   -2.0138 H         1 <0>         0.0000
     16 H5          3.0111    3.1986    2.9097 H         1 <0>         0.0000
     17 H6          2.5503    3.8210    1.3071 H         1 <0>         0.0000
     18 H7          1.7744    4.4680    2.7473 H         1 <0>         0.0000
     19 H8          0.2643    2.8544    1.5841 H         1 <0>         0.0000
     20 H9          0.7242    2.2264    3.1880 H         1 <0>         0.0000
     21 H10        -0.1081   -0.5522   -2.1358 H         1 <0>         0.0000
@<TRIPOS>BOND
     1    1    2 2
     2    1    8 1
     3    1   12 1
     4    2    3 1
     5    2   10 1
     6    3    9 1
     7    3   11 2
     8    4    5 1
     9    4    8 2
    10    4    9 1
    11    5   13 1
    12    5   14 1
    13    5   15 1
    14    6    7 1
    15    6   16 1
    16    6   17 1
    17    6   18 1
    18    7   10 1
    19    7   19 1
    20    7   20 1
    21    9   21 1
