@<TRIPOS>MOLECULE
*****
   65    67     0     0     0
SMALL
NO_CHARGES

@<TRIPOS>ATOM
      1 C1          2.8447  -10.2447    7.3927 C.1       1 <0>         0.0000
      2 C2          1.6082   -8.1508    7.2317 C.ar      1 <0>         0.0000
      3 C3          1.2438   -6.9894    6.5546 C.ar      1 <0>         0.0000
      4 C4          2.6281   -7.6579    4.6773 C.ar      1 <0>         0.0000
      5 C5          2.4926   -9.0689    6.6460 C.ar      1 <0>         0.0000
      6 C6          3.0010   -8.8126    5.3550 C.ar      1 <0>         0.0000
      7 C7          1.7595   -6.7428    5.2817 C.ar      1 <0>         0.0000
      8 C8          0.0373   -5.1939    4.4067 C.2       1 <0>         0.0000
      9 C9          2.2550   -4.6300    3.9903 C.2       1 <0>         0.0000
     10 C10         0.2022    3.5245   -0.0484 C.2       1 <0>         0.0000
     11 C11         1.7733    1.6404   -0.1821 C.3       1 <0>         0.0000
     12 C12        -0.0122    1.5250    1.4803 C.3       1 <0>         0.0000
     13 C13         2.7647    1.1790    0.8820 C.3       1 <0>         0.0000
     14 C14         1.0135    1.0583    2.5154 C.3       1 <0>         0.0000
     15 C15         0.0464   -3.9257    3.5538 C.3       1 <0>         0.0000
     16 C16        -0.6746   -2.7900    4.2924 C.3       1 <0>         0.0000
     17 C17        -0.6214   -4.2311    2.2019 C.3       1 <0>         0.0000
     18 C18        -2.6434    6.1060    0.6612 C.3       1 <0>         0.0000
     19 C19        -1.0263    4.1498    0.6134 C.3       1 <0>         0.0000
     20 C20        -1.4090    5.4943   -0.0095 C.3       1 <0>         0.0000
     21 C21         2.5014   -1.4041    3.6377 C.3       1 <0>         0.0000
     22 C22         2.0351   -2.5259    2.7031 C.3       1 <0>         0.0000
     23 C23         3.0592   -0.2200    2.8438 C.3       1 <0>         0.0000
     24 C24         3.9455   -9.7937    4.6959 C.3       1 <0>         0.0000
     25 N1          3.1007  -11.1813    8.0354 N.1       1 <0>         0.0000
     26 N2          1.3676   -5.5689    4.5812 N.am      1 <0>         0.0000
     27 N3          1.4877   -3.6801    3.4098 N.pl3     1 <0>         0.0000
     28 N4          0.6361    2.3135    0.4416 N.am      1 <0>         0.0000
     29 N5          2.1031    0.3232    1.8730 N.3       1 <0>         0.0000
     30 O1         -0.9427   -5.7702    4.8377 O.2       1 <0>         0.0000
     31 O2          0.7846    4.0868   -0.9774 O.2       1 <0>         0.0000
     32 F1          4.3119   -9.3836    3.4601 F         1 <0>         0.0000
     33 F2          5.0777   -9.9563    5.4182 F         1 <0>         0.0000
     34 F3          3.3766  -11.0151    4.5594 F         1 <0>         0.0000
     35 S1          3.9118   -4.7034    4.0385 S.2       1 <0>         0.0000
     36 H1          1.2148   -8.3522    8.2225 H         1 <0>         0.0000
     37 H2          0.5587   -6.2834    7.0096 H         1 <0>         0.0000
     38 H3          3.0140   -7.4637    3.6857 H         1 <0>         0.0000
     39 H4          2.2398    2.3386   -0.8760 H         1 <0>         0.0000
     40 H5          1.4151    0.7691   -0.7482 H         1 <0>         0.0000
     41 H6         -0.4906    0.6428    1.0289 H         1 <0>         0.0000
     42 H7         -0.7850    2.1085    1.9775 H         1 <0>         0.0000
     43 H8          3.5627    0.6040    0.4014 H         1 <0>         0.0000
     44 H9          3.2259    2.0652    1.3569 H         1 <0>         0.0000
     45 H10         1.3941    1.9376    3.0706 H         1 <0>         0.0000
     46 H11         0.5085    0.4076    3.2358 H         1 <0>         0.0000
     47 H12        -0.6843   -1.8836    3.6801 H         1 <0>         0.0000
     48 H13        -0.1859   -2.5663    5.2445 H         1 <0>         0.0000
     49 H14        -1.7071   -3.0880    4.4903 H         1 <0>         0.0000
     50 H15        -0.6430   -3.3365    1.5734 H         1 <0>         0.0000
     51 H16        -1.6487   -4.5627    2.3717 H         1 <0>         0.0000
     52 H17        -0.0807   -5.0185    1.6696 H         1 <0>         0.0000
     53 H18        -2.4728    6.2839    1.7298 H         1 <0>         0.0000
     54 H19        -3.5165    5.4486    0.5707 H         1 <0>         0.0000
     55 H20        -2.9038    7.0662    0.2037 H         1 <0>         0.0000
     56 H21        -0.8340    4.2802    1.6864 H         1 <0>         0.0000
     57 H22        -1.8714    3.4528    0.5401 H         1 <0>         0.0000
     58 H23        -1.5879    5.3552   -1.0799 H         1 <0>         0.0000
     59 H24        -0.5585    6.1786    0.0643 H         1 <0>         0.0000
     60 H25         3.2883   -1.7875    4.2934 H         1 <0>         0.0000
     61 H26         1.6763   -1.0904    4.2845 H         1 <0>         0.0000
     62 H27         1.2697   -2.1513    2.0224 H         1 <0>         0.0000
     63 H28         2.8756   -2.8711    2.0943 H         1 <0>         0.0000
     64 H29         3.9370   -0.5608    2.2835 H         1 <0>         0.0000
     65 H30         3.4145    0.5585    3.5438 H         1 <0>         0.0000
@<TRIPOS>BOND
     1    1    5 1
     2    1   25 3
     3    2    3 ar
     4    2    5 ar
     5    2   36 1
     6    3    7 ar
     7    3   37 1
     8    4    6 ar
     9    4    7 ar
    10    4   38 1
    11    5    6 ar
    12    6   24 1
    13    7   26 1
    14    8   15 1
    15    8   26 am
    16    8   30 2
    17    9   26 1
    18    9   27 1
    19    9   35 2
    20   10   19 1
    21   10   28 am
    22   10   31 2
    23   11   13 1
    24   11   28 1
    25   11   39 1
    26   11   40 1
    27   12   14 1
    28   12   28 1
    29   12   41 1
    30   12   42 1
    31   13   29 1
    32   13   43 1
    33   13   44 1
    34   14   29 1
    35   14   45 1
    36   14   46 1
    37   15   16 1
    38   15   17 1
    39   15   27 1
    40   16   47 1
    41   16   48 1
    42   16   49 1
    43   17   50 1
    44   17   51 1
    45   17   52 1
    46   18   20 1
    47   18   53 1
    48   18   54 1
    49   18   55 1
    50   19   20 1
    51   19   56 1
    52   19   57 1
    53   20   58 1
    54   20   59 1
    55   21   22 1
    56   21   23 1
    57   21   60 1
    58   21   61 1
    59   22   27 1
    60   22   62 1
    61   22   63 1
    62   23   29 1
    63   23   64 1
    64   23   65 1
    65   24   32 1
    66   24   33 1
    67   24   34 1
