@<TRIPOS>MOLECULE
*****
   36    38     0     0     0
SMALL
NO_CHARGES

@<TRIPOS>ATOM
      1 C1         -0.7609    3.2045   -3.8297 C.ar      1 <0>         0.0000
      2 C2         -1.2155    2.5220   -4.9570 C.ar      1 <0>         0.0000
      3 C3         -0.9624    2.6654   -2.5554 C.ar      1 <0>         0.0000
      4 C4         -2.0889    0.7692   -3.5172 C.ar      1 <0>         0.0000
      5 C5         -1.8866    1.3016   -4.7981 C.ar      1 <0>         0.0000
      6 C6         -1.6168    1.4357   -2.3800 C.ar      1 <0>         0.0000
      7 C7          1.1223   -1.4331   -1.5371 C.2       1 <0>         0.0000
      8 C8         -0.9295   -0.4101    0.9332 C.2       1 <0>         0.0000
      9 C9          1.7592   -2.1891   -2.4350 C.2       1 <0>         0.0000
     10 C10        -2.3744    0.6072   -6.0196 C.2       1 <0>         0.0000
     11 C11         1.7734   -0.4898   -0.5493 C.3       1 <0>         0.0000
     12 C12        -0.3864   -1.3151   -1.3900 C.3       1 <0>         0.0000
     13 C13         0.6833    1.2470    1.0203 C.3       1 <0>         0.0000
     14 C14         0.7485    0.6521   -0.3860 C.3       1 <0>         0.0000
     15 C15        -0.6189   -0.0534   -0.5275 C.3       1 <0>         0.0000
     16 C16        -1.7981    0.8455   -1.0020 C.3       1 <0>         0.0000
     17 O1         -1.7261   -1.2236    1.3371 O.2       1 <0>         0.0000
     18 O2         -2.2419    1.0202   -7.1581 O.2       1 <0>         0.0000
     19 O3         -0.1850    0.3647    1.7757 O.3       1 <0>         0.0000
     20 O4         -3.0018   -0.5721   -5.7508 O.3       1 <0>         0.0000
     21 H1         -0.2548    4.1598   -3.9399 H         1 <0>         0.0000
     22 H2         -1.0721    2.9188   -5.9570 H         1 <0>         0.0000
     23 H3         -0.6207    3.2172   -1.6822 H         1 <0>         0.0000
     24 H4         -2.6320   -0.1643   -3.4127 H         1 <0>         0.0000
     25 H5          1.2167   -2.8278   -3.1286 H         1 <0>         0.0000
     26 H6          2.8446   -2.1985   -2.5032 H         1 <0>         0.0000
     27 H7          1.9062   -1.0012    0.4146 H         1 <0>         0.0000
     28 H8          2.7573   -0.1398   -0.8726 H         1 <0>         0.0000
     29 H9         -0.8549   -1.2219   -2.3717 H         1 <0>         0.0000
     30 H10        -0.8273   -2.1907   -0.9022 H         1 <0>         0.0000
     31 H11         1.6465    1.2728    1.5349 H         1 <0>         0.0000
     32 H12         0.2441    2.2504    1.0354 H         1 <0>         0.0000
     33 H13         0.9085    1.4169   -1.1484 H         1 <0>         0.0000
     34 H14        -1.9411    1.6554   -0.2775 H         1 <0>         0.0000
     35 H15        -2.7054    0.2346   -0.9665 H         1 <0>         0.0000
     36 H16        -3.2768   -0.9309   -6.6160 H         1 <0>         0.0000
@<TRIPOS>BOND
     1    1    2 ar
     2    1    3 ar
     3    1   21 1
     4    2    5 ar
     5    2   22 1
     6    3    6 ar
     7    3   23 1
     8    4    5 ar
     9    4    6 ar
    10    4   24 1
    11    5   10 1
    12    6   16 1
    13    7    9 2
    14    7   11 1
    15    7   12 1
    16    8   15 1
    17    8   17 2
    18    8   19 1
    19    9   25 1
    20    9   26 1
    21   10   18 2
    22   10   20 1
    23   11   14 1
    24   11   27 1
    25   11   28 1
    26   12   15 1
    27   12   29 1
    28   12   30 1
    29   13   14 1
    30   13   19 1
    31   13   31 1
    32   13   32 1
    33   14   15 1
    34   14   33 1
    35   15   16 1
    36   16   34 1
    37   16   35 1
    38   20   36 1
