@<TRIPOS>MOLECULE
*****
   52    55     0     0     0
SMALL
NO_CHARGES

@<TRIPOS>ATOM
      1 C1         -3.3658    1.4466   -4.3450 C.1       1 <0>         0.0000
      2 C2          1.9893    2.3803    1.6667 C.ar      1 <0>         0.0000
      3 C3          1.4700    1.9062    0.4380 C.ar      1 <0>         0.0000
      4 C4          1.7843    1.7140    2.8797 C.ar      1 <0>         0.0000
      5 C5          0.5382    0.0566    1.5972 C.ar      1 <0>         0.0000
      6 C6          0.7248    0.7268    0.3866 C.ar      1 <0>         0.0000
      7 C7         -0.1883   -1.1509    1.8239 C.2       1 <0>         0.0000
      8 C8          1.0444    0.5255    2.8297 C.ar      1 <0>         0.0000
      9 C9         -0.1192   -1.4005    3.1745 C.2       1 <0>         0.0000
     10 C10        -0.7218   -1.8866    0.6319 C.3       1 <0>         0.0000
     11 C11        -0.5314    1.2462   -1.7540 C.3       1 <0>         0.0000
     12 C12        -1.7223   -0.6637   -2.8552 C.3       1 <0>         0.0000
     13 C13         0.0511    0.1328   -0.8413 C.3       1 <0>         0.0000
     14 C14        -1.8213    0.8072   -2.4676 C.3       1 <0>         0.0000
     15 C15        -1.0915   -0.8706   -0.4745 C.3       1 <0>         0.0000
     16 C16        -1.3585   -4.9895   -3.3460 C.3       1 <0>         0.0000
     17 C17        -1.5544   -3.0626    6.1056 C.3       1 <0>         0.0000
     18 C18        -2.0717    1.7017   -3.6980 C.3       1 <0>         0.0000
     19 C19        -0.6341   -2.5364    3.9910 C.3       1 <0>         0.0000
     20 C20        -1.8626   -3.5565   -3.1414 C.3       1 <0>         0.0000
     21 C21        -1.0714   -2.8343   -2.0432 C.3       1 <0>         0.0000
     22 N1         -4.3940    1.2299   -4.8438 N.1       1 <0>         0.0000
     23 N2          0.6571   -0.4043    3.7844 N.pl3     1 <0>         0.0000
     24 N3         -1.6519   -1.5400   -1.6763 N.3       1 <0>         0.0000
     25 O1         -1.1113   -2.0297    5.2374 O.3       1 <0>         0.0000
     26 H1          2.5648    3.3025    1.6683 H         1 <0>         0.0000
     27 H2          1.6539    2.4851   -0.4637 H         1 <0>         0.0000
     28 H3          2.1875    2.1097    3.8083 H         1 <0>         0.0000
     29 H4          0.0549   -2.5700    0.2709 H         1 <0>         0.0000
     30 H5         -1.6031   -2.4932    0.8678 H         1 <0>         0.0000
     31 H6         -0.7378    2.1395   -1.1563 H         1 <0>         0.0000
     32 H7          0.2184    1.5348   -2.5009 H         1 <0>         0.0000
     33 H8         -2.5835   -0.9524   -3.4657 H         1 <0>         0.0000
     34 H9         -0.8241   -0.7829   -3.4953 H         1 <0>         0.0000
     35 H10         0.8013   -0.4317   -1.4124 H         1 <0>         0.0000
     36 H11        -2.6742    0.9298   -1.7919 H         1 <0>         0.0000
     37 H12        -1.9004   -0.2664   -0.0439 H         1 <0>         0.0000
     38 H13        -0.2967   -5.0026   -3.6190 H         1 <0>         0.0000
     39 H14        -1.4738   -5.5864   -2.4338 H         1 <0>         0.0000
     40 H15        -1.9123   -5.4929   -4.1451 H         1 <0>         0.0000
     41 H16        -1.8894   -2.5848    7.0286 H         1 <0>         0.0000
     42 H17        -0.7426   -3.7685    6.3372 H         1 <0>         0.0000
     43 H18        -2.3930   -3.6219    5.6654 H         1 <0>         0.0000
     44 H19        -1.2816    1.5508   -4.4429 H         1 <0>         0.0000
     45 H20        -2.0393    2.7573   -3.4065 H         1 <0>         0.0000
     46 H21        -1.4370   -3.0506    3.4427 H         1 <0>         0.0000
     47 H22         0.1629   -3.2753    4.1836 H         1 <0>         0.0000
     48 H23        -2.9219   -3.5638   -2.8581 H         1 <0>         0.0000
     49 H24        -1.7929   -3.0149   -4.0904 H         1 <0>         0.0000
     50 H25        -1.0763   -3.4854   -1.1680 H         1 <0>         0.0000
     51 H26        -0.0152   -2.7390   -2.3696 H         1 <0>         0.0000
     52 H27         0.6460   -0.2558    4.7846 H         1 <0>         0.0000
@<TRIPOS>BOND
     1    1   18 1
     2    1   22 3
     3    2    3 ar
     4    2    4 ar
     5    2   26 1
     6    3    6 ar
     7    3   27 1
     8    4    8 ar
     9    4   28 1
    10    5    6 ar
    11    5    7 1
    12    5    8 ar
    13    6   13 1
    14    7    9 2
    15    7   10 1
    16    8   23 1
    17    9   19 1
    18    9   23 1
    19   10   15 1
    20   10   29 1
    21   10   30 1
    22   11   13 1
    23   11   14 1
    24   11   31 1
    25   11   32 1
    26   12   14 1
    27   12   24 1
    28   12   33 1
    29   12   34 1
    30   13   15 1
    31   13   35 1
    32   14   18 1
    33   14   36 1
    34   15   24 1
    35   15   37 1
    36   16   20 1
    37   16   38 1
    38   16   39 1
    39   16   40 1
    40   17   25 1
    41   17   41 1
    42   17   42 1
    43   17   43 1
    44   18   44 1
    45   18   45 1
    46   19   25 1
    47   19   46 1
    48   19   47 1
    49   20   21 1
    50   20   48 1
    51   20   49 1
    52   21   24 1
    53   21   50 1
    54   21   51 1
    55   23   52 1
