@<TRIPOS>MOLECULE
*****
   29    30     0     0     0
SMALL
NO_CHARGES

@<TRIPOS>ATOM
      1 C1         -1.0470    0.6580    0.2990 C.ar      1 <0>         0.0000
      2 C2         -0.6470    0.8660   -1.0170 C.ar      1 <0>         0.0000
      3 C3         -0.3190   -0.1980    1.1190 C.ar      1 <0>         0.0000
      4 C4          0.4810    0.2190   -1.5130 C.ar      1 <0>         0.0000
      5 C5          0.8090   -0.8450    0.6220 C.ar      1 <0>         0.0000
      6 C6          1.2180   -0.6390   -0.6960 C.ar      1 <0>         0.0000
      7 C7          4.4950   -1.8050    0.0020 C.2       1 <0>         0.0000
      8 C8          5.6480   -1.3670    0.9020 C.3       1 <0>         0.0000
      9 C9          6.0420    0.1000    0.7140 C.3       1 <0>         0.0000
     10 C10         4.7550    0.9310    0.7850 C.3       1 <0>         0.0000
     11 C11         3.9010    0.5660   -0.4440 C.3       1 <0>         0.0000
     12 C12         2.4490   -1.3500   -1.2340 C.3       1 <0>         0.0000
     13 N1          3.6050   -0.8890   -0.4300 N.am      1 <0>         0.0000
     14 O1          4.3880   -2.9980   -0.2610 O.2       1 <0>         0.0000
     15 H1         -1.9070    1.1500    0.6770 H         1 <0>         0.0000
     16 H2         -1.2030    1.5160   -1.6420 H         1 <0>         0.0000
     17 H3         -0.6220   -0.3590    2.1210 H         1 <0>         0.0000
     18 H4          0.7780    0.3830   -2.5170 H         1 <0>         0.0000
     19 H5          1.3640   -1.4960    1.2500 H         1 <0>         0.0000
     20 H6          6.5090   -2.0040    0.7020 H         1 <0>         0.0000
     21 H7          5.3330   -1.5220    1.9340 H         1 <0>         0.0000
     22 H8          6.5310    0.2370   -0.2530 H         1 <0>         0.0000
     23 H9          6.7270    0.4010    1.5080 H         1 <0>         0.0000
     24 H10         4.9990    1.9940    0.7500 H         1 <0>         0.0000
     25 H11         4.2040    0.7200    1.7040 H         1 <0>         0.0000
     26 H12         4.4550    0.8040   -1.3430 H         1 <0>         0.0000
     27 H13         2.9840    1.1360   -0.3770 H         1 <0>         0.0000
     28 H14         2.6060   -1.0790   -2.2700 H         1 <0>         0.0000
     29 H15         2.2820   -2.4120   -1.1170 H         1 <0>         0.0000
@<TRIPOS>BOND
     1    1    2 ar
     2    1    3 ar
     3    1   15 1
     4    2    4 ar
     5    2   16 1
     6    3    5 ar
     7    3   17 1
     8    4    6 ar
     9    4   18 1
    10    5    6 ar
    11    5   19 1
    12    6   12 1
    13    7    8 1
    14    7   13 am
    15    7   14 2
    16    8    9 1
    17    8   20 1
    18    8   21 1
    19    9   10 1
    20    9   22 1
    21    9   23 1
    22   10   11 1
    23   10   24 1
    24   10   25 1
    25   11   13 1
    26   11   26 1
    27   11   27 1
    28   12   13 1
    29   12   28 1
    30   12   29 1
