@<TRIPOS>MOLECULE
*****
   26    27     0     0     0
SMALL
NO_CHARGES

@<TRIPOS>ATOM
      1 C1         -1.4554    2.4156   -0.2833 C.ar      1 <0>         0.0000
      2 C2         -0.1539    2.8647   -0.0289 C.ar      1 <0>         0.0000
      3 C3         -1.7039    1.0517   -0.4606 C.ar      1 <0>         0.0000
      4 C4          0.8999    1.9478    0.0658 C.ar      1 <0>         0.0000
      5 C5         -0.6612    0.1201   -0.3738 C.ar      1 <0>         0.0000
      6 C6          0.6370    0.5901   -0.0943 C.ar      1 <0>         0.0000
      7 C7          0.0335   -2.0607   -0.2801 C.2       1 <0>         0.0000
      8 C8          1.2957   -1.6127    0.4394 C.3       1 <0>         0.0000
      9 C9          1.0949   -1.6321    1.9603 C.3       1 <0>         0.0000
     10 C10         2.3325   -1.1593    2.7111 C.3       1 <0>         0.0000
     11 N1         -0.8986   -1.2423   -0.6278 N.2       1 <0>         0.0000
     12 N2         -0.1253   -3.4216   -0.4428 N.pl3     1 <0>         0.0000
     13 O1          1.6813   -0.3122   -0.0351 O.3       1 <0>         0.0000
     14 O2          2.0707   -1.3188    4.1098 O.3       1 <0>         0.0000
     15 H1         -2.2735    3.1274   -0.3517 H         1 <0>         0.0000
     16 H2          0.0439    3.9254    0.1004 H         1 <0>         0.0000
     17 H3         -2.7024    0.6838   -0.6802 H         1 <0>         0.0000
     18 H4          1.9185    2.2705    0.2634 H         1 <0>         0.0000
     19 H5          2.1380   -2.2588    0.1692 H         1 <0>         0.0000
     20 H6          0.8522   -2.6547    2.2688 H         1 <0>         0.0000
     21 H7          0.2420   -1.0010    2.2295 H         1 <0>         0.0000
     22 H8          3.2069   -1.7576    2.4094 H         1 <0>         0.0000
     23 H9          2.5402   -0.1107    2.4644 H         1 <0>         0.0000
     24 H10        -0.9072   -3.6802   -1.0362 H         1 <0>         0.0000
     25 H11         0.7132   -3.9696   -0.5906 H         1 <0>         0.0000
     26 H12         2.7970   -0.9083    4.6034 H         1 <0>         0.0000
@<TRIPOS>BOND
     1    1    2 ar
     2    1    3 ar
     3    1   15 1
     4    2    4 ar
     5    2   16 1
     6    3    5 ar
     7    3   17 1
     8    4    6 ar
     9    4   18 1
    10    5    6 ar
    11    5   11 1
    12    6   13 1
    13    7    8 1
    14    7   11 2
    15    7   12 1
    16    8    9 1
    17    8   13 1
    18    8   19 1
    19    9   10 1
    20    9   20 1
    21    9   21 1
    22   10   14 1
    23   10   22 1
    24   10   23 1
    25   12   24 1
    26   12   25 1
    27   14   26 1
