@<TRIPOS>MOLECULE
*****
   32    35     0     0     0
SMALL
NO_CHARGES

@<TRIPOS>ATOM
      1 C1         -3.8258   -2.5016   -0.1481 C.ar      1 <0>         0.0000
      2 C2          1.8979    4.1426   -0.4012 C.ar      1 <0>         0.0000
      3 C3         -2.9944   -3.6297   -0.2996 C.ar      1 <0>         0.0000
      4 C4          0.8726    3.7816   -1.2827 C.ar      1 <0>         0.0000
      5 C5         -3.2665   -1.2328   -0.0781 C.ar      1 <0>         0.0000
      6 C6          2.3719    3.2119    0.5196 C.ar      1 <0>         0.0000
      7 C7         -1.6150   -3.4874   -0.3752 C.ar      1 <0>         0.0000
      8 C8          0.3166    2.5056   -1.2251 C.ar      1 <0>         0.0000
      9 C9         -1.8708   -1.0778   -0.1603 C.ar      1 <0>         0.0000
     10 C10         1.8406    1.9146    0.5711 C.ar      1 <0>         0.0000
     11 C11        -1.0350   -2.2052   -0.3041 C.ar      1 <0>         0.0000
     12 C12         0.7912    1.5692   -0.2991 C.ar      1 <0>         0.0000
     13 C13        -1.2865    0.2655   -0.1080 C.2       1 <0>         0.0000
     14 C14         0.8607   -0.9034   -0.3142 C.2       1 <0>         0.0000
     15 C15         2.4635    0.9735    1.5633 C.2       1 <0>         0.0000
     16 C16         2.3606   -0.7626   -0.2363 C.3       1 <0>         0.0000
     17 N1          0.3479   -2.0894   -0.3534 N.2       1 <0>         0.0000
     18 N2          0.1348    0.2835   -0.2402 N.am      1 <0>         0.0000
     19 N3          2.7521   -0.2789    1.0834 N.am      1 <0>         0.0000
     20 O1         -1.9282    1.3001    0.0197 O.2       1 <0>         0.0000
     21 O2          2.7595    1.3225    2.7032 O.2       1 <0>         0.0000
     22 H1         -4.9031   -2.6269   -0.0864 H         1 <0>         0.0000
     23 H2          2.3233    5.1417   -0.4338 H         1 <0>         0.0000
     24 H3         -3.4370   -4.6209   -0.3539 H         1 <0>         0.0000
     25 H4          0.4959    4.4967   -2.0087 H         1 <0>         0.0000
     26 H5         -3.8801   -0.3448    0.0370 H         1 <0>         0.0000
     27 H6          3.1621    3.4668    1.2188 H         1 <0>         0.0000
     28 H7         -0.9588   -4.3457   -0.4839 H         1 <0>         0.0000
     29 H8         -0.5020    2.2376   -1.8824 H         1 <0>         0.0000
     30 H9          2.7934   -1.7491   -0.3934 H         1 <0>         0.0000
     31 H10         2.7415   -0.0879   -1.0087 H         1 <0>         0.0000
     32 H11         3.0624   -0.9492    1.7779 H         1 <0>         0.0000
@<TRIPOS>BOND
     1    1    3 ar
     2    1    5 ar
     3    1   22 1
     4    2    4 ar
     5    2    6 ar
     6    2   23 1
     7    3    7 ar
     8    3   24 1
     9    4    8 ar
    10    4   25 1
    11    5    9 ar
    12    5   26 1
    13    6   10 ar
    14    6   27 1
    15    7   11 ar
    16    7   28 1
    17    8   12 ar
    18    8   29 1
    19    9   11 ar
    20    9   13 1
    21   10   12 ar
    22   10   15 1
    23   11   17 1
    24   12   18 1
    25   13   18 am
    26   13   20 2
    27   14   16 1
    28   14   17 2
    29   14   18 1
    30   15   19 am
    31   15   21 2
    32   16   19 1
    33   16   30 1
    34   16   31 1
    35   19   32 1
