@<TRIPOS>MOLECULE
*****
   37    39     0     0     0
SMALL
NO_CHARGES

@<TRIPOS>ATOM
      1 C1          5.4966    4.4528   -1.5896 C.2       1 <0>         0.0000
      2 C2          4.5419    3.6042   -0.9582 C.2       1 <0>         0.0000
      3 C3          5.6343    4.1689   -2.9305 C.2       1 <0>         0.0000
      4 C4          3.9862    2.7041   -1.8407 C.2       1 <0>         0.0000
      5 C5          1.6704    2.2385   -1.0356 C.2       1 <0>         0.0000
      6 C6         -1.2073    1.0042    0.9515 C.3       1 <0>         0.0000
      7 C7         -0.0421   -2.3791    0.0475 C.3       1 <0>         0.0000
      8 C8         -0.6186    1.8597   -0.1777 C.3       1 <0>         0.0000
      9 C9          0.6995   -0.1137   -1.0162 C.3       1 <0>         0.0000
     10 C10         0.1804   -0.8925    0.1750 C.3       1 <0>         0.0000
     11 C11        -1.2258   -0.4488    0.5208 C.3       1 <0>         0.0000
     12 C12        -0.9762   -2.6264    1.2413 C.3       1 <0>         0.0000
     13 C13        -1.9989   -3.7172    0.9828 C.3       1 <0>         0.0000
     14 C14         2.9517    1.6518   -1.5728 C.3       1 <0>         0.0000
     15 N1          0.6542    1.3351   -0.7121 N.am      1 <0>         0.0000
     16 O1          1.5770    3.4617   -0.9040 O.2       1 <0>         0.0000
     17 O2         -1.6571   -1.3752    1.5172 O.3       1 <0>         0.0000
     18 S1          4.6152    2.8839   -3.4232 S.3       1 <0>         0.0000
     19 H1          6.0537    5.2324   -1.0869 H         1 <0>         0.0000
     20 H2          4.2785    3.6564    0.0907 H         1 <0>         0.0000
     21 H3          6.2848    4.6543   -3.6443 H         1 <0>         0.0000
     22 H4         -0.6175    1.1241    1.8687 H         1 <0>         0.0000
     23 H5         -2.2215    1.3392    1.1969 H         1 <0>         0.0000
     24 H6         -0.5322   -2.6219   -0.9032 H         1 <0>         0.0000
     25 H7          0.8793   -2.9650    0.1131 H         1 <0>         0.0000
     26 H8         -1.3175    1.8900   -1.0227 H         1 <0>         0.0000
     27 H9         -0.4925    2.8894    0.1721 H         1 <0>         0.0000
     28 H10         1.7093   -0.4468   -1.2625 H         1 <0>         0.0000
     29 H11         0.0754   -0.2727   -1.9034 H         1 <0>         0.0000
     30 H12         0.8527   -0.7264    1.0305 H         1 <0>         0.0000
     31 H13        -1.9019   -0.5613   -0.3389 H         1 <0>         0.0000
     32 H14        -0.3909   -2.8709    2.1352 H         1 <0>         0.0000
     33 H15        -2.5874   -3.4820    0.0932 H         1 <0>         0.0000
     34 H16        -2.6765   -3.8110    1.8342 H         1 <0>         0.0000
     35 H17        -1.4994   -4.6759    0.8271 H         1 <0>         0.0000
     36 H18         2.7256    1.1040   -2.4892 H         1 <0>         0.0000
     37 H19         3.3221    0.9185   -0.8549 H         1 <0>         0.0000
@<TRIPOS>BOND
     1    1    2 1
     2    1    3 2
     3    1   19 1
     4    2    4 2
     5    2   20 1
     6    3   18 1
     7    3   21 1
     8    4   14 1
     9    4   18 1
    10    5   14 1
    11    5   15 am
    12    5   16 2
    13    6    8 1
    14    6   11 1
    15    6   22 1
    16    6   23 1
    17    7   10 1
    18    7   12 1
    19    7   24 1
    20    7   25 1
    21    8   15 1
    22    8   26 1
    23    8   27 1
    24    9   10 1
    25    9   15 1
    26    9   28 1
    27    9   29 1
    28   10   11 1
    29   10   30 1
    30   11   17 1
    31   11   31 1
    32   12   13 1
    33   12   17 1
    34   12   32 1
    35   13   33 1
    36   13   34 1
    37   13   35 1
    38   14   36 1
    39   14   37 1
