@<TRIPOS>MOLECULE
*****
   18    18     0     0     0
SMALL
NO_CHARGES

@<TRIPOS>ATOM
      1 C1          1.6379    2.3989    4.5174 C.1       1 <0>         0.0000
      2 C2          4.8765   -1.9417    6.7385 C.ar      1 <0>         0.0000
      3 C3          5.1581   -1.6607    5.4015 C.ar      1 <0>         0.0000
      4 C4          3.5561   -1.9420    7.1879 C.ar      1 <0>         0.0000
      5 C5          4.1192   -1.3802    4.5140 C.ar      1 <0>         0.0000
      6 C6          2.5172   -1.6614    6.3004 C.ar      1 <0>         0.0000
      7 C7          2.7987   -1.3805    4.9634 C.ar      1 <0>         0.0000
      8 C8          1.4222    0.1451    3.9687 C.2       1 <0>         0.0000
      9 N1          1.2578    3.4820    4.3470 N.1       1 <0>         0.0000
     10 N2          1.7574   -1.0997    4.0733 N.2       1 <0>         0.0000
     11 N3          2.0826    1.1513    4.7200 N.pl3     1 <0>         0.0000
     12 H1          5.6853   -2.1602    7.4297 H         1 <0>         0.0000
     13 H2          6.1862   -1.6605    5.0517 H         1 <0>         0.0000
     14 H3          3.3369   -2.1605    8.2291 H         1 <0>         0.0000
     15 H4          4.3486   -1.1626    3.4740 H         1 <0>         0.0000
     16 H5          1.4913   -1.6644    6.6593 H         1 <0>         0.0000
     17 H6          0.6164    0.5061    3.3024 H         1 <0>         0.0000
     18 H7          2.8391    0.8981    5.3659 H         1 <0>         0.0000
@<TRIPOS>BOND
     1    1    9 3
     2    1   11 1
     3    2    4 ar
     4    2    3 ar
     5    2   12 1
     6    3    5 ar
     7    3   13 1
     8    4    6 ar
     9    4   14 1
    10    5    7 ar
    11    5   15 1
    12    6    7 ar
    13    6   16 1
    14    7   10 1
    15    8   10 2
    16    8   11 1
    17    8   17 1
    18   11   18 1
