@<TRIPOS>MOLECULE
*****
   49    51     0     0     0
SMALL
NO_CHARGES

@<TRIPOS>ATOM
      1 C1          1.9953   -0.8625   -6.5693 C.ar      1 <0>         0.0000
      2 C2          2.3090    0.3524   -7.1942 C.ar      1 <0>         0.0000
      3 C3          0.7698   -0.9796   -5.9127 C.ar      1 <0>         0.0000
      4 C4         -0.7062    4.7692   -2.4529 C.ar      1 <0>         0.0000
      5 C5          1.2171    3.3321   -2.5592 C.ar      1 <0>         0.0000
      6 C6         -0.8553    4.6560   -3.8388 C.ar      1 <0>         0.0000
      7 C7          1.0726    3.2243   -3.9423 C.ar      1 <0>         0.0000
      8 C8          1.4187    1.4225   -7.1616 C.ar      1 <0>         0.0000
      9 C9         -0.1254    0.0949   -5.8616 C.ar      1 <0>         0.0000
     10 C10         0.3357    4.1106   -1.7862 C.ar      1 <0>         0.0000
     11 C11         0.0293    3.8906   -4.6061 C.ar      1 <0>         0.0000
     12 C12         0.1831    1.3192   -6.4844 C.ar      1 <0>         0.0000
     13 C13         1.7564    6.5301   -0.4359 C.2       1 <0>         0.0000
     14 C14        -0.3700    4.6080    2.0264 C.3       1 <0>         0.0000
     15 C15         0.8752    5.4081    2.4279 C.3       1 <0>         0.0000
     16 C16        -0.6440    4.7139    0.5201 C.3       1 <0>         0.0000
     17 C17         2.0976    5.0236    1.5815 C.3       1 <0>         0.0000
     18 C18         0.5693    4.2328   -0.2895 C.3       1 <0>         0.0000
     19 C19         1.8340    5.0824    0.0657 C.3       1 <0>         0.0000
     20 C20        -2.0520    2.1751   -5.9574 C.3       1 <0>         0.0000
     21 C21        -0.1698    3.7272   -6.1031 C.3       1 <0>         0.0000
     22 N1         -0.7129    2.4109   -6.4806 N.pl3     1 <0>         0.0000
     23 O1          1.6960    7.5050    0.2816 O.2       1 <0>         0.0000
     24 O2          1.8047    6.6998   -1.7862 O.3       1 <0>         0.0000
     25 H1          2.6898   -1.6973   -6.6018 H         1 <0>         0.0000
     26 H2          3.2505    0.4627   -7.7270 H         1 <0>         0.0000
     27 H3          0.5037   -1.9119   -5.4201 H         1 <0>         0.0000
     28 H4         -1.4000    5.3911   -1.8968 H         1 <0>         0.0000
     29 H5          2.0297    2.8001   -2.0675 H         1 <0>         0.0000
     30 H6         -1.6717    5.1816   -4.3300 H         1 <0>         0.0000
     31 H7          1.7668    2.6095   -4.5083 H         1 <0>         0.0000
     32 H8          1.6742    2.3392   -7.6842 H         1 <0>         0.0000
     33 H9         -1.0559   -0.0248   -5.3188 H         1 <0>         0.0000
     34 H10        -0.2337    3.5497    2.2903 H         1 <0>         0.0000
     35 H11        -1.2418    4.9610    2.5888 H         1 <0>         0.0000
     36 H12         0.6811    6.4770    2.3048 H         1 <0>         0.0000
     37 H13         1.1028    5.2419    3.4872 H         1 <0>         0.0000
     38 H14        -1.5219    4.1157    0.2511 H         1 <0>         0.0000
     39 H15        -0.8776    5.7560    0.2691 H         1 <0>         0.0000
     40 H16         2.9428    5.6721    1.8294 H         1 <0>         0.0000
     41 H17         2.3981    3.9953    1.8229 H         1 <0>         0.0000
     42 H18         0.8108    3.2227    0.0688 H         1 <0>         0.0000
     43 H19         2.6889    4.6293   -0.4533 H         1 <0>         0.0000
     44 H20        -2.6666    3.0560   -6.1647 H         1 <0>         0.0000
     45 H21        -2.0814    1.9923   -4.8717 H         1 <0>         0.0000
     46 H22        -2.5037    1.3218   -6.4700 H         1 <0>         0.0000
     47 H23        -0.8636    4.4914   -6.4682 H         1 <0>         0.0000
     48 H24         0.7738    3.8838   -6.6264 H         1 <0>         0.0000
     49 H25         1.7515    5.8360   -2.2357 H         1 <0>         0.0000
@<TRIPOS>BOND
     1    1    3 ar
     2    1    2 ar
     3    1   25 1
     4    2    8 ar
     5    2   26 1
     6    3    9 ar
     7    3   27 1
     8    4    6 ar
     9    4   10 ar
    10    4   28 1
    11    5    7 ar
    12    5   10 ar
    13    5   29 1
    14    6   11 ar
    15    6   30 1
    16    7   11 ar
    17    7   31 1
    18    8   12 ar
    19    8   32 1
    20    9   12 ar
    21    9   33 1
    22   10   18 1
    23   11   21 1
    24   12   22 1
    25   13   19 1
    26   13   23 2
    27   13   24 1
    28   14   15 1
    29   14   16 1
    30   14   34 1
    31   14   35 1
    32   15   17 1
    33   15   36 1
    34   15   37 1
    35   16   18 1
    36   16   38 1
    37   16   39 1
    38   17   19 1
    39   17   40 1
    40   17   41 1
    41   18   19 1
    42   18   42 1
    43   19   43 1
    44   20   22 1
    45   20   44 1
    46   20   45 1
    47   20   46 1
    48   21   22 1
    49   21   47 1
    50   21   48 1
    51   24   49 1
