@<TRIPOS>MOLECULE
*****
   67    69     0     0     0
SMALL
NO_CHARGES

@<TRIPOS>ATOM
      1 C1          4.4049   -0.7855    8.5596 C.ar      1 <0>         0.0000
      2 C2         -0.0144   -3.5918    2.1206 C.ar      1 <0>         0.0000
      3 C3          3.2342   -0.3596    7.9194 C.ar      1 <0>         0.0000
      4 C4          5.6063   -0.8215    7.8466 C.ar      1 <0>         0.0000
      5 C5         -0.0967   -2.5255    3.0242 C.ar      1 <0>         0.0000
      6 C6          1.2356   -3.9894    1.6371 C.ar      1 <0>         0.0000
      7 C7          3.2681    0.0293    6.5791 C.ar      1 <0>         0.0000
      8 C8          5.6348   -0.4343    6.5016 C.ar      1 <0>         0.0000
      9 C9          1.0614   -1.8680    3.4447 C.ar      1 <0>         0.0000
     10 C10         2.3929   -3.3228    2.0547 C.ar      1 <0>         0.0000
     11 C11         4.4703   -0.0029    5.8562 C.ar      1 <0>         0.0000
     12 C12         2.3195   -2.2611    2.9649 C.ar      1 <0>         0.0000
     13 C13         0.1611    3.8040    2.0608 C.2       1 <0>         0.0000
     14 C14        -1.3988    6.8606    3.1964 C.3       1 <0>         0.0000
     15 C15        -1.5555    5.3462    2.9817 C.3       1 <0>         0.0000
     16 C16         0.3754    6.3296    1.8138 C.3       1 <0>         0.0000
     17 C17        -1.6907    4.6197    4.3240 C.3       1 <0>         0.0000
     18 C18        -2.7366    5.0322    2.0506 C.3       1 <0>         0.0000
     19 C19         0.5927    6.3622    0.3023 C.3       1 <0>         0.0000
     20 C20         1.6576    6.6392    2.5941 C.3       1 <0>         0.0000
     21 C21         2.9396    2.6716    0.0597 C.3       1 <0>         0.0000
     22 C22         4.4987    0.4483    4.4097 C.3       1 <0>         0.0000
     23 C23         3.5794   -1.5708    3.4475 C.3       1 <0>         0.0000
     24 C24         2.6263    1.9621    2.5026 C.3       1 <0>         0.0000
     25 C25         3.2172    0.5561    2.3391 C.3       1 <0>         0.0000
     26 C26         1.9726    2.4761    1.2192 C.3       1 <0>         0.0000
     27 N1         -0.2651    5.0739    2.3020 N.am      1 <0>         0.0000
     28 N2          3.4073   -0.1268    3.6218 N.3       1 <0>         0.0000
     29 O1         -0.4684    2.7875    2.3379 O.2       1 <0>         0.0000
     30 O2         -0.6242    7.3173    2.0937 O.3       1 <0>         0.0000
     31 O3          1.3950    3.7877    1.4767 O.3       1 <0>         0.0000
     32 H1          4.3783   -1.0908    9.6026 H         1 <0>         0.0000
     33 H2         -0.9162   -4.1021    1.7918 H         1 <0>         0.0000
     34 H3          2.2951   -0.3332    8.4669 H         1 <0>         0.0000
     35 H4          6.5189   -1.1572    8.3330 H         1 <0>         0.0000
     36 H5         -1.0657   -2.2031    3.3972 H         1 <0>         0.0000
     37 H6          1.3100   -4.8115    0.9294 H         1 <0>         0.0000
     38 H7          2.3607    0.3479    6.0734 H         1 <0>         0.0000
     39 H8          6.5710   -0.4747    5.9480 H         1 <0>         0.0000
     40 H9          1.0012   -1.0304    4.1332 H         1 <0>         0.0000
     41 H10         3.3620   -3.6296    1.6656 H         1 <0>         0.0000
     42 H11        -2.3529    7.3912    3.1796 H         1 <0>         0.0000
     43 H12        -0.8889    7.0686    4.1478 H         1 <0>         0.0000
     44 H13        -1.8444    3.5503    4.1799 H         1 <0>         0.0000
     45 H14        -2.5473    5.0288    4.8719 H         1 <0>         0.0000
     46 H15        -0.7928    4.7640    4.9334 H         1 <0>         0.0000
     47 H16        -2.7194    3.9783    1.7644 H         1 <0>         0.0000
     48 H17        -2.6856    5.6478    1.1474 H         1 <0>         0.0000
     49 H18        -3.6858    5.2387    2.5573 H         1 <0>         0.0000
     50 H19        -0.3239    6.0622   -0.2119 H         1 <0>         0.0000
     51 H20         1.4068    5.7020    0.0051 H         1 <0>         0.0000
     52 H21         0.8366    7.3873    0.0097 H         1 <0>         0.0000
     53 H22         1.4473    6.7000    3.6655 H         1 <0>         0.0000
     54 H23         2.0641    7.5990    2.2626 H         1 <0>         0.0000
     55 H24         2.4021    5.8583    2.4296 H         1 <0>         0.0000
     56 H25         3.7528    3.3498    0.3398 H         1 <0>         0.0000
     57 H26         3.3767    1.7138   -0.2362 H         1 <0>         0.0000
     58 H27         2.4192    3.0916   -0.8061 H         1 <0>         0.0000
     59 H28         4.3935    1.5370    4.3834 H         1 <0>         0.0000
     60 H29         5.4880    0.2190    3.9698 H         1 <0>         0.0000
     61 H30         3.8582   -1.9869    4.4216 H         1 <0>         0.0000
     62 H31         4.4137   -1.8020    2.7583 H         1 <0>         0.0000
     63 H32         1.8620    1.9198    3.2831 H         1 <0>         0.0000
     64 H33         3.3873    2.6866    2.8148 H         1 <0>         0.0000
     65 H34         2.5162   -0.0478    1.7549 H         1 <0>         0.0000
     66 H35         4.1607    0.5926    1.7625 H         1 <0>         0.0000
     67 H36         1.1599    1.8040    0.9327 H         1 <0>         0.0000
@<TRIPOS>BOND
     1    1    4 ar
     2    1    3 ar
     3    1   32 1
     4    2    6 ar
     5    2    5 ar
     6    2   33 1
     7    3    7 ar
     8    3   34 1
     9    4    8 ar
    10    4   35 1
    11    5    9 ar
    12    5   36 1
    13    6   10 ar
    14    6   37 1
    15    7   11 ar
    16    7   38 1
    17    8   11 ar
    18    8   39 1
    19    9   12 ar
    20    9   40 1
    21   10   12 ar
    22   10   41 1
    23   11   22 1
    24   12   23 1
    25   13   27 am
    26   13   29 2
    27   13   31 1
    28   14   15 1
    29   14   30 1
    30   14   42 1
    31   14   43 1
    32   15   17 1
    33   15   18 1
    34   15   27 1
    35   16   19 1
    36   16   20 1
    37   16   27 1
    38   16   30 1
    39   17   44 1
    40   17   45 1
    41   17   46 1
    42   18   47 1
    43   18   48 1
    44   18   49 1
    45   19   50 1
    46   19   51 1
    47   19   52 1
    48   20   53 1
    49   20   54 1
    50   20   55 1
    51   21   26 1
    52   21   56 1
    53   21   57 1
    54   21   58 1
    55   22   28 1
    56   22   59 1
    57   22   60 1
    58   23   28 1
    59   23   61 1
    60   23   62 1
    61   24   25 1
    62   24   26 1
    63   24   63 1
    64   24   64 1
    65   25   28 1
    66   25   65 1
    67   25   66 1
    68   26   31 1
    69   26   67 1
