@<TRIPOS>MOLECULE
*****
   45    48     0     0     0
SMALL
NO_CHARGES

@<TRIPOS>ATOM
      1 C1          4.2451    1.5814    2.9625 C.ar      1 <0>         0.0000
      2 C2          4.6655    3.8767    2.5027 C.ar      1 <0>         0.0000
      3 C3          2.9120    1.9030    3.1921 C.ar      1 <0>         0.0000
      4 C4          5.1450    2.5813    2.6109 C.ar      1 <0>         0.0000
      5 C5          2.5325    3.2288    3.0581 C.ar      1 <0>         0.0000
      6 C6         -0.4855    3.1489    0.2330 C.2       1 <0>         0.0000
      7 C7         -0.8793    2.3985    2.2395 C.2       1 <0>         0.0000
      8 C8         -1.9734    0.1642    0.3184 C.2       1 <0>         0.0000
      9 C9         -0.7306    3.4204   -1.2189 C.3       1 <0>         0.0000
     10 C10        -1.6507    2.3904   -1.8628 C.3       1 <0>         0.0000
     11 C11        -2.8649    2.0879   -0.9784 C.3       1 <0>         0.0000
     12 C12        -4.3538   -0.5557    0.8421 C.3       1 <0>         0.0000
     13 C13        -2.6500   -2.2258    0.4960 C.3       1 <0>         0.0000
     14 C14        -2.4417    1.5947    0.4047 C.3       1 <0>         0.0000
     15 C15        -4.8752   -1.9177    1.2613 C.3       1 <0>         0.0000
     16 C16        -4.0190   -2.8808    0.4580 C.3       1 <0>         0.0000
     17 C17         1.1016    3.6150    3.2982 C.3       1 <0>         0.0000
     18 N1          3.3778    4.2275    2.7180 N.ar      1 <0>         0.0000
     19 N2          0.4665    3.6942    0.9307 N.2       1 <0>         0.0000
     20 N3         -1.3230    2.3563    0.9327 N.am      1 <0>         0.0000
     21 N4          0.2497    3.2322    2.2039 N.am      1 <0>         0.0000
     22 N5         -2.9439   -0.7955    0.5423 N.am      1 <0>         0.0000
     23 O1         -1.3542    1.8305    3.2125 O.2       1 <0>         0.0000
     24 O2         -0.7946   -0.0927    0.0686 O.2       1 <0>         0.0000
     25 F1          2.0308    0.9539    3.5304 F         1 <0>         0.0000
     26 F2         -6.1802   -2.0671    0.9529 F         1 <0>         0.0000
     27 F3         -4.4514   -2.8862   -0.8329 F         1 <0>         0.0000
     28 Cl1         6.7962    2.2221    2.3193 Cl        1 <0>         0.0000
     29 H1          4.5687    0.5485    3.0592 H         1 <0>         0.0000
     30 H2          5.3168    4.7017    2.2304 H         1 <0>         0.0000
     31 H3         -1.1830    4.4170   -1.2890 H         1 <0>         0.0000
     32 H4          0.2282    3.4624   -1.7463 H         1 <0>         0.0000
     33 H5         -1.9878    2.7606   -2.8378 H         1 <0>         0.0000
     34 H6         -1.0896    1.4688   -2.0555 H         1 <0>         0.0000
     35 H7         -3.4642    3.0003   -0.8696 H         1 <0>         0.0000
     36 H8         -3.4973    1.3426   -1.4751 H         1 <0>         0.0000
     37 H9         -4.8484   -0.1894   -0.0637 H         1 <0>         0.0000
     38 H10        -4.4643    0.1939    1.6306 H         1 <0>         0.0000
     39 H11        -2.1015   -2.4777    1.4097 H         1 <0>         0.0000
     40 H12        -2.0358   -2.4551   -0.3795 H         1 <0>         0.0000
     41 H13        -3.2707    1.6265    1.1142 H         1 <0>         0.0000
     42 H14        -4.7406   -2.0739    2.3375 H         1 <0>         0.0000
     43 H15        -4.0371   -3.9059    0.8346 H         1 <0>         0.0000
     44 H16         0.7197    3.1362    4.2065 H         1 <0>         0.0000
     45 H17         1.0044    4.6971    3.4355 H         1 <0>         0.0000
@<TRIPOS>BOND
     1    1    3 ar
     2    1    4 ar
     3    1   29 1
     4    2    4 ar
     5    2   18 ar
     6    2   30 1
     7    3    5 ar
     8    3   25 1
     9    4   28 1
    10    5   17 1
    11    5   18 ar
    12    6    9 1
    13    6   19 2
    14    6   20 1
    15    7   20 am
    16    7   21 am
    17    7   23 2
    18    8   14 1
    19    8   22 am
    20    8   24 2
    21    9   10 1
    22    9   31 1
    23    9   32 1
    24   10   11 1
    25   10   33 1
    26   10   34 1
    27   11   14 1
    28   11   35 1
    29   11   36 1
    30   12   15 1
    31   12   22 1
    32   12   37 1
    33   12   38 1
    34   13   16 1
    35   13   22 1
    36   13   39 1
    37   13   40 1
    38   14   20 1
    39   14   41 1
    40   15   16 1
    41   15   26 1
    42   15   42 1
    43   16   27 1
    44   16   43 1
    45   17   21 1
    46   17   44 1
    47   17   45 1
    48   19   21 1
