@<TRIPOS>MOLECULE
*****
   25    25     0     0     0
SMALL
NO_CHARGES

@<TRIPOS>ATOM
      1 C1          4.3392    0.5363   -5.7746 C.2       1 <0>         0.0000
      2 C2          4.2605    0.7104   -4.4208 C.2       1 <0>         0.0000
      3 C3          6.1973   -0.3704   -4.4817 C.2       1 <0>         0.0000
      4 C4          2.0389    2.0186   -4.3819 C.2       1 <0>         0.0000
      5 C5          0.0161    3.2135   -4.1068 C.3       1 <0>         0.0000
      6 C6          7.1363   -1.1564   -1.2970 C.3       1 <0>         0.0000
      7 C7          3.1816    1.3825   -3.6176 C.3       1 <0>         0.0000
      8 N1          5.3293    0.2025   -3.6979 N.2       1 <0>         0.0000
      9 N2          7.3611   -0.9811   -4.0024 N.pl3     1 <0>         0.0000
     10 O1          1.8895    2.0548   -5.5883 O.2       1 <0>         0.0000
     11 O2          5.9725   -2.9236   -2.8971 O.2       1 <0>         0.0000
     12 O3          8.5219   -2.8718   -2.8227 O.2       1 <0>         0.0000
     13 O4          1.1627    2.5692   -3.5099 O.3       1 <0>         0.0000
     14 S1          5.7821   -0.3473   -6.1843 S.3       1 <0>         0.0000
     15 S2          7.2280   -2.1885   -2.7636 S.o2      1 <0>         0.0000
     16 H1          3.6542    0.8841   -6.5326 H         1 <0>         0.0000
     17 H2         -0.5711    3.5914   -3.2703 H         1 <0>         0.0000
     18 H3         -0.5624    2.4944   -4.6911 H         1 <0>         0.0000
     19 H4          0.3351    4.0320   -4.7559 H         1 <0>         0.0000
     20 H5          7.0201   -1.8356   -0.4504 H         1 <0>         0.0000
     21 H6          8.0636   -0.5886   -1.2252 H         1 <0>         0.0000
     22 H7          6.2702   -0.5044   -1.4109 H         1 <0>         0.0000
     23 H8          2.7494    0.6583   -2.9173 H         1 <0>         0.0000
     24 H9          3.6287    2.1551   -2.9820 H         1 <0>         0.0000
     25 H10         8.0260   -1.3057   -4.7019 H         1 <0>         0.0000
@<TRIPOS>BOND
     1    1    2 2
     2    1   14 1
     3    1   16 1
     4    2    7 1
     5    2    8 1
     6    3    8 2
     7    3    9 1
     8    3   14 1
     9    4    7 1
    10    4   10 2
    11    4   13 1
    12    5   13 1
    13    5   17 1
    14    5   18 1
    15    5   19 1
    16    6   15 1
    17    6   20 1
    18    6   21 1
    19    6   22 1
    20    7   23 1
    21    7   24 1
    22    9   15 1
    23    9   25 1
    24   11   15 2
    25   12   15 2
