@<TRIPOS>MOLECULE
*****
   28    29     0     0     0
SMALL
NO_CHARGES

@<TRIPOS>ATOM
      1 C1          3.0400   -8.4186    6.0550 C.ar      1 <0>         0.0000
      2 C2          4.8981   -5.7682    2.1616 C.ar      1 <0>         0.0000
      3 C3          2.5963   -8.1736    4.7712 C.ar      1 <0>         0.0000
      4 C4          5.3676   -6.0040    3.4390 C.ar      1 <0>         0.0000
      5 C5          4.2510   -7.8538    6.5216 C.ar      1 <0>         0.0000
      6 C6          3.6753   -6.3032    1.7024 C.ar      1 <0>         0.0000
      7 C7          4.5989   -6.7964    4.3380 C.ar      1 <0>         0.0000
      8 C8          3.3610   -7.3618    3.8925 C.ar      1 <0>         0.0000
      9 C9          5.0044   -7.0576    5.6837 C.ar      1 <0>         0.0000
     10 C10         2.9131   -7.0994    2.5500 C.ar      1 <0>         0.0000
     11 C11         0.8875   -6.0782    0.4476 C.2       1 <0>         0.0000
     12 C12         0.0773   -8.4705    0.7312 C.3       1 <0>         0.0000
     13 C13         1.2843   -7.5516    0.8329 C.3       1 <0>         0.0000
     14 O1          0.1695   -5.4755    1.2802 O.co2     1 <0>         0.0000
     15 O2          1.3249   -5.7151   -0.6811 O.co2     1 <0>         0.0000
     16 O3          6.1762   -6.5253    6.1924 O.3       1 <0>         0.0000
     17 O4          1.7556   -7.6927    2.2058 O.3       1 <0>         0.0000
     18 H1          2.4519   -9.0392    6.7272 H         1 <0>         0.0000
     19 H2          5.4818   -5.1537    1.4796 H         1 <0>         0.0000
     20 H3          1.6602   -8.5838    4.4105 H         1 <0>         0.0000
     21 H4          6.3342   -5.5917    3.7247 H         1 <0>         0.0000
     22 H5          4.5976   -8.0231    7.5377 H         1 <0>         0.0000
     23 H6          3.3250   -6.0676    0.7032 H         1 <0>         0.0000
     24 H7         -0.7080   -8.1057    1.3997 H         1 <0>         0.0000
     25 H8         -0.3028   -8.4528   -0.2954 H         1 <0>         0.0000
     26 H9          0.3326   -9.5036    0.9989 H         1 <0>         0.0000
     27 H10         2.0907   -7.8906    0.1723 H         1 <0>         0.0000
     28 H11         6.4840   -5.8372    5.5833 H         1 <0>         0.0000
@<TRIPOS>BOND
     1    1    3 ar
     2    1    5 ar
     3    1   18 1
     4    2    4 ar
     5    2    6 ar
     6    2   19 1
     7    3    8 ar
     8    3   20 1
     9    4    7 ar
    10    4   21 1
    11    5    9 ar
    12    5   22 1
    13    6   10 ar
    14    6   23 1
    15    7    8 ar
    16    7    9 ar
    17    8   10 ar
    18    9   16 1
    19   10   17 1
    20   11   13 1
    21   11   14 1
    22   11   15 2
    23   12   13 1
    24   12   24 1
    25   12   25 1
    26   12   26 1
    27   13   17 1
    28   13   27 1
    29   16   28 1
