@<TRIPOS>MOLECULE
*****
   45    47     0     0     0
SMALL
NO_CHARGES

@<TRIPOS>ATOM
      1 C1          4.3913   -7.3562   -6.1521 C.ar      1 <0>         0.0000
      2 C2          3.5860   -7.9166   -5.1548 C.ar      1 <0>         0.0000
      3 C3          4.0752   -6.0920   -6.6609 C.ar      1 <0>         0.0000
      4 C4          2.4763   -7.2193   -4.6729 C.ar      1 <0>         0.0000
      5 C5          2.9653   -5.3958   -6.1776 C.ar      1 <0>         0.0000
      6 C6          0.1599   -4.4407   -5.5190 C.ar      1 <0>         0.0000
      7 C7          0.6139   -5.2459   -3.3069 C.ar      1 <0>         0.0000
      8 C8         -0.9453   -3.7427   -5.0343 C.ar      1 <0>         0.0000
      9 C9         -0.4942   -4.5444   -2.8275 C.ar      1 <0>         0.0000
     10 C10         2.1471   -5.9479   -5.1759 C.ar      1 <0>         0.0000
     11 C11         0.9684   -5.2085   -4.6641 C.ar      1 <0>         0.0000
     12 C12        -1.3010   -3.7676   -3.6746 C.ar      1 <0>         0.0000
     13 C13        -4.4545   -5.7337   -1.9473 C.2       1 <0>         0.0000
     14 C14        -1.7013   -0.4627   -1.9413 C.3       1 <0>         0.0000
     15 C15        -1.7255   -0.6653   -3.4624 C.3       1 <0>         0.0000
     16 C16        -1.5268   -1.7991   -1.2071 C.3       1 <0>         0.0000
     17 C17        -2.7883   -1.6959   -3.8640 C.3       1 <0>         0.0000
     18 C18        -2.5798   -2.8239   -1.6531 C.3       1 <0>         0.0000
     19 C19        -2.5758   -3.0687   -3.1799 C.3       1 <0>         0.0000
     20 C20        -3.7812   -3.9707   -3.5626 C.3       1 <0>         0.0000
     21 N1         -3.7117   -5.3159   -3.0106 N.am      1 <0>         0.0000
     22 O1         -5.3033   -5.0679   -1.3653 O.2       1 <0>         0.0000
     23 H1          5.2551   -7.8980   -6.5279 H         1 <0>         0.0000
     24 H2          3.8171   -8.9021   -4.7584 H         1 <0>         0.0000
     25 H3          4.6999   -5.6427   -7.4288 H         1 <0>         0.0000
     26 H4          1.8432   -7.6768   -3.9173 H         1 <0>         0.0000
     27 H5          2.7468   -4.4025   -6.5606 H         1 <0>         0.0000
     28 H6          0.3816   -4.4105   -6.5826 H         1 <0>         0.0000
     29 H7          1.2280   -5.8066   -2.6070 H         1 <0>         0.0000
     30 H8         -1.5430   -3.1771   -5.7425 H         1 <0>         0.0000
     31 H9         -0.7152   -4.6009   -1.7676 H         1 <0>         0.0000
     32 H10        -4.2137   -6.7749   -1.6576 H         1 <0>         0.0000
     33 H11        -2.6458    0.0020   -1.6262 H         1 <0>         0.0000
     34 H12        -0.9001    0.2317   -1.6626 H         1 <0>         0.0000
     35 H13        -1.9268    0.2862   -3.9684 H         1 <0>         0.0000
     36 H14        -0.7397   -1.0032   -3.8052 H         1 <0>         0.0000
     37 H15        -0.5194   -2.1861   -1.4003 H         1 <0>         0.0000
     38 H16        -1.6024   -1.6480   -0.1239 H         1 <0>         0.0000
     39 H17        -3.7766   -1.3235   -3.5633 H         1 <0>         0.0000
     40 H18        -2.8269   -1.7994   -4.9531 H         1 <0>         0.0000
     41 H19        -2.4647   -3.7621   -1.1037 H         1 <0>         0.0000
     42 H20        -3.5758   -2.4541   -1.3825 H         1 <0>         0.0000
     43 H21        -3.8489   -4.0422   -4.6540 H         1 <0>         0.0000
     44 H22        -4.7070   -3.5260   -3.1923 H         1 <0>         0.0000
     45 H23        -2.9837   -5.9329   -3.3494 H         1 <0>         0.0000
@<TRIPOS>BOND
     1    1    3 ar
     2    1    2 ar
     3    1   23 1
     4    2    4 ar
     5    2   24 1
     6    3    5 ar
     7    3   25 1
     8    4   10 ar
     9    4   26 1
    10    5   10 ar
    11    5   27 1
    12    6    8 ar
    13    6   11 ar
    14    6   28 1
    15    7    9 ar
    16    7   11 ar
    17    7   29 1
    18    8   12 ar
    19    8   30 1
    20    9   12 ar
    21    9   31 1
    22   10   11 1
    23   12   19 1
    24   13   21 am
    25   13   22 2
    26   13   32 1
    27   14   16 1
    28   14   15 1
    29   14   33 1
    30   14   34 1
    31   15   17 1
    32   15   35 1
    33   15   36 1
    34   16   18 1
    35   16   37 1
    36   16   38 1
    37   17   19 1
    38   17   39 1
    39   17   40 1
    40   18   19 1
    41   18   41 1
    42   18   42 1
    43   19   20 1
    44   20   21 1
    45   20   43 1
    46   20   44 1
    47   21   45 1
