@<TRIPOS>MOLECULE
*****
   35    35     0     0     0
SMALL
NO_CHARGES

@<TRIPOS>ATOM
      1 C1          1.3477   -0.4744    0.0662 C.3       1 <0>         0.0000
      2 C2          0.1993   -1.4669   -0.1707 C.3       1 <0>         0.0000
      3 C3          1.8440   -0.2005   -1.3578 C.3       1 <0>         0.0000
      4 C4          0.7337   -2.3543   -1.3151 C.3       1 <0>         0.0000
      5 C5          1.4083   -3.6268   -0.7707 C.3       1 <0>         0.0000
      6 C6          4.5129   -7.8549   -2.2515 C.3       1 <0>         0.0000
      7 C7          5.2378   -8.4599   -3.4598 C.3       1 <0>         0.0000
      8 C8          2.1009   -4.4033   -1.8866 C.3       1 <0>         0.0000
      9 C9          3.7773   -6.5776   -2.6583 C.3       1 <0>         0.0000
     10 C10         5.9925   -9.7273   -3.1193 C.3       1 <0>         0.0000
     11 N1          1.7141   -1.5067   -2.0445 N.3       1 <0>         0.0000
     12 O1          1.8747   -6.8409   -0.8034 O.2       1 <0>         0.0000
     13 O2          3.9415   -5.4467   -0.2452 O.2       1 <0>         0.0000
     14 F1          6.6140  -10.2351   -4.2148 F         1 <0>         0.0000
     15 F2          6.9492   -9.5149   -2.1811 F         1 <0>         0.0000
     16 F3          5.1726  -10.6968   -2.6412 F         1 <0>         0.0000
     17 S1          2.9148   -5.8774   -1.2127 S.o2      1 <0>         0.0000
     18 H1          1.0320    0.4363    0.5822 H         1 <0>         0.0000
     19 H2          2.1405   -0.9400    0.6612 H         1 <0>         0.0000
     20 H3         -0.0668   -2.0436    0.7197 H         1 <0>         0.0000
     21 H4         -0.6961   -0.9280   -0.5008 H         1 <0>         0.0000
     22 H5          1.2199    0.5755   -1.8266 H         1 <0>         0.0000
     23 H6          2.8825    0.1461   -1.3803 H         1 <0>         0.0000
     24 H7         -0.0805   -2.6568   -1.9865 H         1 <0>         0.0000
     25 H8          0.6576   -4.2589   -0.2850 H         1 <0>         0.0000
     26 H9          2.1527   -3.3492   -0.0180 H         1 <0>         0.0000
     27 H10         3.7954   -8.5737   -1.8475 H         1 <0>         0.0000
     28 H11         5.2317   -7.6229   -1.4614 H         1 <0>         0.0000
     29 H12         4.5318   -8.7149   -4.2561 H         1 <0>         0.0000
     30 H13         5.9675   -7.7579   -3.8747 H         1 <0>         0.0000
     31 H14         1.3912   -4.7605   -2.6397 H         1 <0>         0.0000
     32 H15         2.8699   -3.7840   -2.3556 H         1 <0>         0.0000
     33 H16         4.4658   -5.8071   -3.0176 H         1 <0>         0.0000
     34 H17         3.0138   -6.7717   -3.4177 H         1 <0>         0.0000
     35 H18         1.4365   -1.3795   -3.0118 H         1 <0>         0.0000
@<TRIPOS>BOND
     1    1    2 1
     2    1    3 1
     3    1   18 1
     4    1   19 1
     5    2    4 1
     6    2   20 1
     7    2   21 1
     8    3   11 1
     9    3   22 1
    10    3   23 1
    11    4    5 1
    12    4   11 1
    13    4   24 1
    14    5    8 1
    15    5   25 1
    16    5   26 1
    17    6    7 1
    18    6    9 1
    19    6   27 1
    20    6   28 1
    21    7   10 1
    22    7   29 1
    23    7   30 1
    24    8   17 1
    25    8   31 1
    26    8   32 1
    27    9   17 1
    28    9   33 1
    29    9   34 1
    30   10   14 1
    31   10   15 1
    32   10   16 1
    33   11   35 1
    34   12   17 2
    35   13   17 2
