@<TRIPOS>MOLECULE
*****
   36    38     0     0     0
SMALL
NO_CHARGES

@<TRIPOS>ATOM
      1 C1          2.7305    0.4560    6.5503 C.ar      1 <0>         0.0000
      2 C2          2.1605    1.3539    5.6413 C.ar      1 <0>         0.0000
      3 C3          2.3544   -0.8906    6.5209 C.ar      1 <0>         0.0000
      4 C4         -0.0758    2.6106   -1.0571 C.ar      1 <0>         0.0000
      5 C5         -1.1333    2.6909   -0.1422 C.ar      1 <0>         0.0000
      6 C6          1.2232    0.9042    4.7074 C.ar      1 <0>         0.0000
      7 C7          1.4173   -1.3373    5.5843 C.ar      1 <0>         0.0000
      8 C8          0.5470    1.3854   -1.3029 C.ar      1 <0>         0.0000
      9 C9         -1.5744    1.5555    0.5451 C.ar      1 <0>         0.0000
     10 C10         0.8418   -0.4451    4.6691 C.ar      1 <0>         0.0000
     11 C11         0.0967    0.2554   -0.6207 C.ar      1 <0>         0.0000
     12 C12        -0.9496    0.3363    0.3052 C.ar      1 <0>         0.0000
     13 C13         0.4094   -2.0586   -0.0578 C.cat     1 <0>         0.0000
     14 C14        -0.3604   -1.7581    1.2151 C.3       1 <0>         0.0000
     15 C15        -0.1330   -0.9332    3.6210 C.3       1 <0>         0.0000
     16 C16         0.6048   -1.2838    2.3146 C.3       1 <0>         0.0000
     17 N1          0.6445   -1.0395   -0.8669 N.pl3     1 <0>         0.0000
     18 N2          0.8484   -3.2908   -0.2996 N.pl3     1 <0>         0.0000
     19 O1         -1.3923   -0.8144    0.9226 O.3       1 <0>         0.0000
     20 H1          3.4545    0.8050    7.2813 H         1 <0>         0.0000
     21 H2          2.4398    2.4037    5.6666 H         1 <0>         0.0000
     22 H3          2.7845   -1.5906    7.2320 H         1 <0>         0.0000
     23 H4          0.2631    3.4990   -1.5797 H         1 <0>         0.0000
     24 H5         -1.6158    3.6456    0.0426 H         1 <0>         0.0000
     25 H6          0.7747    1.6109    4.0110 H         1 <0>         0.0000
     26 H7          1.1209   -2.3848    5.5771 H         1 <0>         0.0000
     27 H8          1.3661    1.3123   -2.0144 H         1 <0>         0.0000
     28 H9         -2.3940    1.6006    1.2555 H         1 <0>         0.0000
     29 H10        -0.8903   -2.6590    1.5350 H         1 <0>         0.0000
     30 H11        -0.6712   -1.8169    3.9821 H         1 <0>         0.0000
     31 H12        -0.8832   -0.1652    3.4130 H         1 <0>         0.0000
     32 H13         1.1667   -0.4116    1.9649 H         1 <0>         0.0000
     33 H14         1.3377   -2.0764    2.5052 H         1 <0>         0.0000
     34 H15         1.1885   -1.1667   -1.7174 H         1 <0>         0.0000
     35 H16         1.4053   -3.5331   -1.1136 H         1 <0>         0.0000
     36 H17         0.6357   -4.0412    0.3480 H         1 <0>         0.0000
@<TRIPOS>BOND
     1    1    3 ar
     2    1    2 ar
     3    1   20 1
     4    2    6 ar
     5    2   21 1
     6    3    7 ar
     7    3   22 1
     8    4    5 ar
     9    4    8 ar
    10    4   23 1
    11    5    9 ar
    12    5   24 1
    13    6   10 ar
    14    6   25 1
    15    7   10 ar
    16    7   26 1
    17    8   11 ar
    18    8   27 1
    19    9   12 ar
    20    9   28 1
    21   10   15 1
    22   11   12 ar
    23   11   17 1
    24   12   19 1
    25   13   14 1
    26   13   17 1
    27   13   18 2
    28   14   16 1
    29   14   19 1
    30   14   29 1
    31   15   16 1
    32   15   30 1
    33   15   31 1
    34   16   32 1
    35   16   33 1
    36   17   34 1
    37   18   35 1
    38   18   36 1
