@<TRIPOS>MOLECULE
*****
   46    49     0     0     0
SMALL
NO_CHARGES

@<TRIPOS>ATOM
      1 C1         -4.0005    3.0683    6.1009 C.ar      1 <0>         0.0000
      2 C2         -5.2659    1.4100    7.3083 C.ar      1 <0>         0.0000
      3 C3         -4.4500    4.0641    6.9725 C.ar      1 <0>         0.0000
      4 C4         -5.7288    2.3890    8.1923 C.ar      1 <0>         0.0000
      5 C5         -4.3969    1.7313    6.2552 C.ar      1 <0>         0.0000
      6 C6         -5.3097    3.7021    8.0047 C.ar      1 <0>         0.0000
      7 C7         -4.0819   -2.3934    2.4177 C.2       1 <0>         0.0000
      8 C8         -3.6723   -0.2123    2.0361 C.2       1 <0>         0.0000
      9 C9         -1.0821   -1.5004    1.0454 C.2       1 <0>         0.0000
     10 C10        -4.0246   -3.8676    2.1768 C.3       1 <0>         0.0000
     11 C11        -2.7632   -4.2312    1.3736 C.3       1 <0>         0.0000
     12 C12        -2.6180   -3.3186    0.1461 C.3       1 <0>         0.0000
     13 C13         0.9043   -0.0134    0.7171 C.3       1 <0>         0.0000
     14 C14        -0.7869    0.5004   -0.5605 C.3       1 <0>         0.0000
     15 C15        -2.4935   -1.8285    0.5232 C.3       1 <0>         0.0000
     16 C16         0.5777    1.1429   -0.2457 C.3       1 <0>         0.0000
     17 C17        -3.9480    0.6762    5.2723 C.3       1 <0>         0.0000
     18 C18        -4.9019    0.5974    4.0656 C.3       1 <0>         0.0000
     19 N1         -4.7176   -1.7663    3.3682 N.2       1 <0>         0.0000
     20 N2         -3.4633   -1.5080    1.5573 N.am      1 <0>         0.0000
     21 N3         -4.4964   -0.4161    3.1128 N.am      1 <0>         0.0000
     22 N4         -0.3512   -0.6518    0.2741 N.am      1 <0>         0.0000
     23 O1         -3.2062    0.8361    1.5775 O.2       1 <0>         0.0000
     24 O2         -0.6295   -2.0220    2.0633 O.2       1 <0>         0.0000
     25 F1         -5.7513    4.6624    8.8605 F         1 <0>         0.0000
     26 F2          1.4163    1.2247   -1.3248 F         1 <0>         0.0000
     27 F3          0.5278    2.3813    0.3173 F         1 <0>         0.0000
     28 H1         -3.3264    3.3366    5.2905 H         1 <0>         0.0000
     29 H2         -5.5827    0.3784    7.4455 H         1 <0>         0.0000
     30 H3         -4.1433    5.0999    6.8636 H         1 <0>         0.0000
     31 H4         -6.3967    2.1478    9.0137 H         1 <0>         0.0000
     32 H5         -4.0598   -4.3879    3.1369 H         1 <0>         0.0000
     33 H6         -4.9196   -4.1665    1.6156 H         1 <0>         0.0000
     34 H7         -1.8781   -4.1337    2.0062 H         1 <0>         0.0000
     35 H8         -2.8291   -5.2731    1.0454 H         1 <0>         0.0000
     36 H9         -1.7421   -3.6020   -0.4447 H         1 <0>         0.0000
     37 H10        -3.4953   -3.4318   -0.5023 H         1 <0>         0.0000
     38 H11         1.8076   -0.5782    0.4767 H         1 <0>         0.0000
     39 H12         0.8910    0.2665    1.7736 H         1 <0>         0.0000
     40 H13        -1.6371    1.0375   -0.1327 H         1 <0>         0.0000
     41 H14        -0.9376    0.2631   -1.6164 H         1 <0>         0.0000
     42 H15        -2.7167   -1.2097   -0.3491 H         1 <0>         0.0000
     43 H16        -3.9119   -0.3076    5.7501 H         1 <0>         0.0000
     44 H17        -2.9414    0.8978    4.9031 H         1 <0>         0.0000
     45 H18        -5.9185    0.3668    4.3939 H         1 <0>         0.0000
     46 H19        -4.9191    1.5496    3.5306 H         1 <0>         0.0000
@<TRIPOS>BOND
     1    1    3 ar
     2    1    5 ar
     3    1   28 1
     4    2    4 ar
     5    2    5 ar
     6    2   29 1
     7    3    6 ar
     8    3   30 1
     9    4    6 ar
    10    4   31 1
    11    5   17 1
    12    6   25 1
    13    7   10 1
    14    7   19 2
    15    7   20 1
    16    8   20 am
    17    8   21 am
    18    8   23 2
    19    9   15 1
    20    9   22 am
    21    9   24 2
    22   10   11 1
    23   10   32 1
    24   10   33 1
    25   11   12 1
    26   11   34 1
    27   11   35 1
    28   12   15 1
    29   12   36 1
    30   12   37 1
    31   13   16 1
    32   13   22 1
    33   13   38 1
    34   13   39 1
    35   14   16 1
    36   14   22 1
    37   14   40 1
    38   14   41 1
    39   15   20 1
    40   15   42 1
    41   16   26 1
    42   16   27 1
    43   17   18 1
    44   17   43 1
    45   17   44 1
    46   18   21 1
    47   18   45 1
    48   18   46 1
    49   19   21 1
