@<TRIPOS>MOLECULE
*****
   14    13     0     0     0
SMALL
NO_CHARGES

@<TRIPOS>ATOM
      1 C1         -1.6885   -0.7962   -2.2546 C.2       1 <0>         0.0000
      2 C2         -1.5467    1.0766    0.7040 C.2       1 <0>         0.0000
      3 C3          0.4515    1.2858    2.2425 C.3       1 <0>         0.0000
      4 N1         -1.1446   -0.3179   -1.1886 N.2       1 <0>         0.0000
      5 N2         -0.2408    0.7943    1.0671 N.pl3     1 <0>         0.0000
      6 N3         -1.9700    0.4799   -0.4686 N.pl3     1 <0>         0.0000
      7 S1         -2.6107    2.0565    1.5570 S.2       1 <0>         0.0000
      8 H1         -1.1705   -1.4648   -2.9640 H         1 <0>         0.0000
      9 H2         -2.7315   -0.5367   -2.4943 H         1 <0>         0.0000
     10 H3          0.9544    2.2294    2.0152 H         1 <0>         0.0000
     11 H4          1.1991    0.5592    2.5724 H         1 <0>         0.0000
     12 H5         -0.2583    1.4527    3.0571 H         1 <0>         0.0000
     13 H6          0.2841    0.1833    0.4487 H         1 <0>         0.0000
     14 H7         -2.9124    0.6282   -0.8164 H         1 <0>         0.0000
@<TRIPOS>BOND
     1    1    4 2
     2    1    8 1
     3    1    9 1
     4    2    5 1
     5    2    6 1
     6    2    7 2
     7    3    5 1
     8    3   10 1
     9    3   11 1
    10    3   12 1
    11    4    6 1
    12    5   13 1
    13    6   14 1
