@<TRIPOS>MOLECULE
*****
   16    16     0     0     0
SMALL
NO_CHARGES

@<TRIPOS>ATOM
      1 C1         -0.7699   -0.7308    1.8386 C.2       1 <0>         0.0000
      2 C2         -0.2940   -0.8576    0.5928 C.2       1 <0>         0.0000
      3 C3         -1.1566   -1.8847    2.6124 C.2       1 <0>         0.0000
      4 C4         -0.1600   -2.2175   -0.0083 C.2       1 <0>         0.0000
      5 C5         -1.0384   -3.1067    2.0780 C.2       1 <0>         0.0000
      6 C6         -0.3226   -4.7867    3.5072 C.3       1 <0>         0.0000
      7 N1         -0.5536   -3.2713    0.8025 N.am      1 <0>         0.0000
      8 O1          0.2741   -2.3510   -1.1496 O.2       1 <0>         0.0000
      9 O2         -1.3894   -4.2433    2.7628 O.3       1 <0>         0.0000
     10 H1         -0.8760    0.2472    2.2946 H         1 <0>         0.0000
     11 H2         -0.0027    0.0005   -0.0006 H         1 <0>         0.0000
     12 H3         -1.5375   -1.7328    3.6156 H         1 <0>         0.0000
     13 H4         -0.6615   -5.6856    4.0281 H         1 <0>         0.0000
     14 H5          0.0335   -4.0470    4.2286 H         1 <0>         0.0000
     15 H6          0.4899   -5.0481    2.8252 H         1 <0>         0.0000
     16 H7         -0.4797   -4.2147    0.4343 H         1 <0>         0.0000
@<TRIPOS>BOND
     1    1    2 2
     2    1    3 1
     3    1   10 1
     4    2    4 1
     5    2   11 1
     6    3    5 2
     7    3   12 1
     8    4    7 am
     9    4    8 2
    10    5    7 1
    11    5    9 1
    12    6    9 1
    13    6   13 1
    14    6   14 1
    15    6   15 1
    16    7   16 1
