@<TRIPOS>MOLECULE
*****
   66    70     0     0     0
SMALL
NO_CHARGES

@<TRIPOS>ATOM
      1 C1          5.9747   -4.4605    1.8586 C.ar      1 <0>         0.0000
      2 C2          7.3314   -2.5411    2.3964 C.ar      1 <0>         0.0000
      3 C3          4.2062   -2.6030    0.3148 C.ar      1 <0>         0.0000
      4 C4         -0.3981    0.0816    4.4084 C.ar      1 <0>         0.0000
      5 C5          6.9526   -5.3033    2.3863 C.ar      1 <0>         0.0000
      6 C6          8.3104   -3.3767    2.9265 C.ar      1 <0>         0.0000
      7 C7          3.1575   -1.8085   -0.1477 C.ar      1 <0>         0.0000
      8 C8         -0.4891    0.2621    3.0316 C.ar      1 <0>         0.0000
      9 C9          4.9030   -0.8695    1.8568 C.ar      1 <0>         0.0000
     10 C10         1.0889   -1.5632    2.7341 C.ar      1 <0>         0.0000
     11 C11         6.1376   -3.0613    1.8587 C.ar      1 <0>         0.0000
     12 C12         5.0775   -2.1683    1.3334 C.ar      1 <0>         0.0000
     13 C13         0.4644   -0.8723    4.9722 C.ar      1 <0>         0.0000
     14 C14         3.8680   -0.0644    1.3990 C.ar      1 <0>         0.0000
     15 C15         1.2230   -1.7012    4.1222 C.ar      1 <0>         0.0000
     16 C16         8.1222   -4.7637    2.9267 C.ar      1 <0>         0.0000
     17 C17         2.9777   -0.5538    0.4372 C.ar      1 <0>         0.0000
     18 C18         0.2672   -0.5696    2.2023 C.ar      1 <0>         0.0000
     19 C19         1.5508   -4.6961    3.1450 C.2       1 <0>         0.0000
     20 C20         0.5971   -0.9273    6.4821 C.3       1 <0>         0.0000
     21 C21         1.3693   -2.1474    6.9898 C.3       1 <0>         0.0000
     22 C22         2.6117   -2.3747    6.1252 C.3       1 <0>         0.0000
     23 C23         2.2614    1.6394    0.8981 C.3       1 <0>         0.0000
     24 C24         2.2303   -2.7046    4.6713 C.3       1 <0>         0.0000
     25 C25         3.4995    1.3513    1.8108 C.3       1 <0>         0.0000
     26 C26         3.1504    1.4433    3.3074 C.3       1 <0>         0.0000
     27 C27         4.6405    2.3318    1.4820 C.3       1 <0>         0.0000
     28 C28         1.7225   -4.1651    4.5601 C.3       1 <0>         0.0000
     29 C29         9.1616   -5.6535    3.5503 C.3       1 <0>         0.0000
     30 N1          1.9191    0.3668    0.1939 N.pl3     1 <0>         0.0000
     31 O1          0.5312   -5.1728    2.7100 O.2       1 <0>         0.0000
     32 O2          0.2340   -1.4762   -0.3067 O.2       1 <0>         0.0000
     33 O3         -0.5667    0.9057    0.1792 O.2       1 <0>         0.0000
     34 O4          2.6684   -4.6388    2.3533 O.3       1 <0>         0.0000
     35 F1          9.0654   -6.9357    3.1257 F         1 <0>         0.0000
     36 F2         10.4224   -5.2309    3.2798 F         1 <0>         0.0000
     37 F3          9.0497   -5.6820    4.9087 F         1 <0>         0.0000
     38 S1          0.3201   -0.2263    0.4415 S.o2      1 <0>         0.0000
     39 H1          5.0761   -4.9058    1.4430 H         1 <0>         0.0000
     40 H2          7.5125   -1.4711    2.3719 H         1 <0>         0.0000
     41 H3          4.3466   -3.5811   -0.1330 H         1 <0>         0.0000
     42 H4         -0.9865    0.7160    5.0679 H         1 <0>         0.0000
     43 H5          6.8032   -6.3783    2.3754 H         1 <0>         0.0000
     44 H6          9.2282   -2.9532    3.3234 H         1 <0>         0.0000
     45 H7          2.4734   -2.1698   -0.9056 H         1 <0>         0.0000
     46 H8         -1.1224    1.0288    2.5975 H         1 <0>         0.0000
     47 H9          5.5533   -0.5099    2.6498 H         1 <0>         0.0000
     48 H10         1.6531   -2.2069    2.0695 H         1 <0>         0.0000
     49 H11         1.1164   -0.0150    6.8062 H         1 <0>         0.0000
     50 H12        -0.3990   -0.8841    6.9361 H         1 <0>         0.0000
     51 H13         1.6545   -1.9958    8.0357 H         1 <0>         0.0000
     52 H14         0.7277   -3.0353    6.9670 H         1 <0>         0.0000
     53 H15         3.2247   -1.4645    6.1336 H         1 <0>         0.0000
     54 H16         3.2327   -3.1789    6.5343 H         1 <0>         0.0000
     55 H17         1.4038    2.0076    1.4631 H         1 <0>         0.0000
     56 H18         2.4973    2.3841    0.1342 H         1 <0>         0.0000
     57 H19         3.1431   -2.6041    4.0682 H         1 <0>         0.0000
     58 H20         2.8600    2.4665    3.5709 H         1 <0>         0.0000
     59 H21         4.0164    1.1731    3.9217 H         1 <0>         0.0000
     60 H22         2.3285    0.7763    3.5704 H         1 <0>         0.0000
     61 H23         4.3307    3.3640    1.6816 H         1 <0>         0.0000
     62 H24         4.9324    2.2570    0.4300 H         1 <0>         0.0000
     63 H25         5.5238    2.1227    2.0944 H         1 <0>         0.0000
     64 H26         2.4379   -4.8228    5.0715 H         1 <0>         0.0000
     65 H27         0.7562   -4.2759    5.0520 H         1 <0>         0.0000
     66 H28         3.4014   -4.2153    2.8329 H         1 <0>         0.0000
@<TRIPOS>BOND
     1    1    5 ar
     2    1   11 ar
     3    1   39 1
     4    2    6 ar
     5    2   11 ar
     6    2   40 1
     7    3    7 ar
     8    3   12 ar
     9    3   41 1
    10    4    8 ar
    11    4   13 ar
    12    4   42 1
    13    5   16 ar
    14    5   43 1
    15    6   16 ar
    16    6   44 1
    17    7   17 ar
    18    7   45 1
    19    8   18 ar
    20    8   46 1
    21    9   12 ar
    22    9   14 ar
    23    9   47 1
    24   10   15 ar
    25   10   18 ar
    26   10   48 1
    27   11   12 1
    28   13   15 ar
    29   13   20 1
    30   14   17 ar
    31   14   25 1
    32   15   24 1
    33   16   29 1
    34   17   30 1
    35   18   38 1
    36   19   28 1
    37   19   31 2
    38   19   34 1
    39   20   21 1
    40   20   49 1
    41   20   50 1
    42   21   22 1
    43   21   51 1
    44   21   52 1
    45   22   24 1
    46   22   53 1
    47   22   54 1
    48   23   25 1
    49   23   30 1
    50   23   55 1
    51   23   56 1
    52   24   28 1
    53   24   57 1
    54   25   26 1
    55   25   27 1
    56   26   58 1
    57   26   59 1
    58   26   60 1
    59   27   61 1
    60   27   62 1
    61   27   63 1
    62   28   64 1
    63   28   65 1
    64   29   35 1
    65   29   36 1
    66   29   37 1
    67   30   38 1
    68   32   38 2
    69   33   38 2
    70   34   66 1
