@<TRIPOS>MOLECULE
*****
   36    38     0     0     0
SMALL
NO_CHARGES

@<TRIPOS>ATOM
      1 C1         -6.5000    4.0254   -5.6413 C.ar      1 <0>         0.0000
      2 C2         -7.2325    4.9000   -4.8078 C.ar      1 <0>         0.0000
      3 C3         -5.4190    3.2944   -5.1548 C.ar      1 <0>         0.0000
      4 C4         -6.9006    5.0616   -3.4637 C.ar      1 <0>         0.0000
      5 C5         -4.1939    3.4169   -1.7106 C.2       1 <0>         0.0000
      6 C6         -5.0577    3.4457   -3.8042 C.ar      1 <0>         0.0000
      7 C7         -4.0130    2.8836   -2.9752 C.2       1 <0>         0.0000
      8 C8         -5.8121    4.3246   -2.9804 C.ar      1 <0>         0.0000
      9 C9         -3.0588    1.8473   -3.4298 C.2       1 <0>         0.0000
     10 C10         1.0453    1.5544   -2.0800 C.3       1 <0>         0.0000
     11 C11         0.2882    2.8671   -2.3742 C.3       1 <0>         0.0000
     12 C12         0.1004    0.3381   -2.1838 C.3       1 <0>         0.0000
     13 C13        -1.1930    2.7630   -1.9964 C.3       1 <0>         0.0000
     14 C14        -1.0132    0.5725   -3.2033 C.3       1 <0>         0.0000
     15 C15        -5.7752    5.0082   -0.5566 C.3       1 <0>         0.0000
     16 N1         -5.2684    4.2793   -1.7030 N.pl3     1 <0>         0.0000
     17 N2         -1.8487    1.7101   -2.7838 N.am      1 <0>         0.0000
     18 O1         -3.3615    1.0898   -4.3634 O.2       1 <0>         0.0000
     19 H1         -6.7946    3.9177   -6.6820 H         1 <0>         0.0000
     20 H2         -8.0726    5.4531   -5.2198 H         1 <0>         0.0000
     21 H3         -4.8684    2.6048   -5.7851 H         1 <0>         0.0000
     22 H4         -7.4684    5.7312   -2.8232 H         1 <0>         0.0000
     23 H5         -3.6552    3.2229   -0.7929 H         1 <0>         0.0000
     24 H6          1.4902    1.5888   -1.0794 H         1 <0>         0.0000
     25 H7          1.8760    1.4489   -2.7861 H         1 <0>         0.0000
     26 H8          0.7381    3.7070   -1.8340 H         1 <0>         0.0000
     27 H9          0.3494    3.1094   -3.4409 H         1 <0>         0.0000
     28 H10         0.6575   -0.5624   -2.4613 H         1 <0>         0.0000
     29 H11        -0.3585    0.1324   -1.2096 H         1 <0>         0.0000
     30 H12        -1.2842    2.5601   -0.9185 H         1 <0>         0.0000
     31 H13        -1.6928    3.7120   -2.1924 H         1 <0>         0.0000
     32 H14        -0.5940    0.7542   -4.2027 H         1 <0>         0.0000
     33 H15        -1.6592   -0.3024   -3.2949 H         1 <0>         0.0000
     34 H16        -5.7362    6.0886   -0.7344 H         1 <0>         0.0000
     35 H17        -6.8112    4.7241   -0.3423 H         1 <0>         0.0000
     36 H18        -5.1627    4.7770    0.3166 H         1 <0>         0.0000
@<TRIPOS>BOND
     1    1    2 ar
     2    1    3 ar
     3    1   19 1
     4    2    4 ar
     5    2   20 1
     6    3    6 ar
     7    3   21 1
     8    4    8 ar
     9    4   22 1
    10    5    7 2
    11    5   16 1
    12    5   23 1
    13    6    7 1
    14    6    8 ar
    15    7    9 1
    16    8   16 1
    17    9   17 am
    18    9   18 2
    19   10   12 1
    20   10   11 1
    21   10   24 1
    22   10   25 1
    23   11   13 1
    24   11   26 1
    25   11   27 1
    26   12   14 1
    27   12   28 1
    28   12   29 1
    29   13   17 1
    30   13   30 1
    31   13   31 1
    32   14   17 1
    33   14   32 1
    34   14   33 1
    35   15   16 1
    36   15   34 1
    37   15   35 1
    38   15   36 1
