@<TRIPOS>MOLECULE
*****
   30    30     0     0     0
SMALL
NO_CHARGES

@<TRIPOS>ATOM
      1 C1          5.7751   -1.9024   -1.6328 C.ar      1 <0>         0.0000
      2 C2          5.5456   -0.5256   -1.5406 C.ar      1 <0>         0.0000
      3 C3          5.2009   -2.7637   -0.6922 C.ar      1 <0>         0.0000
      4 C4          4.7478   -0.0108   -0.5153 C.ar      1 <0>         0.0000
      5 C5          4.4013   -2.2462    0.3307 C.ar      1 <0>         0.0000
      6 C6          4.1672   -0.8679    0.4332 C.ar      1 <0>         0.0000
      7 C7          6.2052    1.4185    2.0593 C.2       1 <0>         0.0000
      8 C8          7.5810    0.9036    2.4408 C.3       1 <0>         0.0000
      9 C9          2.8787    1.2862    3.4280 C.3       1 <0>         0.0000
     10 C10         3.2483   -0.3418    1.5185 C.3       1 <0>         0.0000
     11 C11         3.7621    0.9315    2.2270 C.3       1 <0>         0.0000
     12 N1          5.1493    0.7730    2.6670 N.am      1 <0>         0.0000
     13 O1          6.0497    2.3362    1.2582 O.2       1 <0>         0.0000
     14 O2          3.2605    2.5156    4.0309 O.3       1 <0>         0.0000
     15 O3          1.9165   -0.1180    1.0263 O.3       1 <0>         0.0000
     16 H1          6.3990   -2.3004   -2.4289 H         1 <0>         0.0000
     17 H2          5.9972    0.1523   -2.2601 H         1 <0>         0.0000
     18 H3          5.3733   -3.8351   -0.7564 H         1 <0>         0.0000
     19 H4          4.6151    1.0644   -0.4410 H         1 <0>         0.0000
     20 H5          3.9483   -2.9199    1.0551 H         1 <0>         0.0000
     21 H6          7.9172    0.2136    1.6596 H         1 <0>         0.0000
     22 H7          8.2789    1.7418    2.4734 H         1 <0>         0.0000
     23 H8          7.5961    0.3765    3.3994 H         1 <0>         0.0000
     24 H9          2.9132    0.4614    4.1607 H         1 <0>         0.0000
     25 H10         1.8446    1.3995    3.1002 H         1 <0>         0.0000
     26 H11         3.1265   -1.1266    2.2754 H         1 <0>         0.0000
     27 H12         3.7602    1.7760    1.5350 H         1 <0>         0.0000
     28 H13         5.3685   -0.0599    3.2015 H         1 <0>         0.0000
     29 H14         4.2247    2.4889    4.1504 H         1 <0>         0.0000
     30 H15         1.9913    0.2853    0.1462 H         1 <0>         0.0000
@<TRIPOS>BOND
     1    1    3 ar
     2    1    2 ar
     3    1   16 1
     4    2    4 ar
     5    2   17 1
     6    3    5 ar
     7    3   18 1
     8    4    6 ar
     9    4   19 1
    10    5    6 ar
    11    5   20 1
    12    6   10 1
    13    7    8 1
    14    7   12 am
    15    7   13 2
    16    8   21 1
    17    8   22 1
    18    8   23 1
    19    9   11 1
    20    9   14 1
    21    9   24 1
    22    9   25 1
    23   10   11 1
    24   10   15 1
    25   10   26 1
    26   11   12 1
    27   11   27 1
    28   12   28 1
    29   14   29 1
    30   15   30 1
