@<TRIPOS>MOLECULE
*****
   30    30     0     0     0
SMALL
NO_CHARGES

@<TRIPOS>ATOM
      1 C1          5.4511   -1.8359   -1.5586 C.ar      1 <0>         0.0000
      2 C2          5.6245   -2.1326   -0.2017 C.ar      1 <0>         0.0000
      3 C3          4.4036   -0.9974   -1.9514 C.ar      1 <0>         0.0000
      4 C4          4.7592   -1.5853    0.7487 C.ar      1 <0>         0.0000
      5 C5          3.5374   -0.4513   -0.9977 C.ar      1 <0>         0.0000
      6 C6          3.7129   -0.7353    0.3615 C.ar      1 <0>         0.0000
      7 C7          1.8181    1.4917    3.9326 C.2       1 <0>         0.0000
      8 C8          1.6174    1.9727    5.3574 C.3       1 <0>         0.0000
      9 C9          3.6935    2.2890    1.4454 C.3       1 <0>         0.0000
     10 C10         2.8051   -0.1211    1.4156 C.3       1 <0>         0.0000
     11 C11         3.5913    0.9636    2.2096 C.3       1 <0>         0.0000
     12 N1          3.0993    1.1886    3.5818 N.am      1 <0>         0.0000
     13 O1          0.8500    1.3811    3.1672 O.2       1 <0>         0.0000
     14 O2          4.6121    3.1842    2.0913 O.3       1 <0>         0.0000
     15 O3          1.6530    0.3970    0.7803 O.3       1 <0>         0.0000
     16 H1          6.1209   -2.2619   -2.3013 H         1 <0>         0.0000
     17 H2          6.4267   -2.7952    0.1138 H         1 <0>         0.0000
     18 H3          4.2559   -0.7709   -3.0046 H         1 <0>         0.0000
     19 H4          4.8928   -1.8336    1.8007 H         1 <0>         0.0000
     20 H5          2.7122    0.1861   -1.2961 H         1 <0>         0.0000
     21 H6          1.3522    3.0340    5.3302 H         1 <0>         0.0000
     22 H7          0.7750    1.4323    5.7943 H         1 <0>         0.0000
     23 H8          2.4990    1.8449    5.9911 H         1 <0>         0.0000
     24 H9          2.7269    2.7930    1.4379 H         1 <0>         0.0000
     25 H10         3.9837    2.0971    0.4068 H         1 <0>         0.0000
     26 H11         2.5315   -0.9075    2.1355 H         1 <0>         0.0000
     27 H12         4.6053    0.5754    2.3468 H         1 <0>         0.0000
     28 H13         3.8108    1.4970    4.2316 H         1 <0>         0.0000
     29 H14         5.5092    2.9457    1.8118 H         1 <0>         0.0000
     30 H15         1.1033    0.7772    1.5022 H         1 <0>         0.0000
@<TRIPOS>BOND
     1    1    3 ar
     2    1    2 ar
     3    1   16 1
     4    2    4 ar
     5    2   17 1
     6    3    5 ar
     7    3   18 1
     8    4    6 ar
     9    4   19 1
    10    5    6 ar
    11    5   20 1
    12    6   10 1
    13    7    8 1
    14    7   12 am
    15    7   13 2
    16    8   21 1
    17    8   22 1
    18    8   23 1
    19    9   11 1
    20    9   14 1
    21    9   24 1
    22    9   25 1
    23   10   11 1
    24   10   15 1
    25   10   26 1
    26   11   12 1
    27   11   27 1
    28   12   28 1
    29   14   29 1
    30   15   30 1
