@<TRIPOS>MOLECULE
*****
   25    24     0     0     0
SMALL
NO_CHARGES

@<TRIPOS>ATOM
      1 C1          2.3056   -0.2674    2.4440 C.2       1 <0>         0.0000
      2 C2         -0.1243   -2.2441    2.1842 C.2       1 <0>         0.0000
      3 C3          3.0245    0.1796    3.7068 C.3       1 <0>         0.0000
      4 C4          0.3440   -0.7461    0.1421 C.3       1 <0>         0.0000
      5 C5         -1.1848   -4.4391    2.1023 C.3       1 <0>         0.0000
      6 C6         -2.2314   -2.6017    0.8463 C.3       1 <0>         0.0000
      7 C7         -0.0061   -0.7935    1.6400 C.3       1 <0>         0.0000
      8 N1          0.9370   -0.0428    2.4649 N.am      1 <0>         0.0000
      9 N2         -1.1334   -3.0367    1.6982 N.am      1 <0>         0.0000
     10 O1          2.9052   -0.7574    1.4946 O.2       1 <0>         0.0000
     11 O2          0.6775   -2.6539    3.0241 O.2       1 <0>         0.0000
     12 H1          3.0309   -0.6602    4.4100 H         1 <0>         0.0000
     13 H2          4.0563    0.4323    3.4595 H         1 <0>         0.0000
     14 H3          2.5426    1.0343    4.1920 H         1 <0>         0.0000
     15 H4          1.2250   -1.3478   -0.0726 H         1 <0>         0.0000
     16 H5         -0.4940   -1.1016   -0.4616 H         1 <0>         0.0000
     17 H6          0.5609    0.2865   -0.1440 H         1 <0>         0.0000
     18 H7         -2.0279   -4.6192    2.7819 H         1 <0>         0.0000
     19 H8         -0.2576   -4.6965    2.6107 H         1 <0>         0.0000
     20 H9         -1.3085   -5.0736    1.2170 H         1 <0>         0.0000
     21 H10        -2.1180   -2.9746   -0.1799 H         1 <0>         0.0000
     22 H11        -2.3139   -1.5170    0.8133 H         1 <0>         0.0000
     23 H12        -3.1738   -2.9925    1.2474 H         1 <0>         0.0000
     24 H13        -0.9708   -0.2918    1.7791 H         1 <0>         0.0000
     25 H14         0.5832    0.1428    3.3960 H         1 <0>         0.0000
@<TRIPOS>BOND
     1    1    3 1
     2    1    8 am
     3    1   10 2
     4    2    7 1
     5    2    9 am
     6    2   11 2
     7    3   12 1
     8    3   13 1
     9    3   14 1
    10    4    7 1
    11    4   15 1
    12    4   16 1
    13    4   17 1
    14    5    9 1
    15    5   18 1
    16    5   19 1
    17    5   20 1
    18    6    9 1
    19    6   21 1
    20    6   22 1
    21    6   23 1
    22    7    8 1
    23    7   24 1
    24    8   25 1
