@<TRIPOS>MOLECULE
*****
   25    26     0     0     0
SMALL
NO_CHARGES

@<TRIPOS>ATOM
      1 C1          4.7296   -2.0738   -5.3508 C.ar      1 <0>         0.0000
      2 C2          2.7933   -2.9450   -6.1130 C.ar      1 <0>         0.0000
      3 C3          4.0733   -1.5684   -4.2371 C.ar      1 <0>         0.0000
      4 C4          2.6648   -1.7422   -4.1479 C.ar      1 <0>         0.0000
      5 C5          0.1718   -0.2095   -1.0183 C.3       1 <0>         0.0000
      6 C6          1.5718    0.3609   -1.2768 C.3       1 <0>         0.0000
      7 C7          0.0916   -1.6655   -1.4935 C.3       1 <0>         0.0000
      8 C8          1.9731    0.1609   -2.7375 C.3       1 <0>         0.0000
      9 C9          0.5416   -1.8135   -2.9500 C.3       1 <0>         0.0000
     10 N1          4.0997   -2.7585   -6.3204 N.ar      1 <0>         0.0000
     11 N2          2.0580   -2.4743   -5.1046 N.ar      1 <0>         0.0000
     12 N3          1.8971   -1.2648   -3.1073 N.pl3     1 <0>         0.0000
     13 Cl1         5.0428   -0.8682   -2.9504 Cl        1 <0>         0.0000
     14 H1          5.8057   -1.9443   -5.4495 H         1 <0>         0.0000
     15 H2          2.2622   -3.5386   -6.8555 H         1 <0>         0.0000
     16 H3         -0.5687    0.3918   -1.5635 H         1 <0>         0.0000
     17 H4         -0.0833   -0.1383    0.0447 H         1 <0>         0.0000
     18 H5          1.6050    1.4302   -1.0394 H         1 <0>         0.0000
     19 H6          2.3083   -0.1419   -0.6389 H         1 <0>         0.0000
     20 H7          0.7327   -2.2941   -0.8636 H         1 <0>         0.0000
     21 H8         -0.9315   -2.0468   -1.3997 H         1 <0>         0.0000
     22 H9          1.2878    0.7251   -3.3921 H         1 <0>         0.0000
     23 H10         2.9760    0.5406   -2.9158 H         1 <0>         0.0000
     24 H11         0.5552   -2.8614   -3.2481 H         1 <0>         0.0000
     25 H12        -0.1586   -1.2968   -3.6249 H         1 <0>         0.0000
@<TRIPOS>BOND
     1    1    3 ar
     2    1   10 ar
     3    1   14 1
     4    2   10 ar
     5    2   11 ar
     6    2   15 1
     7    3    4 ar
     8    3   13 1
     9    4   11 ar
    10    4   12 1
    11    5    7 1
    12    5    6 1
    13    5   16 1
    14    5   17 1
    15    6    8 1
    16    6   18 1
    17    6   19 1
    18    7    9 1
    19    7   20 1
    20    7   21 1
    21    8   12 1
    22    8   22 1
    23    8   23 1
    24    9   12 1
    25    9   24 1
    26    9   25 1
