@<TRIPOS>MOLECULE
*****
   23    23     0     0     0
SMALL
NO_CHARGES

@<TRIPOS>ATOM
      1 C1          1.0743   -3.6202   -0.7686 C.2       1 <0>         0.0000
      2 C2          1.3891   -1.4867   -0.6996 C.2       1 <0>         0.0000
      3 C3          0.0275   -1.6839   -0.4791 C.2       1 <0>         0.0000
      4 C4          2.1658   -0.2233   -0.7586 C.2       1 <0>         0.0000
      5 C5         -1.2071   -0.8851   -0.2226 C.2       1 <0>         0.0000
      6 C6          4.4395    0.6854   -1.0933 C.3       1 <0>         0.0000
      7 C7         -2.2155    1.3120    0.0745 C.3       1 <0>         0.0000
      8 N1          2.0200   -2.7048   -0.8771 N.2       1 <0>         0.0000
      9 N2         -0.1379   -3.0480   -0.5292 N.pl3     1 <0>         0.0000
     10 N3          3.4866   -0.4064   -0.9936 N.am      1 <0>         0.0000
     11 N4         -1.0686    0.4521   -0.1723 N.am      1 <0>         0.0000
     12 O1          1.6474    0.8992   -0.6055 O.2       1 <0>         0.0000
     13 O2         -2.2821   -1.4908   -0.0723 O.2       1 <0>         0.0000
     14 H1          1.2159   -4.6896   -0.8543 H         1 <0>         0.0000
     15 H2          4.9097    0.7027   -2.0828 H         1 <0>         0.0000
     16 H3          5.2207    0.5899   -0.3312 H         1 <0>         0.0000
     17 H4          3.9028    1.6214   -0.9380 H         1 <0>         0.0000
     18 H5         -2.9898    1.1553   -0.6831 H         1 <0>         0.0000
     19 H6         -1.8826    2.3508    0.0407 H         1 <0>         0.0000
     20 H7         -2.6569    1.1061    1.0552 H         1 <0>         0.0000
     21 H8         -1.0504   -3.4763   -0.3982 H         1 <0>         0.0000
     22 H9          3.7891   -1.3690   -1.1015 H         1 <0>         0.0000
     23 H10        -0.1277    0.8400   -0.3077 H         1 <0>         0.0000
@<TRIPOS>BOND
     1    1    8 2
     2    1    9 1
     3    1   14 1
     4    2    3 2
     5    2    4 1
     6    2    8 1
     7    3    5 1
     8    3    9 1
     9    4   10 am
    10    4   12 2
    11    5   11 am
    12    5   13 2
    13    6   10 1
    14    6   15 1
    15    6   16 1
    16    6   17 1
    17    7   11 1
    18    7   18 1
    19    7   19 1
    20    7   20 1
    21    9   21 1
    22   10   22 1
    23   11   23 1
