@<TRIPOS>MOLECULE
*****
   25    24     0     0     0
SMALL
NO_CHARGES

@<TRIPOS>ATOM
      1 C1          0.7163    1.1001    2.4154 C.2       1 <0>         0.0000
      2 C2         -0.9271   -2.2376    1.8921 C.2       1 <0>         0.0000
      3 C3          1.7998    1.5013    3.4040 C.3       1 <0>         0.0000
      4 C4         -0.5318   -0.5663    0.0097 C.3       1 <0>         0.0000
      5 C5         -0.2263   -4.5174    2.3165 C.3       1 <0>         0.0000
      6 C6          1.3917   -2.9967    1.2639 C.3       1 <0>         0.0000
      7 C7         -0.6420   -0.7729    1.5302 C.3       1 <0>         0.0000
      8 N1          0.5182   -0.2532    2.2716 N.am      1 <0>         0.0000
      9 N2          0.1156   -3.1390    1.9642 N.am      1 <0>         0.0000
     10 O1          0.0745    1.9334    1.7803 O.2       1 <0>         0.0000
     11 O2         -2.0848   -2.5695    2.1468 O.2       1 <0>         0.0000
     12 H1          2.4851    2.1942    2.9100 H         1 <0>         0.0000
     13 H2          1.3339    2.0375    4.2360 H         1 <0>         0.0000
     14 H3          2.3692    0.6553    3.7998 H         1 <0>         0.0000
     15 H4          0.3388   -1.0691   -0.4182 H         1 <0>         0.0000
     16 H5         -1.4321   -0.9605   -0.4711 H         1 <0>         0.0000
     17 H6         -0.4601    0.5014   -0.2020 H         1 <0>         0.0000
     18 H7         -0.4954   -5.1022    1.4267 H         1 <0>         0.0000
     19 H8         -1.0756   -4.5186    2.9976 H         1 <0>         0.0000
     20 H9          0.6379   -4.9851    2.7977 H         1 <0>         0.0000
     21 H10         2.1874   -3.4456    1.8681 H         1 <0>         0.0000
     22 H11         1.6408   -1.9522    1.0962 H         1 <0>         0.0000
     23 H12         1.3668   -3.5140    0.2949 H         1 <0>         0.0000
     24 H13        -1.5329   -0.2374    1.8676 H         1 <0>         0.0000
     25 H14         0.8990   -0.8487    2.9961 H         1 <0>         0.0000
@<TRIPOS>BOND
     1    1    3 1
     2    1    8 am
     3    1   10 2
     4    2    7 1
     5    2    9 am
     6    2   11 2
     7    3   12 1
     8    3   13 1
     9    3   14 1
    10    4    7 1
    11    4   15 1
    12    4   16 1
    13    4   17 1
    14    5    9 1
    15    5   18 1
    16    5   19 1
    17    5   20 1
    18    6    9 1
    19    6   21 1
    20    6   22 1
    21    6   23 1
    22    7    8 1
    23    7   24 1
    24    8   25 1
