@<TRIPOS>MOLECULE
*****
   25    24     0     0     0
SMALL
NO_CHARGES

@<TRIPOS>ATOM
      1 C1          1.2087    0.2524    3.3507 C.2       1 <0>         0.0000
      2 C2          0.0150   -2.4758    2.3768 C.2       1 <0>         0.0000
      3 C3          2.2457    1.3407    3.5778 C.3       1 <0>         0.0000
      4 C4          0.0136   -1.2952    0.1432 C.3       1 <0>         0.0000
      5 C5          1.1374   -4.3231    3.4872 C.3       1 <0>         0.0000
      6 C6          2.5308   -2.6476    2.3479 C.3       1 <0>         0.0000
      7 C7          0.0042   -1.1051    1.6638 C.3       1 <0>         0.0000
      8 N1          1.0428   -0.1540    2.0536 N.am      1 <0>         0.0000
      9 N2          1.1903   -3.1142    2.6694 N.am      1 <0>         0.0000
     10 O1          0.5678   -0.2439    4.2742 O.2       1 <0>         0.0000
     11 O2         -1.0841   -2.9833    2.6067 O.2       1 <0>         0.0000
     12 H1          1.7432    2.2239    3.9819 H         1 <0>         0.0000
     13 H2          2.9576    0.9959    4.3321 H         1 <0>         0.0000
     14 H3          2.7917    1.6261    2.6738 H         1 <0>         0.0000
     15 H4          0.9625   -1.7131   -0.2103 H         1 <0>         0.0000
     16 H5         -0.7874   -1.9806   -0.1417 H         1 <0>         0.0000
     17 H6         -0.1566   -0.3400   -0.3658 H         1 <0>         0.0000
     18 H7          1.5288   -5.1832    2.9297 H         1 <0>         0.0000
     19 H8          0.1033   -4.5168    3.7649 H         1 <0>         0.0000
     20 H9          1.7405   -4.1861    4.3930 H         1 <0>         0.0000
     21 H10         2.9736   -2.0701    3.1703 H         1 <0>         0.0000
     22 H11         2.5402   -2.0362    1.4483 H         1 <0>         0.0000
     23 H12         3.1651   -3.5210    2.1631 H         1 <0>         0.0000
     24 H13        -0.9669   -0.7019    1.9631 H         1 <0>         0.0000
     25 H14         1.5496    0.3269    1.3225 H         1 <0>         0.0000
@<TRIPOS>BOND
     1    1    3 1
     2    1    8 am
     3    1   10 2
     4    2    7 1
     5    2    9 am
     6    2   11 2
     7    3   12 1
     8    3   13 1
     9    3   14 1
    10    4    7 1
    11    4   15 1
    12    4   16 1
    13    4   17 1
    14    5    9 1
    15    5   18 1
    16    5   19 1
    17    5   20 1
    18    6    9 1
    19    6   21 1
    20    6   22 1
    21    6   23 1
    22    7    8 1
    23    7   24 1
    24    8   25 1
