@<TRIPOS>MOLECULE
*****
   19    18     0     0     0
SMALL
NO_CHARGES

@<TRIPOS>ATOM
      1 C1          0.1580   -0.5016    0.9599 C.3       1 <0>         0.0000
      2 C2          3.7732    1.7690    6.2644 C.3       1 <0>         0.0000
      3 C3          1.6397   -0.5220    1.3061 C.3       1 <0>         0.0000
      4 C4          3.6155    0.4538    5.5253 C.3       1 <0>         0.0000
      5 C5          1.8811   -1.2098    2.6451 C.3       1 <0>         0.0000
      6 S1          3.9358    0.6752    3.7588 S.3       1 <0>         0.0000
      7 S2          3.6528   -1.2294    3.0399 S.3       1 <0>         0.0000
      8 H1         -0.2498   -1.5168    0.9211 H         1 <0>         0.0000
      9 H2         -0.4001    0.0598    1.7158 H         1 <0>         0.0000
     10 H3         -0.0115   -0.0252   -0.0110 H         1 <0>         0.0000
     11 H4          4.7836    2.1761    6.1496 H         1 <0>         0.0000
     12 H5          3.0543    2.5169    5.9130 H         1 <0>         0.0000
     13 H6          3.5974    1.6183    7.3347 H         1 <0>         0.0000
     14 H7          2.0084    0.5105    1.3349 H         1 <0>         0.0000
     15 H8          2.1807   -1.0421    0.5064 H         1 <0>         0.0000
     16 H9          2.6003    0.0661    5.6536 H         1 <0>         0.0000
     17 H10         4.3154   -0.2889    5.9198 H         1 <0>         0.0000
     18 H11         1.3526   -0.6871    3.4489 H         1 <0>         0.0000
     19 H12         1.5204   -2.2431    2.6193 H         1 <0>         0.0000
@<TRIPOS>BOND
     1    1    3 1
     2    1    8 1
     3    1    9 1
     4    1   10 1
     5    2    4 1
     6    2   11 1
     7    2   12 1
     8    2   13 1
     9    3    5 1
    10    3   14 1
    11    3   15 1
    12    4    6 1
    13    4   16 1
    14    4   17 1
    15    5    7 1
    16    5   18 1
    17    5   19 1
    18    6    7 1
