@<TRIPOS>MOLECULE
*****
   20    20     0     0     0
SMALL
NO_CHARGES

@<TRIPOS>ATOM
      1 C1          3.5148   -2.7737   -2.4298 C.ar      1 <0>         0.0000
      2 C2          4.1169   -0.1676   -2.1931 C.ar      1 <0>         0.0000
      3 C3          2.9239   -0.6907   -1.7376 C.ar      1 <0>         0.0000
      4 C4          4.9803   -1.0713   -2.7781 C.ar      1 <0>         0.0000
      5 C5          1.6266   -0.2365    0.3753 C.3       1 <0>         0.0000
      6 C6          0.5733    0.2098   -1.8711 C.3       1 <0>         0.0000
      7 C7          1.8796    0.1874   -1.0736 C.3       1 <0>         0.0000
      8 N1          2.5890   -1.9936   -1.8400 N.ar      1 <0>         0.0000
      9 N2          4.7106   -2.3863   -2.9133 N.ar      1 <0>         0.0000
     10 O1          6.1933   -0.6604   -3.2640 O.3       1 <0>         0.0000
     11 Br1         4.5478    1.6648   -2.0345 Br        1 <0>         0.0000
     12 H1          3.2721   -3.8250   -2.5255 H         1 <0>         0.0000
     13 H2          1.2454   -1.2613    0.4421 H         1 <0>         0.0000
     14 H3          0.8898    0.4234    0.8461 H         1 <0>         0.0000
     15 H4          2.5486   -0.1843    0.9651 H         1 <0>         0.0000
     16 H5          0.1388   -0.7939   -1.9391 H         1 <0>         0.0000
     17 H6          0.7515    0.5676   -2.8910 H         1 <0>         0.0000
     18 H7         -0.1746    0.8673   -1.4145 H         1 <0>         0.0000
     19 H8          2.2568    1.2184   -1.0458 H         1 <0>         0.0000
     20 H9          6.6693   -1.4152   -3.6378 H         1 <0>         0.0000
@<TRIPOS>BOND
     1    1    8 ar
     2    1    9 ar
     3    1   12 1
     4    2    3 ar
     5    2    4 ar
     6    2   11 1
     7    3    7 1
     8    3    8 ar
     9    4    9 ar
    10    4   10 1
    11    5    7 1
    12    5   13 1
    13    5   14 1
    14    5   15 1
    15    6    7 1
    16    6   16 1
    17    6   17 1
    18    6   18 1
    19    7   19 1
    20   10   20 1
