@<TRIPOS>MOLECULE
*****
   21    22     0     0     0
SMALL
NO_CHARGES

@<TRIPOS>ATOM
      1 C1         -2.9736   -1.6230    1.0217 C.2       1 <0>         0.0000
      2 C2         -3.1018   -2.1571    2.3407 C.2       1 <0>         0.0000
      3 C3         -1.7745   -0.9528    0.9791 C.2       1 <0>         0.0000
      4 C4         -1.9654   -1.7641    2.9939 C.2       1 <0>         0.0000
      5 C5          1.0690    0.1886   -0.9652 C.2       1 <0>         0.0000
      6 C6         -0.6155    1.2209    0.2982 C.3       1 <0>         0.0000
      7 C7         -1.0852   -0.2008   -0.1085 C.3       1 <0>         0.0000
      8 N1          0.5065    1.4152   -0.6154 N.am      1 <0>         0.0000
      9 N2          0.1843   -0.7992   -0.5209 N.am      1 <0>         0.0000
     10 N3         -1.5412   -1.9894    4.3422 N.pl3     1 <0>         0.0000
     11 O1         -2.3024   -2.6739    5.0422 O.3       1 <0>         0.0000
     12 O2          2.1229    0.0051   -1.5506 O.2       1 <0>         0.0000
     13 O3         -0.4710   -1.4923    4.7058 O.2       1 <0>         0.0000
     14 O4         -1.1493   -1.0341    2.1923 O.3       1 <0>         0.0000
     15 H1         -3.6765   -1.7219    0.2049 H         1 <0>         0.0000
     16 H2         -3.9056   -2.7444    2.7608 H         1 <0>         0.0000
     17 H3         -1.4045    1.9610    0.1464 H         1 <0>         0.0000
     18 H4         -0.3049    1.2299    1.3500 H         1 <0>         0.0000
     19 H5         -1.7905   -0.1296   -0.9485 H         1 <0>         0.0000
     20 H6          1.1618    2.1727   -0.4642 H         1 <0>         0.0000
     21 H7          0.1918   -1.6735   -1.0324 H         1 <0>         0.0000
@<TRIPOS>BOND
     1    1    2 1
     2    1    3 2
     3    1   15 1
     4    2    4 2
     5    2   16 1
     6    3    7 1
     7    3   14 1
     8    4   10 1
     9    4   14 1
    10    5    8 am
    11    5    9 am
    12    5   12 2
    13    6    7 1
    14    6    8 1
    15    6   17 1
    16    6   18 1
    17    7    9 1
    18    7   19 1
    19    8   20 1
    20    9   21 1
    21   10   11 1
    22   10   13 2
