@<TRIPOS>MOLECULE
*****
   44    46     0     0     0
SMALL
NO_CHARGES

@<TRIPOS>ATOM
      1 C1         -3.4014    4.5093   -0.3103 C.2       1 <0>         0.0000
      2 C2         -2.4396    2.7533    1.0671 C.2       1 <0>         0.0000
      3 C3         -2.9718    3.1568   -0.1441 C.2       1 <0>         0.0000
      4 C4         -3.3122    5.4020    0.7247 C.2       1 <0>         0.0000
      5 C5         -2.3075    3.6761    2.1790 C.2       1 <0>         0.0000
      6 C6          0.6680    0.7310   -2.3359 C.2       1 <0>         0.0000
      7 C7         -2.0746    1.3112    1.2909 C.2       1 <0>         0.0000
      8 C8          0.3820   -0.8054    0.5207 C.3       1 <0>         0.0000
      9 C9          1.5658    1.3704    0.9820 C.3       1 <0>         0.0000
     10 C10        -0.3776   -0.3577    1.7854 C.3       1 <0>         0.0000
     11 C11         0.3090    2.0002    1.6227 C.3       1 <0>         0.0000
     12 C12         2.3609   -0.1117   -0.9764 C.3       1 <0>         0.0000
     13 C13         1.1827    0.3627   -0.0972 C.3       1 <0>         0.0000
     14 C14        -3.1054    2.2056   -1.3076 C.3       1 <0>         0.0000
     15 C15        -3.7532    6.8361    0.6565 C.3       1 <0>         0.0000
     16 C16         2.5365   -0.3826   -3.4961 C.3       1 <0>         0.0000
     17 N1         -2.7860    4.9711    1.9109 N.am      1 <0>         0.0000
     18 N2          1.7699   -0.0907   -2.3011 N.am      1 <0>         0.0000
     19 N3         -0.7870    1.0333    1.6551 N.am      1 <0>         0.0000
     20 O1         -1.8254    3.4329    3.2934 O.2       1 <0>         0.0000
     21 O2          0.0549    1.1198   -3.3101 O.2       1 <0>         0.0000
     22 O3         -2.9212    0.4230    1.1407 O.2       1 <0>         0.0000
     23 O4          0.3245    1.0649   -1.0534 O.3       1 <0>         0.0000
     24 H1         -3.8075    4.8368   -1.2608 H         1 <0>         0.0000
     25 H2          1.0632   -1.6244    0.7774 H         1 <0>         0.0000
     26 H3         -0.3183   -1.1795   -0.2307 H         1 <0>         0.0000
     27 H4          2.1883    2.1633    0.5570 H         1 <0>         0.0000
     28 H5          2.1719    0.8507    1.7333 H         1 <0>         0.0000
     29 H6         -1.2667   -0.9652    1.9450 H         1 <0>         0.0000
     30 H7          0.2622   -0.4474    2.6714 H         1 <0>         0.0000
     31 H8          0.5274    2.3614    2.6333 H         1 <0>         0.0000
     32 H9         -0.0027    2.8554    1.0243 H         1 <0>         0.0000
     33 H10         3.2212    0.5730   -0.9119 H         1 <0>         0.0000
     34 H11         2.7012   -1.1154   -0.7045 H         1 <0>         0.0000
     35 H12        -2.1593    1.6991   -1.5142 H         1 <0>         0.0000
     36 H13        -3.4144    2.7347   -2.2122 H         1 <0>         0.0000
     37 H14        -3.8426    1.4327   -1.0744 H         1 <0>         0.0000
     38 H15        -4.5426    7.0382    1.3898 H         1 <0>         0.0000
     39 H16        -4.1411    7.0706   -0.3361 H         1 <0>         0.0000
     40 H17        -2.9190    7.5150    0.8684 H         1 <0>         0.0000
     41 H18         3.4135    0.2744   -3.5812 H         1 <0>         0.0000
     42 H19         1.8921   -0.2259   -4.3621 H         1 <0>         0.0000
     43 H20         2.8758   -1.4233   -3.4830 H         1 <0>         0.0000
     44 H21        -2.7012    5.6107    2.6955 H         1 <0>         0.0000
@<TRIPOS>BOND
     1    1    3 1
     2    1    4 2
     3    1   24 1
     4    2    3 2
     5    2    5 1
     6    2    7 1
     7    3   14 1
     8    4   15 1
     9    4   17 1
    10    5   17 am
    11    5   20 2
    12    6   18 am
    13    6   21 2
    14    6   23 1
    15    7   19 am
    16    7   22 2
    17    8   10 1
    18    8   13 1
    19    8   25 1
    20    8   26 1
    21    9   11 1
    22    9   13 1
    23    9   27 1
    24    9   28 1
    25   10   19 1
    26   10   29 1
    27   10   30 1
    28   11   19 1
    29   11   31 1
    30   11   32 1
    31   12   13 1
    32   12   18 1
    33   12   33 1
    34   12   34 1
    35   13   23 1
    36   14   35 1
    37   14   36 1
    38   14   37 1
    39   15   38 1
    40   15   39 1
    41   15   40 1
    42   16   18 1
    43   16   41 1
    44   16   42 1
    45   16   43 1
    46   17   44 1
