@<TRIPOS>MOLECULE
*****
   48    51     0     0     0
SMALL
NO_CHARGES

@<TRIPOS>ATOM
      1 C1         -6.7169   -3.6677    1.4180 C.2       1 <0>         0.0000
      2 C2         -7.1993   -3.8717    2.6837 C.2       1 <0>         0.0000
      3 C3         -4.7662   -3.9829    2.4200 C.2       1 <0>         0.0000
      4 C4          0.0288   -0.7691    2.1603 C.2       1 <0>         0.0000
      5 C5          1.5922   -2.3683    4.0354 C.3       1 <0>         0.0000
      6 C6          0.2823   -1.7425    4.5000 C.3       1 <0>         0.0000
      7 C7         -1.9732   -0.8230    3.7377 C.3       1 <0>         0.0000
      8 C8          1.6443   -0.6632   -0.4889 C.3       1 <0>         0.0000
      9 C9          1.9971    1.3273    1.0081 C.3       1 <0>         0.0000
     10 C10         2.2851   -1.4374    3.0499 C.3       1 <0>         0.0000
     11 C11        -3.0091   -1.9459    3.8097 C.3       1 <0>         0.0000
     12 C12        -1.1681   -2.9034    2.7472 C.3       1 <0>         0.0000
     13 C13         2.4678    0.0828   -1.5431 C.3       1 <0>         0.0000
     14 C14         2.7973    1.9531   -0.1383 C.3       1 <0>         0.0000
     15 C15         2.0784   -0.2038    0.9096 C.3       1 <0>         0.0000
     16 C16        -0.6621   -1.5321    3.3083 C.3       1 <0>         0.0000
     17 C17        -3.2776   -4.0920    2.6146 C.3       1 <0>         0.0000
     18 N1         -5.3488   -3.7351    1.2793 N.2       1 <0>         0.0000
     19 N2          1.3885   -0.9137    2.0090 N.am      1 <0>         0.0000
     20 N3         -2.6244   -2.7926    2.6824 N.3       1 <0>         0.0000
     21 O1         -0.6408   -0.1141    1.3587 O.2       1 <0>         0.0000
     22 O2          2.3518    1.4985   -1.4137 O.3       1 <0>         0.0000
     23 S1         -5.8813   -4.1651    3.7672 S.3       1 <0>         0.0000
     24 H1         -7.3305   -3.4679    0.5459 H         1 <0>         0.0000
     25 H2         -8.2267   -3.8730    3.0233 H         1 <0>         0.0000
     26 H3          2.2676   -2.5530    4.8777 H         1 <0>         0.0000
     27 H4          1.3998   -3.3361    3.5592 H         1 <0>         0.0000
     28 H5         -0.2111   -2.3681    5.2527 H         1 <0>         0.0000
     29 H6          0.4892   -0.7751    4.9764 H         1 <0>         0.0000
     30 H7         -2.2620   -0.1087    2.9664 H         1 <0>         0.0000
     31 H8         -1.8577   -0.2960    4.6893 H         1 <0>         0.0000
     32 H9          0.5834   -0.4542   -0.6321 H         1 <0>         0.0000
     33 H10         1.8009   -1.7437   -0.5957 H         1 <0>         0.0000
     34 H11         2.4033    1.6702    1.9683 H         1 <0>         0.0000
     35 H12         0.9535    1.6404    0.9446 H         1 <0>         0.0000
     36 H13         2.7346   -0.5930    3.5953 H         1 <0>         0.0000
     37 H14         3.1052   -1.9673    2.5539 H         1 <0>         0.0000
     38 H15        -2.9483   -2.4889    4.7756 H         1 <0>         0.0000
     39 H16        -4.0344   -1.5854    3.6942 H         1 <0>         0.0000
     40 H17        -0.7622   -3.1445    1.7594 H         1 <0>         0.0000
     41 H18        -0.8567   -3.7094    3.4401 H         1 <0>         0.0000
     42 H19         3.5312   -0.2061   -1.4715 H         1 <0>         0.0000
     43 H20         2.1199   -0.1577   -2.5510 H         1 <0>         0.0000
     44 H21         2.6821    3.0402   -0.1476 H         1 <0>         0.0000
     45 H22         3.8714    1.7254   -0.0208 H         1 <0>         0.0000
     46 H23         3.1349   -0.4779    1.0206 H         1 <0>         0.0000
     47 H24        -3.0722   -4.7004    3.5180 H         1 <0>         0.0000
     48 H25        -2.8732   -4.6347    1.7543 H         1 <0>         0.0000
@<TRIPOS>BOND
     1    1    2 2
     2    1   18 1
     3    1   24 1
     4    2   23 1
     5    2   25 1
     6    3   17 1
     7    3   18 2
     8    3   23 1
     9    4   16 1
    10    4   19 am
    11    4   21 2
    12    5    6 1
    13    5   10 1
    14    5   26 1
    15    5   27 1
    16    6   16 1
    17    6   28 1
    18    6   29 1
    19    7   11 1
    20    7   16 1
    21    7   30 1
    22    7   31 1
    23    8   13 1
    24    8   15 1
    25    8   32 1
    26    8   33 1
    27    9   14 1
    28    9   15 1
    29    9   34 1
    30    9   35 1
    31   10   19 1
    32   10   36 1
    33   10   37 1
    34   11   20 1
    35   11   38 1
    36   11   39 1
    37   12   16 1
    38   12   20 1
    39   12   40 1
    40   12   41 1
    41   13   22 1
    42   13   42 1
    43   13   43 1
    44   14   22 1
    45   14   44 1
    46   14   45 1
    47   15   19 1
    48   15   46 1
    49   17   20 1
    50   17   47 1
    51   17   48 1
