@<TRIPOS>MOLECULE
*****
   27    29     0     0     0
SMALL
NO_CHARGES

@<TRIPOS>ATOM
      1 C1          0.3822    0.9516    0.8246 C.ar      1 <0>         0.0000
      2 C2          0.7560    1.1995    2.1593 C.ar      1 <0>         0.0000
      3 C3          1.0979   -2.3945   -1.5418 C.2       1 <0>         0.0000
      4 C4          2.1309   -3.0393   -0.8020 C.2       1 <0>         0.0000
      5 C5         -1.8967    0.3452    1.4976 C.ar      1 <0>         0.0000
      6 C6         -0.9158    0.5415    0.5011 C.ar      1 <0>         0.0000
      7 C7         -0.2052    0.9820    3.1279 C.ar      1 <0>         0.0000
      8 C8         -1.4963    0.5604    2.8010 C.ar      1 <0>         0.0000
      9 C9         -0.0313   -2.1843   -0.7881 C.2       1 <0>         0.0000
     10 C10         1.7466   -3.2916    0.4933 C.2       1 <0>         0.0000
     11 C11        -1.3299    0.6351    5.0330 C.3       1 <0>         0.0000
     12 N1         -1.2712    0.2902   -0.8623 N.pl3     1 <0>         0.0000
     13 O1         -2.6063   -1.8540   -0.5456 O.2       1 <0>         0.0000
     14 O2         -1.4771   -1.3082   -2.7915 O.2       1 <0>         0.0000
     15 O3         -0.1076    1.1643    4.4896 O.3       1 <0>         0.0000
     16 O4         -2.2543    0.4644    3.9454 O.3       1 <0>         0.0000
     17 S1          0.1280   -2.7657    0.8435 S.3       1 <0>         0.0000
     18 S2         -1.4913   -1.3354   -1.3307 S.o2      1 <0>         0.0000
     19 Cl1         2.6971   -4.0604    1.7150 Cl        1 <0>         0.0000
     20 H1          1.1198    1.0676    0.0349 H         1 <0>         0.0000
     21 H2          1.7565    1.5307    2.4172 H         1 <0>         0.0000
     22 H3          1.1656   -2.1118   -2.5868 H         1 <0>         0.0000
     23 H4          3.1005   -3.3141   -1.2014 H         1 <0>         0.0000
     24 H5         -2.8998    0.0279    1.2390 H         1 <0>         0.0000
     25 H6         -1.1288   -0.3405    5.4951 H         1 <0>         0.0000
     26 H7         -1.7438    1.3457    5.7512 H         1 <0>         0.0000
     27 H8         -0.6508    0.7352   -1.5368 H         1 <0>         0.0000
@<TRIPOS>BOND
     1    1    2 ar
     2    1    6 ar
     3    1   20 1
     4    2    7 ar
     5    2   21 1
     6    3    4 1
     7    3    9 2
     8    3   22 1
     9    4   10 2
    10    4   23 1
    11    5    6 ar
    12    5    8 ar
    13    5   24 1
    14    6   12 1
    15    7    8 ar
    16    7   15 1
    17    8   16 1
    18    9   17 1
    19    9   18 1
    20   10   17 1
    21   10   19 1
    22   11   15 1
    23   11   16 1
    24   11   25 1
    25   11   26 1
    26   12   18 1
    27   12   27 1
    28   13   18 2
    29   14   18 2
