@<TRIPOS>MOLECULE
*****
   27    29     0     0     0
SMALL
NO_CHARGES

@<TRIPOS>ATOM
      1 C1          1.1849    0.2331    1.6323 C.ar      1 <0>         0.0000
      2 C2          1.1293    1.0282    2.7932 C.ar      1 <0>         0.0000
      3 C3          0.6515    2.5032   -1.2352 C.2       1 <0>         0.0000
      4 C4          1.7812    3.3690   -1.1553 C.2       1 <0>         0.0000
      5 C5         -1.2419    0.3896    1.3190 C.ar      1 <0>         0.0000
      6 C6          0.0252   -0.0886    0.9188 C.ar      1 <0>         0.0000
      7 C7         -0.1144    1.4978    3.1699 C.ar      1 <0>         0.0000
      8 C8         -1.2676    1.1892    2.4440 C.ar      1 <0>         0.0000
      9 C9          0.9788    1.2585   -1.7115 C.2       1 <0>         0.0000
     10 C10         2.9335    2.7413   -1.5590 C.2       1 <0>         0.0000
     11 C11        -1.8758    2.3311    4.2709 C.3       1 <0>         0.0000
     12 N1          0.1038   -0.9061   -0.2523 N.pl3     1 <0>         0.0000
     13 O1          0.3981   -1.0942   -2.7421 O.2       1 <0>         0.0000
     14 O2         -1.4689    0.3922   -1.7825 O.2       1 <0>         0.0000
     15 O3         -0.4384    2.3214    4.2262 O.3       1 <0>         0.0000
     16 O4         -2.3548    1.8068    3.0210 O.3       1 <0>         0.0000
     17 S1          2.6762    1.0951   -2.0656 S.3       1 <0>         0.0000
     18 S2         -0.1100   -0.1370   -1.7616 S.o2      1 <0>         0.0000
     19 Cl1         4.5123    3.4383   -1.6371 Cl        1 <0>         0.0000
     20 H1          2.1472   -0.1316    1.2831 H         1 <0>         0.0000
     21 H2          2.0236    1.2762    3.3552 H         1 <0>         0.0000
     22 H3         -0.3600    2.7720   -0.9523 H         1 <0>         0.0000
     23 H4          1.7493    4.3996   -0.8209 H         1 <0>         0.0000
     24 H5         -2.1341    0.1427    0.7558 H         1 <0>         0.0000
     25 H6         -2.2181    1.6851    5.0904 H         1 <0>         0.0000
     26 H7         -2.2268    3.3579    4.3910 H         1 <0>         0.0000
     27 H8          0.9425   -1.4822   -0.3004 H         1 <0>         0.0000
@<TRIPOS>BOND
     1    1    2 ar
     2    1    6 ar
     3    1   20 1
     4    2    7 ar
     5    2   21 1
     6    3    4 1
     7    3    9 2
     8    3   22 1
     9    4   10 2
    10    4   23 1
    11    5    6 ar
    12    5    8 ar
    13    5   24 1
    14    6   12 1
    15    7    8 ar
    16    7   15 1
    17    8   16 1
    18    9   17 1
    19    9   18 1
    20   10   17 1
    21   10   19 1
    22   11   15 1
    23   11   16 1
    24   11   25 1
    25   11   26 1
    26   12   18 1
    27   12   27 1
    28   13   18 2
    29   14   18 2
