@<TRIPOS>MOLECULE
*****
   41    43     0     0     0
SMALL
NO_CHARGES

@<TRIPOS>ATOM
      1 C1         -7.7665    6.3785   -5.2061 C.ar      1 <0>         0.0000
      2 C2         -6.6113    5.6984   -4.8176 C.ar      1 <0>         0.0000
      3 C3         -1.5212    1.4482   -0.8074 C.ar      1 <0>         0.0000
      4 C4         -1.5771    2.1373    0.4016 C.ar      1 <0>         0.0000
      5 C5         -2.1734    4.1636   -3.2797 C.2       1 <0>         0.0000
      6 C6         -2.0342    4.2141   -0.7779 C.ar      1 <0>         0.0000
      7 C7         -5.5210    6.4652   -6.8365 C.ar      1 <0>         0.0000
      8 C8         -1.9808    3.5247   -2.0061 C.ar      1 <0>         0.0000
      9 C9         -2.1298    3.4638   -4.4474 C.2       1 <0>         0.0000
     10 C10        -7.8286    7.1081   -6.3988 C.ar      1 <0>         0.0000
     11 C11        -6.6809    7.1441   -7.2219 C.ar      1 <0>         0.0000
     12 C12        -5.4757    5.7406   -5.6366 C.ar      1 <0>         0.0000
     13 C13        -1.7247    2.1419   -2.0022 C.ar      1 <0>         0.0000
     14 C14        -1.8356    3.5175    0.4050 C.ar      1 <0>         0.0000
     15 C15        -1.8856    2.0093   -4.4183 C.2       1 <0>         0.0000
     16 C16        -2.2903    4.1308   -5.7719 C.2       1 <0>         0.0000
     17 C17        -9.0934    7.8354   -6.7915 C.3       1 <0>         0.0000
     18 C18        -6.6973    7.9141   -8.5222 C.3       1 <0>         0.0000
     19 C19        -1.1998    3.9559   -6.7968 C.3       1 <0>         0.0000
     20 N1         -3.2885    4.8919   -6.0802 N.2       1 <0>         0.0000
     21 N2         -4.3059    5.0904   -5.2044 N.pl3     1 <0>         0.0000
     22 O1         -1.8627    1.2745   -5.3809 O.2       1 <0>         0.0000
     23 O2         -1.6684    1.4322   -3.1671 O.3       1 <0>         0.0000
     24 Br1        -1.9187    4.4506    2.0750 Br        1 <0>         0.0000
     25 H1         -8.6422    6.3361   -4.5620 H         1 <0>         0.0000
     26 H2         -6.5950    5.1385   -3.8842 H         1 <0>         0.0000
     27 H3         -1.3245    0.3811   -0.8381 H         1 <0>         0.0000
     28 H4         -1.4227    1.6097    1.3370 H         1 <0>         0.0000
     29 H5         -2.3534    5.2362   -3.3044 H         1 <0>         0.0000
     30 H6         -2.2320    5.2815   -0.7685 H         1 <0>         0.0000
     31 H7         -4.6383    6.4871   -7.4658 H         1 <0>         0.0000
     32 H8         -8.9250    8.9136   -6.9015 H         1 <0>         0.0000
     33 H9         -9.4876    7.4775   -7.7504 H         1 <0>         0.0000
     34 H10        -9.8750    7.6971   -6.0394 H         1 <0>         0.0000
     35 H11        -7.4727    7.5382   -9.2001 H         1 <0>         0.0000
     36 H12        -6.9110    8.9765   -8.3553 H         1 <0>         0.0000
     37 H13        -5.7367    7.8417   -9.0382 H         1 <0>         0.0000
     38 H14        -1.1181    2.9094   -7.1030 H         1 <0>         0.0000
     39 H15        -1.4240    4.5719   -7.6698 H         1 <0>         0.0000
     40 H16        -0.2274    4.2566   -6.3876 H         1 <0>         0.0000
     41 H17        -4.4234    4.4249   -4.4422 H         1 <0>         0.0000
@<TRIPOS>BOND
     1    1    2 ar
     2    1   10 ar
     3    1   25 1
     4    2   12 ar
     5    2   26 1
     6    3    4 ar
     7    3   13 ar
     8    3   27 1
     9    4   14 ar
    10    4   28 1
    11    5    8 1
    12    5    9 2
    13    5   29 1
    14    6    8 ar
    15    6   14 ar
    16    6   30 1
    17    7   11 ar
    18    7   12 ar
    19    7   31 1
    20    8   13 ar
    21    9   15 1
    22    9   16 1
    23   10   11 ar
    24   10   17 1
    25   11   18 1
    26   12   21 1
    27   13   23 1
    28   14   24 1
    29   15   22 2
    30   15   23 1
    31   16   19 1
    32   16   20 2
    33   17   32 1
    34   17   33 1
    35   17   34 1
    36   18   35 1
    37   18   36 1
    38   18   37 1
    39   19   38 1
    40   19   39 1
    41   19   40 1
    42   20   21 1
    43   21   41 1
