@<TRIPOS>MOLECULE
*****
   37    40     0     0     0
SMALL
NO_CHARGES

@<TRIPOS>ATOM
      1 C1         -2.4887   -5.2150    0.8625 C.ar      1 <0>         0.0000
      2 C2         -1.1323   -0.5550    0.5236 C.ar      1 <0>         0.0000
      3 C3         -1.4197   -4.3219    0.8513 C.ar      1 <0>         0.0000
      4 C4         -0.6906   -1.8588    0.6713 C.ar      1 <0>         0.0000
      5 C5         -3.8410   -4.7928    0.7346 C.ar      1 <0>         0.0000
      6 C6         -2.5148   -0.1956    0.4078 C.ar      1 <0>         0.0000
      7 C7         -1.6449   -2.9233    0.7097 C.ar      1 <0>         0.0000
      8 C8         -2.9899   -2.5492    0.5901 C.ar      1 <0>         0.0000
      9 C9         -4.0748   -3.4377    0.5975 C.ar      1 <0>         0.0000
     10 C10        -3.4397   -1.2155    0.4416 C.ar      1 <0>         0.0000
     11 C11        -5.9078    0.6631    1.4403 C.2       1 <0>         0.0000
     12 C12        -5.3296    1.9536    3.0545 C.2       1 <0>         0.0000
     13 C13        -5.3080   -2.6062    0.4348 C.2       1 <0>         0.0000
     14 C14        -3.2108    1.9510    4.3664 C.3       1 <0>         0.0000
     15 C15        -5.1621    3.4492    5.0428 C.3       1 <0>         0.0000
     16 C16        -5.7460   -0.1435    0.1908 C.3       1 <0>         0.0000
     17 C17        -4.4075    2.7939    3.8795 C.3       1 <0>         0.0000
     18 N1         -6.9492    0.7887    2.1989 N.2       1 <0>         0.0000
     19 N2         -6.5711    1.6347    3.2558 N.2       1 <0>         0.0000
     20 N3         -4.8413   -1.2663    0.3529 N.am      1 <0>         0.0000
     21 O1         -6.4809   -2.9354    0.3626 O.2       1 <0>         0.0000
     22 O2         -4.8349    1.3782    1.9082 O.3       1 <0>         0.0000
     23 H1         -2.2833   -6.2765    0.9727 H         1 <0>         0.0000
     24 H2         -0.3998    0.2476    0.4960 H         1 <0>         0.0000
     25 H3         -0.4047   -4.6995    0.9514 H         1 <0>         0.0000
     26 H4          0.3720   -2.0698    0.7573 H         1 <0>         0.0000
     27 H5         -4.6533   -5.5138    0.7457 H         1 <0>         0.0000
     28 H6         -2.7974    0.8473    0.3133 H         1 <0>         0.0000
     29 H7         -3.5494    1.1572    5.0402 H         1 <0>         0.0000
     30 H8         -2.5071    2.5860    4.9134 H         1 <0>         0.0000
     31 H9         -2.6788    1.4867    3.5311 H         1 <0>         0.0000
     32 H10        -5.5700    2.6911    5.7171 H         1 <0>         0.0000
     33 H11        -5.9956    4.0591    4.6854 H         1 <0>         0.0000
     34 H12        -4.4786    4.0879    5.6107 H         1 <0>         0.0000
     35 H13        -6.7250   -0.5492   -0.0704 H         1 <0>         0.0000
     36 H14        -5.3956    0.4970   -0.6268 H         1 <0>         0.0000
     37 H15        -4.0192    3.5812    3.2193 H         1 <0>         0.0000
@<TRIPOS>BOND
     1    1    3 ar
     2    1    5 ar
     3    1   23 1
     4    2    4 ar
     5    2    6 ar
     6    2   24 1
     7    3    7 ar
     8    3   25 1
     9    4    7 ar
    10    4   26 1
    11    5    9 ar
    12    5   27 1
    13    6   10 ar
    14    6   28 1
    15    7    8 ar
    16    8    9 ar
    17    8   10 ar
    18    9   13 1
    19   10   20 1
    20   11   16 1
    21   11   18 2
    22   11   22 1
    23   12   17 1
    24   12   19 2
    25   12   22 1
    26   13   20 am
    27   13   21 2
    28   14   17 1
    29   14   29 1
    30   14   30 1
    31   14   31 1
    32   15   17 1
    33   15   32 1
    34   15   33 1
    35   15   34 1
    36   16   20 1
    37   16   35 1
    38   16   36 1
    39   17   37 1
    40   18   19 1
