@<TRIPOS>MOLECULE
*****
   27    29     0     0     0
SMALL
NO_CHARGES

@<TRIPOS>ATOM
      1 C1          1.4484    1.8710    1.5330 C.ar      1 <0>         0.0000
      2 C2          1.1567    2.4907    2.7626 C.ar      1 <0>         0.0000
      3 C3          1.0173   -3.1009    1.1560 C.2       1 <0>         0.0000
      4 C4          0.7499   -3.6670    2.4359 C.2       1 <0>         0.0000
      5 C5         -0.5879    0.5112    1.6691 C.ar      1 <0>         0.0000
      6 C6          0.5984    0.8964    1.0027 C.ar      1 <0>         0.0000
      7 C7         -0.0077    2.1093    3.4027 C.ar      1 <0>         0.0000
      8 C8         -0.8637    1.1479    2.8622 C.ar      1 <0>         0.0000
      9 C9          1.7839   -1.9638    1.2374 C.2       1 <0>         0.0000
     10 C10         1.3220   -2.9306    3.4459 C.2       1 <0>         0.0000
     11 C11        -1.6414    1.7179    4.8809 C.3       1 <0>         0.0000
     12 N1          0.9692    0.2416   -0.2151 N.pl3     1 <0>         0.0000
     13 O1          2.1088   -1.6893   -1.3542 O.2       1 <0>         0.0000
     14 O2          3.4347   -0.1975    0.2675 O.2       1 <0>         0.0000
     15 O3         -0.5382    2.5881    4.5812 O.3       1 <0>         0.0000
     16 O4         -1.9568    0.9844    3.6831 O.3       1 <0>         0.0000
     17 S1          2.2043   -1.5480    2.8727 S.3       1 <0>         0.0000
     18 S2          2.2244   -0.9124   -0.1219 S.o2      1 <0>         0.0000
     19 Cl1         1.2416   -3.2731    5.1383 Cl        1 <0>         0.0000
     20 H1          2.3516    2.1265    0.9910 H         1 <0>         0.0000
     21 H2          1.8129    3.2450    3.1840 H         1 <0>         0.0000
     22 H3          0.6787   -3.5138    0.2118 H         1 <0>         0.0000
     23 H4          0.1770   -4.5713    2.6067 H         1 <0>         0.0000
     24 H5         -1.2394   -0.2629    1.2746 H         1 <0>         0.0000
     25 H6         -1.3454    1.0120    5.6685 H         1 <0>         0.0000
     26 H7         -2.5054    2.3163    5.1759 H         1 <0>         0.0000
     27 H8          0.1880   -0.1801   -0.7151 H         1 <0>         0.0000
@<TRIPOS>BOND
     1    1    2 ar
     2    1    6 ar
     3    1   20 1
     4    2    7 ar
     5    2   21 1
     6    3    4 1
     7    3    9 2
     8    3   22 1
     9    4   10 2
    10    4   23 1
    11    5    6 ar
    12    5    8 ar
    13    5   24 1
    14    6   12 1
    15    7    8 ar
    16    7   15 1
    17    8   16 1
    18    9   17 1
    19    9   18 1
    20   10   17 1
    21   10   19 1
    22   11   15 1
    23   11   16 1
    24   11   25 1
    25   11   26 1
    26   12   18 1
    27   12   27 1
    28   13   18 2
    29   14   18 2
