@<TRIPOS>MOLECULE
*****
   14    14     0     0     0
SMALL
NO_CHARGES

@<TRIPOS>ATOM
      1 C1         -1.5520   -1.3157    0.7151 C.ar      1 <0>         0.0000
      2 C2         -1.1226   -3.5602    0.6377 C.ar      1 <0>         0.0000
      3 C3         -0.2809   -1.0603    0.1700 C.ar      1 <0>         0.0000
      4 C4          0.1383   -3.2793    0.0953 C.ar      1 <0>         0.0000
      5 C5          1.8538    0.4823   -0.8060 C.3       1 <0>         0.0000
      6 N1         -1.9603   -2.5643    0.9438 N.ar      1 <0>         0.0000
      7 N2          0.5591   -2.0461   -0.1375 N.ar      1 <0>         0.0000
      8 F1          1.8780   -0.1861   -1.9681 F         1 <0>         0.0000
      9 F2          2.7295   -0.0933    0.0305 F         1 <0>         0.0000
     10 F3          2.2684    1.7474   -1.0413 F         1 <0>         0.0000
     11 S1          0.1714    0.6459   -0.0970 S.3       1 <0>         0.0000
     12 Cl1         1.2202   -4.5924   -0.2992 Cl        1 <0>         0.0000
     13 H1         -2.2379   -0.5091    0.9657 H         1 <0>         0.0000
     14 H2         -1.4481   -4.5801    0.8210 H         1 <0>         0.0000
@<TRIPOS>BOND
     1    1    3 ar
     2    1    6 ar
     3    1   13 1
     4    2    4 ar
     5    2    6 ar
     6    2   14 1
     7    3    7 ar
     8    3   11 1
     9    4    7 ar
    10    4   12 1
    11    5    8 1
    12    5    9 1
    13    5   10 1
    14    5   11 1
