@<TRIPOS>MOLECULE
*****
   14    14     0     0     0
SMALL
NO_CHARGES

@<TRIPOS>ATOM
      1 C1         -1.1218   -1.4330    1.2546 C.ar      1 <0>         0.0000
      2 C2         -0.5762   -3.5854    0.6807 C.ar      1 <0>         0.0000
      3 C3          0.0368   -0.9742    0.6060 C.ar      1 <0>         0.0000
      4 C4          0.5746   -3.1030    0.0402 C.ar      1 <0>         0.0000
      5 C5         -0.6854    1.6554    1.3332 C.3       1 <0>         0.0000
      6 N1         -1.4119   -2.7380    1.2819 N.ar      1 <0>         0.0000
      7 N2          0.8790   -1.8186    0.0015 N.ar      1 <0>         0.0000
      8 F1         -0.7997    1.3198    2.6373 F         1 <0>         0.0000
      9 F2         -1.9129    1.5241    0.7837 F         1 <0>         0.0000
     10 F3         -0.3335    2.9514    1.2649 F         1 <0>         0.0000
     11 S1          0.6055    0.7153    0.4543 S.3       1 <0>         0.0000
     12 Cl1         1.6625   -4.2231   -0.7434 Cl        1 <0>         0.0000
     13 H1         -1.8178   -0.7675    1.7514 H         1 <0>         0.0000
     14 H2         -0.8126   -4.6454    0.7032 H         1 <0>         0.0000
@<TRIPOS>BOND
     1    1    3 ar
     2    1    6 ar
     3    1   13 1
     4    2    4 ar
     5    2    6 ar
     6    2   14 1
     7    3    7 ar
     8    3   11 1
     9    4    7 ar
    10    4   12 1
    11    5    8 1
    12    5    9 1
    13    5   10 1
    14    5   11 1
