@<TRIPOS>MOLECULE
*****
   35    37     0     0     0
SMALL
NO_CHARGES

@<TRIPOS>ATOM
      1 C1         -3.0537   -5.5082   -0.8222 C.1       1 <0>         0.0000
      2 C2         -5.2488   -2.5906   -1.5696 C.ar      1 <0>         0.0000
      3 C3          1.6471   -1.0130    0.2151 C.ar      1 <0>         0.0000
      4 C4          0.2516   -1.0309    0.1098 C.ar      1 <0>         0.0000
      5 C5         -4.4706   -1.8686   -2.4782 C.ar      1 <0>         0.0000
      6 C6         -4.7740   -3.7901   -1.0359 C.ar      1 <0>         0.0000
      7 C7          2.3829   -2.1207   -0.2042 C.ar      1 <0>         0.0000
      8 C8         -0.3869   -2.1510   -0.4174 C.ar      1 <0>         0.0000
      9 C9         -3.2119   -2.3452   -2.8583 C.ar      1 <0>         0.0000
     10 C10        -3.5131   -4.2809   -1.4119 C.ar      1 <0>         0.0000
     11 C11         1.7627   -3.2504   -0.7573 C.ar      1 <0>         0.0000
     12 C12         0.3611   -3.2476   -0.8690 C.ar      1 <0>         0.0000
     13 C13        -2.7393   -3.5417   -2.3271 C.ar      1 <0>         0.0000
     14 C14         2.6026   -4.4497   -1.1562 C.3       1 <0>         0.0000
     15 C15         1.8159   -5.5273   -1.9115 C.3       1 <0>         0.0000
     16 C16         0.4188   -5.6700   -1.3127 C.3       1 <0>         0.0000
     17 N1         -2.7370   -6.5033   -0.3069 N.1       1 <0>         0.0000
     18 N2         -0.3211   -4.3907   -1.4154 N.pl3     1 <0>         0.0000
     19 O1         -1.3411   -5.4572   -3.4957 O.2       1 <0>         0.0000
     20 O2         -0.5287   -3.0495   -3.6611 O.2       1 <0>         0.0000
     21 S1         -1.1338   -4.1393   -2.8931 S.o2      1 <0>         0.0000
     22 H1         -6.2251   -2.2198   -1.2713 H         1 <0>         0.0000
     23 H2          2.1552   -0.1469    0.6308 H         1 <0>         0.0000
     24 H3         -0.3374   -0.1838    0.4511 H         1 <0>         0.0000
     25 H4         -4.8384   -0.9336   -2.8909 H         1 <0>         0.0000
     26 H5         -5.3686   -4.3550   -0.3249 H         1 <0>         0.0000
     27 H6          3.4672   -2.1136   -0.1109 H         1 <0>         0.0000
     28 H7         -1.4696   -2.1833   -0.4708 H         1 <0>         0.0000
     29 H8         -2.5836   -1.7940   -3.5503 H         1 <0>         0.0000
     30 H9          3.4579   -4.1135   -1.7518 H         1 <0>         0.0000
     31 H10         3.0214   -4.8849   -0.2392 H         1 <0>         0.0000
     32 H11         1.7181   -5.2651   -2.9701 H         1 <0>         0.0000
     33 H12         2.3445   -6.4851   -1.8631 H         1 <0>         0.0000
     34 H13        -0.1659   -6.4446   -1.8042 H         1 <0>         0.0000
     35 H14         0.4588   -5.9082   -0.2450 H         1 <0>         0.0000
@<TRIPOS>BOND
     1    1   10 1
     2    1   17 3
     3    2    5 ar
     4    2    6 ar
     5    2   22 1
     6    3    4 ar
     7    3    7 ar
     8    3   23 1
     9    4    8 ar
    10    4   24 1
    11    5    9 ar
    12    5   25 1
    13    6   10 ar
    14    6   26 1
    15    7   11 ar
    16    7   27 1
    17    8   12 ar
    18    8   28 1
    19    9   13 ar
    20    9   29 1
    21   10   13 ar
    22   11   12 ar
    23   11   14 1
    24   12   18 1
    25   13   21 1
    26   14   15 1
    27   14   30 1
    28   14   31 1
    29   15   16 1
    30   15   32 1
    31   15   33 1
    32   16   18 1
    33   16   34 1
    34   16   35 1
    35   18   21 1
    36   19   21 2
    37   20   21 2
