@<TRIPOS>MOLECULE
*****
   14    14     0     0     0
SMALL
NO_CHARGES

@<TRIPOS>ATOM
      1 C1         -1.6740   -1.4610    0.1396 C.ar      1 <0>         0.0000
      2 C2         -1.0803   -3.5870    0.7622 C.ar      1 <0>         0.0000
      3 C3         -0.3598   -1.2305   -0.2997 C.ar      1 <0>         0.0000
      4 C4          0.2252   -3.3327    0.3164 C.ar      1 <0>         0.0000
      5 C5         -1.1435    1.3756   -1.0473 C.3       1 <0>         0.0000
      6 N1         -2.0157   -2.6417    0.6664 N.ar      1 <0>         0.0000
      7 N2          0.5829   -2.1743   -0.2065 N.ar      1 <0>         0.0000
      8 F1         -2.1701    0.9090   -1.7921 F         1 <0>         0.0000
      9 F2         -0.7306    2.5364   -1.5859 F         1 <0>         0.0000
     10 F3         -1.6366    1.6360    0.1837 F         1 <0>         0.0000
     11 S1          0.3009    0.2640   -1.0283 S.3       1 <0>         0.0000
     12 Cl1         1.4421   -4.5795    0.4472 Cl        1 <0>         0.0000
     13 H1         -2.4539   -0.7116    0.0740 H         1 <0>         0.0000
     14 H2         -1.3585   -4.5459    1.1902 H         1 <0>         0.0000
@<TRIPOS>BOND
     1    1    3 ar
     2    1    6 ar
     3    1   13 1
     4    2    4 ar
     5    2    6 ar
     6    2   14 1
     7    3    7 ar
     8    3   11 1
     9    4    7 ar
    10    4   12 1
    11    5    8 1
    12    5    9 1
    13    5   10 1
    14    5   11 1
