@<TRIPOS>MOLECULE
*****
   39    41     0     0     0
SMALL
NO_CHARGES

@<TRIPOS>ATOM
      1 C1         -1.6616   -0.2852   -1.3336 C.ar      1 <0>         0.0000
      2 C2         -2.6216    0.3175   -0.5232 C.ar      1 <0>         0.0000
      3 C3         -2.9360   -3.5791    1.4644 C.ar      1 <0>         0.0000
      4 C4         -0.3493   -0.4356   -0.8719 C.ar      1 <0>         0.0000
      5 C5         -2.5367   -2.5733    2.3414 C.ar      1 <0>         0.0000
      6 C6         -0.7330   -3.6651    0.5238 C.ar      1 <0>         0.0000
      7 C7         -2.2519    0.8630    0.7180 C.ar      1 <0>         0.0000
      8 C8         -2.0412   -4.1541    0.5489 C.ar      1 <0>         0.0000
      9 C9          0.0228    0.0732    0.3774 C.ar      1 <0>         0.0000
     10 C10        -0.9025    0.8450    1.1056 C.ar      1 <0>         0.0000
     11 C11        -1.2173   -2.1039    2.3300 C.ar      1 <0>         0.0000
     12 C12        -0.3212   -2.6539    1.3983 C.ar      1 <0>         0.0000
     13 C13        -3.2746    1.1802    1.7386 C.2       1 <0>         0.0000
     14 C14         1.6610    0.4475    2.2091 C.3       1 <0>         0.0000
     15 C15         0.9096    1.7626    2.2355 C.3       1 <0>         0.0000
     16 C16        -2.4721   -5.2707   -0.3739 C.3       1 <0>         0.0000
     17 N1          1.2358   -0.3248    1.0151 N.pl3     1 <0>         0.0000
     18 O1         -3.1755    0.8784    2.9230 O.2       1 <0>         0.0000
     19 O2          2.1617   -2.2587    2.4167 O.2       1 <0>         0.0000
     20 O3          1.8409   -2.5798   -0.0791 O.2       1 <0>         0.0000
     21 O4         -0.5122    1.5381    2.2077 O.3       1 <0>         0.0000
     22 O5         -0.7956   -1.1185    3.1714 O.3       1 <0>         0.0000
     23 O6         -4.3939    1.7556    1.2398 O.3       1 <0>         0.0000
     24 S1          1.3725   -2.0514    1.2033 S.o2      1 <0>         0.0000
     25 H1         -1.9420   -0.6966   -2.2982 H         1 <0>         0.0000
     26 H2         -3.6651    0.3424   -0.8191 H         1 <0>         0.0000
     27 H3         -3.9678   -3.9228    1.4922 H         1 <0>         0.0000
     28 H4          0.3794   -1.0050   -1.4390 H         1 <0>         0.0000
     29 H5         -3.2429   -2.1335    3.0409 H         1 <0>         0.0000
     30 H6         -0.0166   -4.0452   -0.1973 H         1 <0>         0.0000
     31 H7          2.7376    0.6329    2.1471 H         1 <0>         0.0000
     32 H8          1.4550   -0.1098    3.1222 H         1 <0>         0.0000
     33 H9          1.1114    2.2986    3.1635 H         1 <0>         0.0000
     34 H10         1.1776    2.3996    1.3834 H         1 <0>         0.0000
     35 H11        -3.5192   -5.1597   -0.6718 H         1 <0>         0.0000
     36 H12        -1.8627   -5.2945   -1.2817 H         1 <0>         0.0000
     37 H13        -2.3713   -6.2468    0.1154 H         1 <0>         0.0000
     38 H14        -1.5441   -0.5231    3.3849 H         1 <0>         0.0000
     39 H15        -5.0198    1.8297    1.9864 H         1 <0>         0.0000
@<TRIPOS>BOND
     1    1    2 ar
     2    1    4 ar
     3    1   25 1
     4    2    7 ar
     5    2   26 1
     6    3    5 ar
     7    3    8 ar
     8    3   27 1
     9    4    9 ar
    10    4   28 1
    11    5   11 ar
    12    5   29 1
    13    6    8 ar
    14    6   12 ar
    15    6   30 1
    16    7   10 ar
    17    7   13 1
    18    8   16 1
    19    9   10 ar
    20    9   17 1
    21   10   21 1
    22   11   12 ar
    23   11   22 1
    24   12   24 1
    25   13   18 2
    26   13   23 1
    27   14   15 1
    28   14   17 1
    29   14   31 1
    30   14   32 1
    31   15   21 1
    32   15   33 1
    33   15   34 1
    34   16   35 1
    35   16   36 1
    36   16   37 1
    37   17   24 1
    38   19   24 2
    39   20   24 2
    40   22   38 1
    41   23   39 1
