@<TRIPOS>MOLECULE
*****
   42    45     0     0     0
SMALL
NO_CHARGES

@<TRIPOS>ATOM
      1 C1          0.0181   -1.2491   -8.3204 C.ar      1 <0>         0.0000
      2 C2         -1.2623   -0.9115   -7.8690 C.ar      1 <0>         0.0000
      3 C3          0.8452   -2.0448   -7.5199 C.ar      1 <0>         0.0000
      4 C4          2.1361   -6.4400    1.4943 C.ar      1 <0>         0.0000
      5 C5         -1.7201   -1.3601   -6.6288 C.ar      1 <0>         0.0000
      6 C6          0.4038   -2.5024   -6.2774 C.ar      1 <0>         0.0000
      7 C7          1.5067   -7.6819    1.4943 C.ar      1 <0>         0.0000
      8 C8          0.0363   -6.8807   -0.2762 C.ar      1 <0>         0.0000
      9 C9          1.7449   -5.4014    0.6378 C.ar      1 <0>         0.0000
     10 C10        -0.8795   -2.1540   -5.8407 C.ar      1 <0>         0.0000
     11 C11         0.6760   -5.6282   -0.2532 C.ar      1 <0>         0.0000
     12 C12         0.4621   -7.8694    0.5930 C.ar      1 <0>         0.0000
     13 C13        -1.3692   -3.5763   -2.7021 C.2       1 <0>         0.0000
     14 C14        -2.6280   -2.9522   -2.9282 C.2       1 <0>         0.0000
     15 C15        -1.0348   -4.4622   -1.5525 C.2       1 <0>         0.0000
     16 C16         2.5048   -4.0896    0.6761 C.3       1 <0>         0.0000
     17 C17         1.8185   -2.9989   -0.1442 C.3       1 <0>         0.0000
     18 C18         1.3124   -3.5865   -1.4605 C.3       1 <0>         0.0000
     19 C19        -3.8537   -2.9239   -2.0745 C.3       1 <0>         0.0000
     20 N1         -0.5818   -3.3481   -3.7632 N.2       1 <0>         0.0000
     21 N2         -2.5736   -2.3435   -4.1146 N.2       1 <0>         0.0000
     22 N3         -1.3381   -2.6136   -4.5766 N.pl3     1 <0>         0.0000
     23 N4          0.2914   -4.6112   -1.1809 N.am      1 <0>         0.0000
     24 O1         -1.9633   -5.0562   -1.0004 O.2       1 <0>         0.0000
     25 F1         -0.1645   -9.0758    0.5582 F         1 <0>         0.0000
     26 H1          0.3676   -0.8970   -9.2869 H         1 <0>         0.0000
     27 H2         -1.9123   -0.2953   -8.4841 H         1 <0>         0.0000
     28 H3          1.8401   -2.3147   -7.8632 H         1 <0>         0.0000
     29 H4          2.9588   -6.2624    2.1836 H         1 <0>         0.0000
     30 H5         -2.7098   -1.1072   -6.2672 H         1 <0>         0.0000
     31 H6          1.0332   -3.1232   -5.6506 H         1 <0>         0.0000
     32 H7          1.8058   -8.4827    2.1630 H         1 <0>         0.0000
     33 H8         -0.7865   -7.0829   -0.9479 H         1 <0>         0.0000
     34 H9          2.6327   -3.7673    1.7151 H         1 <0>         0.0000
     35 H10         3.5149   -4.2574    0.2797 H         1 <0>         0.0000
     36 H11         0.9656   -2.5819    0.4034 H         1 <0>         0.0000
     37 H12         2.5120   -2.1765   -0.3490 H         1 <0>         0.0000
     38 H13         0.8804   -2.8159   -2.0891 H         1 <0>         0.0000
     39 H14         2.1348   -4.0474   -2.0204 H         1 <0>         0.0000
     40 H15        -3.6116   -2.6172   -1.0533 H         1 <0>         0.0000
     41 H16        -4.5850   -2.2318   -2.4974 H         1 <0>         0.0000
     42 H17        -4.2914   -3.9231   -2.0065 H         1 <0>         0.0000
@<TRIPOS>BOND
     1    1    3 ar
     2    1    2 ar
     3    1   26 1
     4    2    5 ar
     5    2   27 1
     6    3    6 ar
     7    3   28 1
     8    4    7 ar
     9    4    9 ar
    10    4   29 1
    11    5   10 ar
    12    5   30 1
    13    6   10 ar
    14    6   31 1
    15    7   12 ar
    16    7   32 1
    17    8   11 ar
    18    8   12 ar
    19    8   33 1
    20    9   11 ar
    21    9   16 1
    22   10   22 1
    23   11   23 1
    24   12   25 1
    25   13   14 1
    26   13   15 1
    27   13   20 2
    28   14   19 1
    29   14   21 2
    30   15   23 am
    31   15   24 2
    32   16   17 1
    33   16   34 1
    34   16   35 1
    35   17   18 1
    36   17   36 1
    37   17   37 1
    38   18   23 1
    39   18   38 1
    40   18   39 1
    41   19   40 1
    42   19   41 1
    43   19   42 1
    44   20   22 1
    45   21   22 1
