@<TRIPOS>MOLECULE
*****
   22    22     0     0     0
SMALL
NO_CHARGES

@<TRIPOS>ATOM
      1 C1         -0.5358   -1.2875    1.1360 C.2       1 <0>         0.0000
      2 C2          0.5540   -0.5472    1.3874 C.2       1 <0>         0.0000
      3 C3          1.0353    1.8897    1.9345 C.3       1 <0>         0.0000
      4 C4         -0.4292    1.6650    2.1668 C.3       1 <0>         0.0000
      5 C5          0.5477    0.5298    2.3855 C.3       1 <0>         0.0000
      6 C6          1.8491   -0.7716    0.6648 C.3       1 <0>         0.0000
      7 C7          0.8363    0.1193    3.8048 C.3       1 <0>         0.0000
      8 N1          0.1690   -1.1799    5.6057 N.3       1 <0>         0.0000
      9 O1         -0.1485   -0.8126    4.2350 O.3       1 <0>         0.0000
     10 H1         -0.5208   -2.0811    0.3964 H         1 <0>         0.0000
     11 H2         -1.4683   -1.1171    1.6638 H         1 <0>         0.0000
     12 H3          1.3675    2.0189    0.9108 H         1 <0>         0.0000
     13 H4          1.5671    2.5120    2.6454 H         1 <0>         0.0000
     14 H5         -0.8784    2.1366    3.0333 H         1 <0>         0.0000
     15 H6         -1.0780    1.6439    1.2987 H         1 <0>         0.0000
     16 H7          1.8893   -0.1591   -0.2418 H         1 <0>         0.0000
     17 H8          2.6938   -0.4996    1.3061 H         1 <0>         0.0000
     18 H9          1.9798   -1.8174    0.3669 H         1 <0>         0.0000
     19 H10         0.8103    0.9862    4.4767 H         1 <0>         0.0000
     20 H11         1.8217   -0.3565    3.8830 H         1 <0>         0.0000
     21 H12         0.2124   -2.1943    5.5200 H         1 <0>         0.0000
     22 H13        -0.7148   -0.9645    6.0645 H         1 <0>         0.0000
@<TRIPOS>BOND
     1    1    2 2
     2    1   10 1
     3    1   11 1
     4    2    5 1
     5    2    6 1
     6    3    4 1
     7    3    5 1
     8    3   12 1
     9    3   13 1
    10    4    5 1
    11    4   14 1
    12    4   15 1
    13    5    7 1
    14    6   16 1
    15    6   17 1
    16    6   18 1
    17    7    9 1
    18    7   19 1
    19    7   20 1
    20    8    9 1
    21    8   21 1
    22    8   22 1
