@<TRIPOS>MOLECULE
*****
   25    26     0     0     0
SMALL
NO_CHARGES

@<TRIPOS>ATOM
      1 C1          5.2101   -0.7091   -2.3808 C.ar      1 <0>         0.0000
      2 C2          4.2869   -0.0846   -3.2236 C.ar      1 <0>         0.0000
      3 C3          5.1082   -0.4985   -1.0062 C.ar      1 <0>         0.0000
      4 C4          1.4166   -0.5525    2.5392 C.ar      1 <0>         0.0000
      5 C5          0.5369    0.4015    0.5202 C.ar      1 <0>         0.0000
      6 C6          3.2995    0.7274   -2.6529 C.ar      1 <0>         0.0000
      7 C7          0.3226   -1.4150    2.5506 C.ar      1 <0>         0.0000
      8 C8          1.5302    0.3863    1.5024 C.ar      1 <0>         0.0000
      9 C9          4.0821    0.3292   -0.5322 C.ar      1 <0>         0.0000
     10 C10        -0.5129   -0.5130    0.6453 C.ar      1 <0>         0.0000
     11 C11         3.9450    0.5592    0.9487 C.2       1 <0>         0.0000
     12 C12         2.7175    1.3258    1.4351 C.3       1 <0>         0.0000
     13 N1          3.1917    0.9355   -1.3368 N.ar      1 <0>         0.0000
     14 N2         -0.6416   -1.4003    1.6129 N.ar      1 <0>         0.0000
     15 O1          4.7694    0.1110    1.7328 O.2       1 <0>         0.0000
     16 Br1        -1.8960   -0.4902   -0.7035 Br        1 <0>         0.0000
     17 H1          5.9903   -1.3472   -2.7874 H         1 <0>         0.0000
     18 H2          4.3243   -0.2198   -4.3007 H         1 <0>         0.0000
     19 H3          5.7906   -0.9542   -0.2964 H         1 <0>         0.0000
     20 H4          2.1703   -0.6117    3.3192 H         1 <0>         0.0000
     21 H5          0.5883    1.0883   -0.3159 H         1 <0>         0.0000
     22 H6          2.5658    1.2282   -3.2821 H         1 <0>         0.0000
     23 H7          0.2045   -2.1529    3.3416 H         1 <0>         0.0000
     24 H8          2.5007    2.1534    0.7589 H         1 <0>         0.0000
     25 H9          2.9537    1.7076    2.4306 H         1 <0>         0.0000
@<TRIPOS>BOND
     1    1    2 ar
     2    1    3 ar
     3    1   17 1
     4    2    6 ar
     5    2   18 1
     6    3    9 ar
     7    3   19 1
     8    4    7 ar
     9    4    8 ar
    10    4   20 1
    11    5    8 ar
    12    5   10 ar
    13    5   21 1
    14    6   13 ar
    15    6   22 1
    16    7   14 ar
    17    7   23 1
    18    8   12 1
    19    9   11 1
    20    9   13 ar
    21   10   14 ar
    22   10   16 1
    23   11   12 1
    24   11   15 2
    25   12   24 1
    26   12   25 1
