@<TRIPOS>MOLECULE
*****
   50    52     0     0     0
SMALL
NO_CHARGES

@<TRIPOS>ATOM
      1 C1          3.1796   -4.1310    1.8799 C.ar      1 <0>         0.0000
      2 C2          4.4726   -4.0275    2.4090 C.ar      1 <0>         0.0000
      3 C3          2.5358   -3.0000    1.3767 C.ar      1 <0>         0.0000
      4 C4          5.1072   -2.7854    2.4348 C.ar      1 <0>         0.0000
      5 C5          6.2081    1.4315    1.4036 C.2       1 <0>         0.0000
      6 C6          3.1650   -1.7473    1.3797 C.ar      1 <0>         0.0000
      7 C7          4.4539   -1.6598    1.9241 C.ar      1 <0>         0.0000
      8 C8          5.4722    1.6225    2.6042 C.2       1 <0>         0.0000
      9 C9          5.9543    0.1250    1.0136 C.2       1 <0>         0.0000
     10 C10         1.4624    1.5381    3.0198 C.3       1 <0>         0.0000
     11 C11         1.1747    0.0427    2.8220 C.3       1 <0>         0.0000
     12 C12         0.2005    0.4805    0.6567 C.3       1 <0>         0.0000
     13 C13         0.4157    2.0110    0.7605 C.3       1 <0>         0.0000
     14 C14         0.4691    2.4260    2.2503 C.3       1 <0>         0.0000
     15 C15         5.3727    2.8524    3.4566 C.3       1 <0>         0.0000
     16 C16         6.4067   -0.6620   -0.1754 C.3       1 <0>         0.0000
     17 C17         1.6140    2.5197   -0.0582 C.3       1 <0>         0.0000
     18 C18         0.8006    3.9096    2.4388 C.3       1 <0>         0.0000
     19 C19         2.4514   -0.5387    0.8034 C.3       1 <0>         0.0000
     20 N1          4.8060    0.5135    2.9371 N.2       1 <0>         0.0000
     21 N2          5.1208   -0.3951    1.9647 N.pl3     1 <0>         0.0000
     22 N3          1.1324   -0.3613    1.4115 N.3       1 <0>         0.0000
     23 O1         -0.8773    2.1880    2.7335 O.3       1 <0>         0.0000
     24 H1          2.6752   -5.0939    1.8642 H         1 <0>         0.0000
     25 H2          4.9758   -4.9044    2.8073 H         1 <0>         0.0000
     26 H3          1.5233   -3.0657    0.9879 H         1 <0>         0.0000
     27 H4          6.1005   -2.6704    2.8596 H         1 <0>         0.0000
     28 H5          6.8398    2.1461    0.8917 H         1 <0>         0.0000
     29 H6          1.4149    1.7821    4.0908 H         1 <0>         0.0000
     30 H7          2.4865    1.7598    2.7078 H         1 <0>         0.0000
     31 H8          1.9330   -0.5508    3.3389 H         1 <0>         0.0000
     32 H9          0.2026   -0.2028    3.2645 H         1 <0>         0.0000
     33 H10        -0.8041    0.2609    1.0327 H         1 <0>         0.0000
     34 H11         0.2280    0.1757   -0.3959 H         1 <0>         0.0000
     35 H12        -0.4889    2.4784    0.3494 H         1 <0>         0.0000
     36 H13         5.0106    3.7082    2.8759 H         1 <0>         0.0000
     37 H14         4.6803    2.6769    4.2832 H         1 <0>         0.0000
     38 H15         6.3469    3.1286    3.8751 H         1 <0>         0.0000
     39 H16         6.9973   -1.5360    0.1185 H         1 <0>         0.0000
     40 H17         5.5547   -1.0272   -0.7592 H         1 <0>         0.0000
     41 H18         7.0229   -0.0349   -0.8234 H         1 <0>         0.0000
     42 H19         2.5762    2.2994    0.4115 H         1 <0>         0.0000
     43 H20         1.5628    3.6026   -0.2062 H         1 <0>         0.0000
     44 H21         1.6204    2.0554   -1.0505 H         1 <0>         0.0000
     45 H22         0.1041    4.5340    1.8698 H         1 <0>         0.0000
     46 H23         1.8216    4.1439    2.1244 H         1 <0>         0.0000
     47 H24         0.7131    4.1809    3.4982 H         1 <0>         0.0000
     48 H25         3.1054    0.3366    0.8878 H         1 <0>         0.0000
     49 H26         2.2931   -0.7064   -0.2690 H         1 <0>         0.0000
     50 H27        -0.8757    2.3482    3.6910 H         1 <0>         0.0000
@<TRIPOS>BOND
     1    1    2 ar
     2    1    3 ar
     3    1   24 1
     4    2    4 ar
     5    2   25 1
     6    3    6 ar
     7    3   26 1
     8    4    7 ar
     9    4   27 1
    10    5    8 1
    11    5    9 2
    12    5   28 1
    13    6    7 ar
    14    6   19 1
    15    7   21 1
    16    8   15 1
    17    8   20 2
    18    9   16 1
    19    9   21 1
    20   10   11 1
    21   10   14 1
    22   10   29 1
    23   10   30 1
    24   11   22 1
    25   11   31 1
    26   11   32 1
    27   12   13 1
    28   12   22 1
    29   12   33 1
    30   12   34 1
    31   13   14 1
    32   13   17 1
    33   13   35 1
    34   14   18 1
    35   14   23 1
    36   15   36 1
    37   15   37 1
    38   15   38 1
    39   16   39 1
    40   16   40 1
    41   16   41 1
    42   17   42 1
    43   17   43 1
    44   17   44 1
    45   18   45 1
    46   18   46 1
    47   18   47 1
    48   19   22 1
    49   19   48 1
    50   19   49 1
    51   20   21 1
    52   23   50 1
