@<TRIPOS>MOLECULE
*****
   25    27     0     0     0
SMALL
NO_CHARGES

@<TRIPOS>ATOM
      1 C1         -0.5416   -1.6165    2.6483 C.ar      1 <0>         0.0000
      2 C2          7.2970    0.2981    7.0066 C.ar      1 <0>         0.0000
      3 C3          0.6696   -1.2942    3.2549 C.ar      1 <0>         0.0000
      4 C4          6.5804    0.4390    5.8330 C.ar      1 <0>         0.0000
      5 C5         -0.7542   -1.1841    1.3375 C.ar      1 <0>         0.0000
      6 C6          6.6853   -0.4174    8.0457 C.ar      1 <0>         0.0000
      7 C7          1.6319   -0.5558    2.5489 C.ar      1 <0>         0.0000
      8 C8          5.3030   -0.1502    5.7932 C.ar      1 <0>         0.0000
      9 C9          1.3038   -0.1731    1.2269 C.ar      1 <0>         0.0000
     10 C10         4.4719   -0.0461    4.5765 C.2       1 <0>         0.0000
     11 C11         2.8879   -0.2376    3.2172 C.2       1 <0>         0.0000
     12 N1          0.1468   -0.4783    0.6410 N.ar      1 <0>         0.0000
     13 N2          5.4655   -0.9578    7.9532 N.ar      1 <0>         0.0000
     14 N3          4.7703   -0.8245    6.8229 N.ar      1 <0>         0.0000
     15 N4          3.2150   -0.5808    4.4392 N.2       1 <0>         0.0000
     16 N5          4.9105    0.5941    3.5089 N.2       1 <0>         0.0000
     17 O1          3.8582    0.4713    2.5950 O.3       1 <0>         0.0000
     18 O2          2.1870    0.5388    0.4945 O.3       1 <0>         0.0000
     19 H1         -1.3014   -2.1861    3.1728 H         1 <0>         0.0000
     20 H2          8.2907    0.7196    7.1280 H         1 <0>         0.0000
     21 H3          0.8972   -1.6000    4.2712 H         1 <0>         0.0000
     22 H4          6.9650    0.9745    4.9710 H         1 <0>         0.0000
     23 H5         -1.6840   -1.4100    0.8190 H         1 <0>         0.0000
     24 H6          7.1840   -0.5717    8.9997 H         1 <0>         0.0000
     25 H7          1.7566    0.6872   -0.3690 H         1 <0>         0.0000
@<TRIPOS>BOND
     1    1    3 ar
     2    1    5 ar
     3    1   19 1
     4    2    4 ar
     5    2    6 ar
     6    2   20 1
     7    3    7 ar
     8    3   21 1
     9    4    8 ar
    10    4   22 1
    11    5   12 ar
    12    5   23 1
    13    6   13 ar
    14    6   24 1
    15    7    9 ar
    16    7   11 1
    17    8   10 1
    18    8   14 ar
    19    9   12 ar
    20    9   18 1
    21   10   15 1
    22   10   16 2
    23   11   15 2
    24   11   17 1
    25   13   14 ar
    26   16   17 1
    27   18   25 1
