@<TRIPOS>MOLECULE
*****
   42    45     0     0     0
SMALL
NO_CHARGES

@<TRIPOS>ATOM
      1 C1         -3.1710   -1.1227   -2.2759 C.ar      1 <0>         0.0000
      2 C2         -2.0560   -1.5087   -1.5242 C.ar      1 <0>         0.0000
      3 C3         -4.3496   -1.8822   -2.2224 C.ar      1 <0>         0.0000
      4 C4         -2.0793   -2.6518   -0.7126 C.ar      1 <0>         0.0000
      5 C5         -3.8804   -5.2416    3.6637 C.ar      1 <0>         0.0000
      6 C6         -5.3988   -6.8922    2.7825 C.ar      1 <0>         0.0000
      7 C7         -4.3866   -3.0181   -1.4226 C.ar      1 <0>         0.0000
      8 C8         -4.1815   -6.2091    2.7000 C.ar      1 <0>         0.0000
      9 C9         -3.2591   -3.4014   -0.6797 C.ar      1 <0>         0.0000
     10 C10        -4.7696   -4.9568    4.7007 C.ar      1 <0>         0.0000
     11 C11        -5.9882   -5.6670    4.8139 C.ar      1 <0>         0.0000
     12 C12        -6.2806   -6.6222    3.8294 C.ar      1 <0>         0.0000
     13 C13        -2.6944   -5.2128    0.9196 C.2       1 <0>         0.0000
     14 C14        -5.5315   -3.9657   -1.1457 C.3       1 <0>         0.0000
     15 C15        -6.0832   -3.7349    7.3474 C.3       1 <0>         0.0000
     16 C16        -4.8519   -5.1343   -0.3984 C.3       1 <0>         0.0000
     17 C17        -5.4171   -3.1314    6.1113 C.3       1 <0>         0.0000
     18 C18        -6.3680   -5.2205    7.1273 C.3       1 <0>         0.0000
     19 C19        -3.2063   -6.4965    1.5715 C.3       1 <0>         0.0000
     20 N1         -3.5401   -4.5940    0.0345 N.am      1 <0>         0.0000
     21 O1         -1.5905   -4.7543    1.2198 O.2       1 <0>         0.0000
     22 O2         -4.3798   -3.9901    5.5988 O.3       1 <0>         0.0000
     23 O3         -6.9052   -5.4593    5.8107 O.3       1 <0>         0.0000
     24 Cl1        -7.7879   -7.5102    3.9275 Cl        1 <0>         0.0000
     25 H1         -3.1253   -0.2341   -2.8995 H         1 <0>         0.0000
     26 H2         -1.1469   -0.9143   -1.5673 H         1 <0>         0.0000
     27 H3         -5.2238   -1.5849   -2.7972 H         1 <0>         0.0000
     28 H4         -1.2205   -2.9517   -0.1284 H         1 <0>         0.0000
     29 H5         -2.9562   -4.6732    3.6132 H         1 <0>         0.0000
     30 H6         -5.6659   -7.6448    2.0468 H         1 <0>         0.0000
     31 H7         -6.2834   -3.4821   -0.5113 H         1 <0>         0.0000
     32 H8         -6.0369   -4.3066   -2.0532 H         1 <0>         0.0000
     33 H9         -5.4379   -3.6276    8.2265 H         1 <0>         0.0000
     34 H10        -7.0112   -3.1876    7.5474 H         1 <0>         0.0000
     35 H11        -5.4316   -5.4690    0.4613 H         1 <0>         0.0000
     36 H12        -4.6914   -5.9876   -1.0682 H         1 <0>         0.0000
     37 H13        -6.1534   -2.9458    5.3230 H         1 <0>         0.0000
     38 H14        -4.9226   -2.1866    6.3482 H         1 <0>         0.0000
     39 H15        -5.4600   -5.8170    7.2582 H         1 <0>         0.0000
     40 H16        -7.1259   -5.5898    7.8217 H         1 <0>         0.0000
     41 H17        -2.3174   -6.9998    1.9604 H         1 <0>         0.0000
     42 H18        -3.6717   -7.1609    0.8379 H         1 <0>         0.0000
@<TRIPOS>BOND
     1    1    2 ar
     2    1    3 ar
     3    1   25 1
     4    2    4 ar
     5    2   26 1
     6    3    7 ar
     7    3   27 1
     8    4    9 ar
     9    4   28 1
    10    5    8 ar
    11    5   10 ar
    12    5   29 1
    13    6    8 ar
    14    6   12 ar
    15    6   30 1
    16    7    9 ar
    17    7   14 1
    18    8   19 1
    19    9   20 1
    20   10   11 ar
    21   10   22 1
    22   11   12 ar
    23   11   23 1
    24   12   24 1
    25   13   19 1
    26   13   20 am
    27   13   21 2
    28   14   16 1
    29   14   31 1
    30   14   32 1
    31   15   17 1
    32   15   18 1
    33   15   33 1
    34   15   34 1
    35   16   20 1
    36   16   35 1
    37   16   36 1
    38   17   22 1
    39   17   37 1
    40   17   38 1
    41   18   23 1
    42   18   39 1
    43   18   40 1
    44   19   41 1
    45   19   42 1
