@<TRIPOS>MOLECULE
*****
   39    41     0     0     0
SMALL
NO_CHARGES

@<TRIPOS>ATOM
      1 C1         -0.0137   -1.3680   -0.6229 C.ar      1 <0>         0.0000
      2 C2          0.9053   -2.2416   -1.2240 C.ar      1 <0>         0.0000
      3 C3         -0.9047   -1.8235    0.3547 C.ar      1 <0>         0.0000
      4 C4          0.9563   -3.5936   -0.8609 C.ar      1 <0>         0.0000
      5 C5         -5.2637   -8.1321    0.6623 C.2       1 <0>         0.0000
      6 C6         -0.8638   -3.1695    0.7135 C.ar      1 <0>         0.0000
      7 C7         -3.9200   -7.8723    1.0920 C.2       1 <0>         0.0000
      8 C8          0.0515   -4.0220    0.1008 C.ar      1 <0>         0.0000
      9 C9         -5.4838   -9.4847    0.7542 C.2       1 <0>         0.0000
     10 C10        -3.3367   -9.1045    1.4097 C.2       1 <0>         0.0000
     11 C11        -1.7427   -3.8393    1.7160 C.2       1 <0>         0.0000
     12 C12        -3.3278   -6.5365    1.1241 C.2       1 <0>         0.0000
     13 C13        -6.7173  -10.2797    0.4622 C.3       1 <0>         0.0000
     14 C14        -1.9229   -9.4747    1.7518 C.3       1 <0>         0.0000
     15 C15        -4.0837  -11.5008    1.3558 C.3       1 <0>         0.0000
     16 C16        -2.3144   -6.2094    2.2444 C.3       1 <0>         0.0000
     17 N1         -4.2995  -10.0692    1.2101 N.pl3     1 <0>         0.0000
     18 N2         -1.3665   -5.1856    1.8317 N.am      1 <0>         0.0000
     19 O1         -2.6271   -3.3166    2.3683 O.2       1 <0>         0.0000
     20 O2         -3.6835   -5.6288    0.3810 O.2       1 <0>         0.0000
     21 O3         -0.5956   -6.6607   -0.1625 O.2       1 <0>         0.0000
     22 O4          1.0996   -5.9966    1.5711 O.2       1 <0>         0.0000
     23 S1         -0.0876   -5.6646    0.7837 S.o2      1 <0>         0.0000
     24 H1         -0.0316   -0.3243   -0.9233 H         1 <0>         0.0000
     25 H2          1.5874   -1.8668   -1.9818 H         1 <0>         0.0000
     26 H3         -1.6231   -1.1633    0.8311 H         1 <0>         0.0000
     27 H4          1.6670   -4.2757   -1.3170 H         1 <0>         0.0000
     28 H5         -5.9776   -7.3819    0.3503 H         1 <0>         0.0000
     29 H6         -6.5536  -11.0363   -0.3148 H         1 <0>         0.0000
     30 H7         -7.1051  -10.7932    1.3510 H         1 <0>         0.0000
     31 H8         -7.4990   -9.6053    0.1057 H         1 <0>         0.0000
     32 H9         -1.7530   -9.5418    2.8341 H         1 <0>         0.0000
     33 H10        -1.6548  -10.4436    1.3209 H         1 <0>         0.0000
     34 H11        -1.2252   -8.7473    1.3344 H         1 <0>         0.0000
     35 H12        -3.5559  -11.9172    0.4899 H         1 <0>         0.0000
     36 H13        -3.5038  -11.7092    2.2573 H         1 <0>         0.0000
     37 H14        -5.0455  -12.0049    1.4489 H         1 <0>         0.0000
     38 H15        -1.7765   -7.0766    2.6231 H         1 <0>         0.0000
     39 H16        -2.8895   -5.7908    3.0761 H         1 <0>         0.0000
@<TRIPOS>BOND
     1    1    2 ar
     2    1    3 ar
     3    1   24 1
     4    2    4 ar
     5    2   25 1
     6    3    6 ar
     7    3   26 1
     8    4    8 ar
     9    4   27 1
    10    5    7 1
    11    5    9 2
    12    5   28 1
    13    6    8 ar
    14    6   11 1
    15    7   10 2
    16    7   12 1
    17    8   23 1
    18    9   13 1
    19    9   17 1
    20   10   14 1
    21   10   17 1
    22   11   18 am
    23   11   19 2
    24   12   16 1
    25   12   20 2
    26   13   29 1
    27   13   30 1
    28   13   31 1
    29   14   32 1
    30   14   33 1
    31   14   34 1
    32   15   17 1
    33   15   35 1
    34   15   36 1
    35   15   37 1
    36   16   18 1
    37   16   38 1
    38   16   39 1
    39   18   23 1
    40   21   23 2
    41   22   23 2
