@<TRIPOS>MOLECULE
*****
   34    37     0     0     0
SMALL
NO_CHARGES

@<TRIPOS>ATOM
      1 C1          1.1122   -1.5404   -1.8277 C.ar      1 <0>         0.0000
      2 C2          1.9457   -0.6395   -1.1531 C.ar      1 <0>         0.0000
      3 C3          1.1647   -2.9157   -1.5667 C.ar      1 <0>         0.0000
      4 C4          2.8633   -1.0965   -0.1959 C.ar      1 <0>         0.0000
      5 C5         -0.9213   -8.6929   -3.0959 C.ar      1 <0>         0.0000
      6 C6         -2.8332   -6.8023   -4.0016 C.ar      1 <0>         0.0000
      7 C7          2.0739   -3.3736   -0.6089 C.ar      1 <0>         0.0000
      8 C8         -0.8350   -7.3396   -2.6562 C.ar      1 <0>         0.0000
      9 C9         -1.9246   -9.0487   -3.9651 C.ar      1 <0>         0.0000
     10 C10        -2.8636   -8.1199   -4.4132 C.ar      1 <0>         0.0000
     11 C11         2.9003   -2.4586    0.0482 C.ar      1 <0>         0.0000
     12 C12        -1.8062   -6.4251   -3.1163 C.ar      1 <0>         0.0000
     13 C13         2.3820   -4.7473   -0.1180 C.2       1 <0>         0.0000
     14 C14         0.2720   -7.0613   -1.7409 C.2       1 <0>         0.0000
     15 C15        -3.3340  -10.0995   -5.3668 C.3       1 <0>         0.0000
     16 N1          3.3159   -4.8853    0.7837 N.2       1 <0>         0.0000
     17 N2          0.7232   -5.8948   -1.4317 N.2       1 <0>         0.0000
     18 N3          1.7669   -5.8816   -0.5590 N.pl3     1 <0>         0.0000
     19 O1          5.3578   -3.2963    0.7381 O.2       1 <0>         0.0000
     20 O2          3.6333   -3.0438    2.5703 O.2       1 <0>         0.0000
     21 O3         -2.1901  -10.2811   -4.5128 O.3       1 <0>         0.0000
     22 O4         -3.7560   -8.7239   -5.2569 O.3       1 <0>         0.0000
     23 S1          3.9661   -3.3679    1.1833 S.o2      1 <0>         0.0000
     24 Cl1        -1.8464   -4.7575   -2.5836 Cl        1 <0>         0.0000
     25 H1          0.4104   -1.1683   -2.5689 H         1 <0>         0.0000
     26 H2          1.8844    0.4226   -1.3738 H         1 <0>         0.0000
     27 H3          0.5192   -3.6089   -2.0875 H         1 <0>         0.0000
     28 H4          3.5208   -0.4121    0.3317 H         1 <0>         0.0000
     29 H5         -0.1961   -9.4254   -2.7553 H         1 <0>         0.0000
     30 H6         -3.5722   -6.0832   -4.3359 H         1 <0>         0.0000
     31 H7          0.7481   -7.9588   -1.3233 H         1 <0>         0.0000
     32 H8         -3.0507  -10.3062   -6.4039 H         1 <0>         0.0000
     33 H9         -4.1457  -10.7512   -5.0304 H         1 <0>         0.0000
     34 H10         2.1068   -6.7509   -0.1416 H         1 <0>         0.0000
@<TRIPOS>BOND
     1    1    2 ar
     2    1    3 ar
     3    1   25 1
     4    2    4 ar
     5    2   26 1
     6    3    7 ar
     7    3   27 1
     8    4   11 ar
     9    4   28 1
    10    5    8 ar
    11    5    9 ar
    12    5   29 1
    13    6   10 ar
    14    6   12 ar
    15    6   30 1
    16    7   11 ar
    17    7   13 1
    18    8   12 ar
    19    8   14 1
    20    9   10 ar
    21    9   21 1
    22   10   22 1
    23   11   23 1
    24   12   24 1
    25   13   16 2
    26   13   18 1
    27   14   17 2
    28   14   31 1
    29   15   21 1
    30   15   22 1
    31   15   32 1
    32   15   33 1
    33   16   23 1
    34   17   18 1
    35   18   34 1
    36   19   23 2
    37   20   23 2
