@<TRIPOS>MOLECULE
*****
   43    45     0     0     0
SMALL
NO_CHARGES

@<TRIPOS>ATOM
      1 C1          1.3051    6.7789   -3.8450 C.ar      1 <0>         0.0000
      2 C2          0.6239    6.4756   -5.0424 C.ar      1 <0>         0.0000
      3 C3          1.0618    6.0404   -2.6880 C.ar      1 <0>         0.0000
      4 C4         -0.2972    5.4291   -5.1197 C.ar      1 <0>         0.0000
      5 C5          0.1276    5.0029   -2.7555 C.ar      1 <0>         0.0000
      6 C6         -0.5211    4.6887   -3.9549 C.ar      1 <0>         0.0000
      7 C7         -0.3480    4.0577   -1.7391 C.2       1 <0>         0.0000
      8 C8         -0.2623    1.1076   -2.1108 C.2       1 <0>         0.0000
      9 C9          1.3659   -1.4491   -0.1105 C.3       1 <0>         0.0000
     10 C10         1.0592   -0.8456   -1.4920 C.3       1 <0>         0.0000
     11 C11        -1.1401   -0.5424   -0.4272 C.3       1 <0>         0.0000
     12 C12        -0.5940   -0.3377    1.0087 C.3       1 <0>         0.0000
     13 C13         0.9542   -0.5032    1.0323 C.3       1 <0>         0.0000
     14 C14        -1.0874    0.9660    1.6473 C.3       1 <0>         0.0000
     15 C15         1.7287    0.8193    0.9466 C.3       1 <0>         0.0000
     16 C16        -1.5516    1.9451   -1.9419 C.3       1 <0>         0.0000
     17 N1         -1.3532    3.5649   -3.7847 N.pl3     1 <0>         0.0000
     18 N2         -1.3517    3.3106   -2.3784 N.am      1 <0>         0.0000
     19 N3         -0.1978   -0.0815   -1.4455 N.am      1 <0>         0.0000
     20 O1          0.0061    3.8676   -0.5769 O.2       1 <0>         0.0000
     21 O2          0.6471    1.5195   -2.8294 O.2       1 <0>         0.0000
     22 O3          1.2320   -1.1355    2.3007 O.3       1 <0>         0.0000
     23 H1          2.0225    7.5944   -3.8312 H         1 <0>         0.0000
     24 H2          0.8291    7.0645   -5.9327 H         1 <0>         0.0000
     25 H3          1.5704    6.2564   -1.7527 H         1 <0>         0.0000
     26 H4         -0.8009    5.1910   -6.0527 H         1 <0>         0.0000
     27 H5          0.8473   -2.4032    0.0315 H         1 <0>         0.0000
     28 H6          2.4390   -1.6635   -0.0495 H         1 <0>         0.0000
     29 H7          1.8429   -0.1585   -1.8106 H         1 <0>         0.0000
     30 H8          0.9875   -1.6350   -2.2510 H         1 <0>         0.0000
     31 H9         -1.3212   -1.6077   -0.6093 H         1 <0>         0.0000
     32 H10        -2.1047   -0.0506   -0.5493 H         1 <0>         0.0000
     33 H11        -0.9732   -1.1703    1.6116 H         1 <0>         0.0000
     34 H12        -0.7696    1.8531    1.0917 H         1 <0>         0.0000
     35 H13        -0.7117    1.0572    2.6707 H         1 <0>         0.0000
     36 H14        -2.1827    0.9691    1.6991 H         1 <0>         0.0000
     37 H15         1.5474    1.4265    1.8360 H         1 <0>         0.0000
     38 H16         1.4599    1.4196    0.0753 H         1 <0>         0.0000
     39 H17         2.8056    0.6133    0.8893 H         1 <0>         0.0000
     40 H18        -1.8581    1.9966   -0.8987 H         1 <0>         0.0000
     41 H19        -2.3690    1.4972   -2.5141 H         1 <0>         0.0000
     42 H20        -2.3104    3.7327   -4.0958 H         1 <0>         0.0000
     43 H21         2.1916   -1.0989    2.4456 H         1 <0>         0.0000
@<TRIPOS>BOND
     1    1    2 ar
     2    1    3 ar
     3    1   23 1
     4    2    4 ar
     5    2   24 1
     6    3    5 ar
     7    3   25 1
     8    4    6 ar
     9    4   26 1
    10    5    6 ar
    11    5    7 1
    12    6   17 1
    13    7   18 am
    14    7   20 2
    15    8   16 1
    16    8   19 am
    17    8   21 2
    18    9   10 1
    19    9   13 1
    20    9   27 1
    21    9   28 1
    22   10   19 1
    23   10   29 1
    24   10   30 1
    25   11   12 1
    26   11   19 1
    27   11   31 1
    28   11   32 1
    29   12   13 1
    30   12   14 1
    31   12   33 1
    32   13   15 1
    33   13   22 1
    34   14   34 1
    35   14   35 1
    36   14   36 1
    37   15   37 1
    38   15   38 1
    39   15   39 1
    40   16   18 1
    41   16   40 1
    42   16   41 1
    43   17   18 1
    44   17   42 1
    45   22   43 1
