@<TRIPOS>MOLECULE
*****
   39    42     0     0     0
SMALL
NO_CHARGES

@<TRIPOS>ATOM
      1 C1         -4.3495   -4.4592    5.5069 C.ar      1 <0>         0.0000
      2 C2          4.7315    0.2296   -0.2911 C.ar      1 <0>         0.0000
      3 C3         -3.3758   -4.6572    4.5488 C.ar      1 <0>         0.0000
      4 C4          3.6478    0.9239    0.2526 C.ar      1 <0>         0.0000
      5 C5         -4.9609   -3.1913    5.6621 C.ar      1 <0>         0.0000
      6 C6         -1.6570   -2.6199    1.9235 C.ar      1 <0>         0.0000
      7 C7          4.5247   -1.0700   -0.7583 C.ar      1 <0>         0.0000
      8 C8          2.3060   -1.0048   -0.1909 C.ar      1 <0>         0.0000
      9 C9         -2.9839   -3.5834    3.7100 C.ar      1 <0>         0.0000
     10 C10         2.3945    0.3060    0.3134 C.ar      1 <0>         0.0000
     11 C11        -3.5834   -2.2920    3.8419 C.ar      1 <0>         0.0000
     12 C12        -1.9835   -3.7107    2.7004 C.ar      1 <0>         0.0000
     13 C13        -4.5783   -2.1510    4.8487 C.ar      1 <0>         0.0000
     14 C14        -2.3258   -1.3881    2.1491 C.ar      1 <0>         0.0000
     15 C15         0.3975    0.1923    1.9596 C.3       1 <0>         0.0000
     16 C16        -0.1096    0.9408    0.0532 C.3       1 <0>         0.0000
     17 C17         1.1982    1.0068    0.8992 C.3       1 <0>         0.0000
     18 C18        -1.9926   -0.1907    1.2806 C.3       1 <0>         0.0000
     19 N1          3.3330   -1.6861   -0.7131 N.ar      1 <0>         0.0000
     20 N2         -3.2512   -1.2149    3.0754 N.ar      1 <0>         0.0000
     21 N3         -0.5885   -0.1635    0.9127 N.3       1 <0>         0.0000
     22 O1         -1.3973   -4.9343    2.5640 O.3       1 <0>         0.0000
     23 F1         -5.1644   -0.9452    5.0038 F         1 <0>         0.0000
     24 H1         -4.6561   -5.2771    6.1526 H         1 <0>         0.0000
     25 H2          5.7168    0.6836   -0.3519 H         1 <0>         0.0000
     26 H3         -2.9024   -5.6249    4.4244 H         1 <0>         0.0000
     27 H4          3.7753    1.9377    0.6273 H         1 <0>         0.0000
     28 H5         -5.7276   -3.0228    6.4122 H         1 <0>         0.0000
     29 H6         -0.8955   -2.6698    1.1495 H         1 <0>         0.0000
     30 H7          5.3464   -1.6420   -1.1866 H         1 <0>         0.0000
     31 H8          1.3469   -1.5205   -0.1665 H         1 <0>         0.0000
     32 H9          0.9030   -0.6612    2.4230 H         1 <0>         0.0000
     33 H10        -0.0241    0.8367    2.7467 H         1 <0>         0.0000
     34 H11        -0.7058    1.8613    0.1548 H         1 <0>         0.0000
     35 H12        -0.0104    0.6856   -1.0075 H         1 <0>         0.0000
     36 H13         1.4766    2.0125    1.2197 H         1 <0>         0.0000
     37 H14        -2.5833   -0.2498    0.3565 H         1 <0>         0.0000
     38 H15        -2.3149    0.7172    1.8167 H         1 <0>         0.0000
     39 H16        -0.7354   -4.8920    1.8539 H         1 <0>         0.0000
@<TRIPOS>BOND
     1    1    3 ar
     2    1    5 ar
     3    1   24 1
     4    2    4 ar
     5    2    7 ar
     6    2   25 1
     7    3    9 ar
     8    3   26 1
     9    4   10 ar
    10    4   27 1
    11    5   13 ar
    12    5   28 1
    13    6   12 ar
    14    6   14 ar
    15    6   29 1
    16    7   19 ar
    17    7   30 1
    18    8   10 ar
    19    8   19 ar
    20    8   31 1
    21    9   11 ar
    22    9   12 ar
    23   10   17 1
    24   11   13 ar
    25   11   20 ar
    26   12   22 1
    27   13   23 1
    28   14   18 1
    29   14   20 ar
    30   15   17 1
    31   15   21 1
    32   15   32 1
    33   15   33 1
    34   16   17 1
    35   16   21 1
    36   16   34 1
    37   16   35 1
    38   17   36 1
    39   18   21 1
    40   18   37 1
    41   18   38 1
    42   22   39 1
