@<TRIPOS>MOLECULE
*****
   34    36     0     0     0
SMALL
NO_CHARGES

@<TRIPOS>ATOM
      1 C1         -1.4048    0.0457    2.0296 C.2       1 <0>         0.0000
      2 C2          0.3105   -1.5263    4.2315 C.3       1 <0>         0.0000
      3 C3          0.4948   -0.4652    5.2970 C.3       1 <0>         0.0000
      4 C4          1.1149    1.2221   -0.4077 C.3       1 <0>         0.0000
      5 C5         -0.2062   -0.8017   -1.0681 C.3       1 <0>         0.0000
      6 C6          0.1649    1.5655    0.7655 C.3       1 <0>         0.0000
      7 C7         -1.3387    0.0204   -0.4192 C.3       1 <0>         0.0000
      8 C8          2.3694   -0.7951   -1.4696 C.3       1 <0>         0.0000
      9 C9          1.8664   -1.0644    0.5276 C.3       1 <0>         0.0000
     10 C10         0.3573   -0.0665    3.8429 C.3       1 <0>         0.0000
     11 C11         1.1755   -0.2909   -0.6274 C.3       1 <0>         0.0000
     12 C12        -0.9129    0.6191    3.3570 C.3       1 <0>         0.0000
     13 N1         -0.9017    0.5667    0.8648 N.am      1 <0>         0.0000
     14 O1         -2.2294   -0.8739    2.0273 O.2       1 <0>         0.0000
     15 O2          2.9872   -1.4274   -0.3200 O.3       1 <0>         0.0000
     16 H1          1.1619   -2.1509    3.9772 H         1 <0>         0.0000
     17 H2         -0.6530   -2.0216    4.1619 H         1 <0>         0.0000
     18 H3         -0.3431   -0.2580    5.9570 H         1 <0>         0.0000
     19 H4          1.4703   -0.3687    5.7650 H         1 <0>         0.0000
     20 H5          0.7716    1.7050   -1.3305 H         1 <0>         0.0000
     21 H6          2.1102    1.6253   -0.1932 H         1 <0>         0.0000
     22 H7         -0.3082   -1.8604   -0.8098 H         1 <0>         0.0000
     23 H8         -0.2901   -0.7288   -2.1597 H         1 <0>         0.0000
     24 H9          0.7306    1.5815    1.6954 H         1 <0>         0.0000
     25 H10        -0.2592    2.5697    0.6234 H         1 <0>         0.0000
     26 H11        -1.6209    0.8607   -1.0659 H         1 <0>         0.0000
     27 H12        -2.2266   -0.5843   -0.2439 H         1 <0>         0.0000
     28 H13         2.1091   -1.5311   -2.2416 H         1 <0>         0.0000
     29 H14         3.0142   -0.0214   -1.9058 H         1 <0>         0.0000
     30 H15         2.1953   -0.4627    1.3826 H         1 <0>         0.0000
     31 H16         1.3252   -1.9447    0.8933 H         1 <0>         0.0000
     32 H17         1.2756    0.2629    3.3627 H         1 <0>         0.0000
     33 H18        -0.7696    1.7039    3.3150 H         1 <0>         0.0000
     34 H19        -1.7214    0.4216    4.0642 H         1 <0>         0.0000
@<TRIPOS>BOND
     1    1   12 1
     2    1   13 am
     3    1   14 2
     4    2    3 1
     5    2   10 1
     6    2   16 1
     7    2   17 1
     8    3   10 1
     9    3   18 1
    10    3   19 1
    11    4    6 1
    12    4   11 1
    13    4   20 1
    14    4   21 1
    15    5    7 1
    16    5   11 1
    17    5   22 1
    18    5   23 1
    19    6   13 1
    20    6   24 1
    21    6   25 1
    22    7   13 1
    23    7   26 1
    24    7   27 1
    25    8   11 1
    26    8   15 1
    27    8   28 1
    28    8   29 1
    29    9   11 1
    30    9   15 1
    31    9   30 1
    32    9   31 1
    33   10   12 1
    34   10   32 1
    35   12   33 1
    36   12   34 1
