@<TRIPOS>MOLECULE
*****
   39    42     0     0     0
SMALL
NO_CHARGES

@<TRIPOS>ATOM
      1 C1          3.9389   -4.5225    4.2399 C.ar      1 <0>         0.0000
      2 C2         -3.7000    1.6093   -2.4519 C.ar      1 <0>         0.0000
      3 C3          3.8503   -3.2858    4.8468 C.ar      1 <0>         0.0000
      4 C4         -2.3847    1.6612   -1.9891 C.ar      1 <0>         0.0000
      5 C5          3.3382   -4.7514    2.9781 C.ar      1 <0>         0.0000
      6 C6          2.3217    0.0398    4.0712 C.ar      1 <0>         0.0000
      7 C7         -4.3575    0.3752   -2.4594 C.ar      1 <0>         0.0000
      8 C8         -2.5232   -0.6927   -1.5997 C.ar      1 <0>         0.0000
      9 C9          3.1514   -2.2341    4.2023 C.ar      1 <0>         0.0000
     10 C10        -1.7635    0.4862   -1.5470 C.ar      1 <0>         0.0000
     11 C11         2.5365   -2.4338    2.9282 C.ar      1 <0>         0.0000
     12 C12         3.0155   -0.9297    4.7640 C.ar      1 <0>         0.0000
     13 C13         2.6621   -3.7293    2.3552 C.ar      1 <0>         0.0000
     14 C14         1.7540   -0.2789    2.8067 C.ar      1 <0>         0.0000
     15 C15         0.0865   -0.4876    0.0734 C.3       1 <0>         0.0000
     16 C16         0.1394    1.6126   -0.1159 C.3       1 <0>         0.0000
     17 C17        -0.3422    0.4798   -1.0607 C.3       1 <0>         0.0000
     18 C18         0.9515    0.7817    2.0788 C.3       1 <0>         0.0000
     19 N1         -3.7866   -0.7629   -2.0420 N.ar      1 <0>         0.0000
     20 N2          1.8506   -1.4711    2.2522 N.ar      1 <0>         0.0000
     21 N3          0.9158    0.6064    0.6426 N.3       1 <0>         0.0000
     22 O1          3.5996   -0.7184    5.9783 O.3       1 <0>         0.0000
     23 F1          2.0909   -3.9533    1.1526 F         1 <0>         0.0000
     24 H1          4.4720   -5.3339    4.7269 H         1 <0>         0.0000
     25 H2         -4.2104    2.5035   -2.7993 H         1 <0>         0.0000
     26 H3          4.3077   -3.1034    5.8130 H         1 <0>         0.0000
     27 H4         -1.8453    2.6061   -1.9684 H         1 <0>         0.0000
     28 H5          3.4009   -5.7198    2.4910 H         1 <0>         0.0000
     29 H6          2.2112    1.0442    4.4763 H         1 <0>         0.0000
     30 H7         -5.3847    0.2975   -2.8132 H         1 <0>         0.0000
     31 H8         -2.0866   -1.6327   -1.2637 H         1 <0>         0.0000
     32 H9         -0.7610   -0.7549    0.7245 H         1 <0>         0.0000
     33 H10         0.6417   -1.3909   -0.1800 H         1 <0>         0.0000
     34 H11         0.7350    2.4302   -0.5376 H         1 <0>         0.0000
     35 H12        -0.7026    2.0337    0.4597 H         1 <0>         0.0000
     36 H13         0.3437    0.3864   -1.9093 H         1 <0>         0.0000
     37 H14        -0.0685    0.7909    2.5194 H         1 <0>         0.0000
     38 H15         1.3865    1.7660    2.2901 H         1 <0>         0.0000
     39 H16         3.4405    0.1991    6.2545 H         1 <0>         0.0000
@<TRIPOS>BOND
     1    1    3 ar
     2    1    5 ar
     3    1   24 1
     4    2    4 ar
     5    2    7 ar
     6    2   25 1
     7    3    9 ar
     8    3   26 1
     9    4   10 ar
    10    4   27 1
    11    5   13 ar
    12    5   28 1
    13    6   12 ar
    14    6   14 ar
    15    6   29 1
    16    7   19 ar
    17    7   30 1
    18    8   10 ar
    19    8   19 ar
    20    8   31 1
    21    9   11 ar
    22    9   12 ar
    23   10   17 1
    24   11   13 ar
    25   11   20 ar
    26   12   22 1
    27   13   23 1
    28   14   18 1
    29   14   20 ar
    30   15   17 1
    31   15   21 1
    32   15   32 1
    33   15   33 1
    34   16   17 1
    35   16   21 1
    36   16   34 1
    37   16   35 1
    38   17   36 1
    39   18   21 1
    40   18   37 1
    41   18   38 1
    42   22   39 1
