@<TRIPOS>MOLECULE
*****
   47    50     0     0     0
SMALL
NO_CHARGES

@<TRIPOS>ATOM
      1 C1          8.1179   -1.4151    2.7882 C.1       1 <0>         0.0000
      2 C2          7.2783   -4.1905    5.1038 C.ar      1 <0>         0.0000
      3 C3          5.9487   -4.4583    4.7524 C.ar      1 <0>         0.0000
      4 C4          7.9638   -3.1809    4.4360 C.ar      1 <0>         0.0000
      5 C5          5.3187   -3.7269    3.7501 C.ar      1 <0>         0.0000
      6 C6          5.5891   -0.9338    1.1539 C.2       1 <0>         0.0000
      7 C7          4.4183   -0.6815    0.3724 C.2       1 <0>         0.0000
      8 C8          7.3354   -2.4360    3.4211 C.ar      1 <0>         0.0000
      9 C9          5.9880   -2.6971    3.0551 C.ar      1 <0>         0.0000
     10 C10         5.2830   -1.9638    2.0159 C.2       1 <0>         0.0000
     11 C11         3.4649   -1.5657    0.7967 C.2       1 <0>         0.0000
     12 C12         0.0614    1.6288   -1.1182 C.3       1 <0>         0.0000
     13 C13         0.1412    0.3542   -2.0004 C.3       1 <0>         0.0000
     14 C14        -1.3880    0.6814    0.7614 C.3       1 <0>         0.0000
     15 C15         1.1677    0.3990    0.7837 C.3       1 <0>         0.0000
     16 C16        -0.9844   -1.3786   -0.4989 C.3       1 <0>         0.0000
     17 C17        -0.0226    1.2831    0.3778 C.3       1 <0>         0.0000
     18 C18         0.3439   -0.9049   -1.1436 C.3       1 <0>         0.0000
     19 C19        -3.2124   -0.7863    0.2127 C.3       1 <0>         0.0000
     20 C20         2.0525   -1.8346    0.3728 C.3       1 <0>         0.0000
     21 N1          8.7824   -0.5931    2.2955 N.1       1 <0>         0.0000
     22 N2         -1.9081   -0.2870   -0.2011 N.3       1 <0>         0.0000
     23 N3          1.4479   -0.6503   -0.2088 N.3       1 <0>         0.0000
     24 O1          3.9709   -2.3490    1.7958 O.3       1 <0>         0.0000
     25 H1          7.7707   -4.7607    5.8858 H         1 <0>         0.0000
     26 H2          5.3997   -5.2439    5.2649 H         1 <0>         0.0000
     27 H3          8.9948   -2.9521    4.6880 H         1 <0>         0.0000
     28 H4          4.2897   -3.9450    3.4889 H         1 <0>         0.0000
     29 H5          6.5327   -0.4148    1.0832 H         1 <0>         0.0000
     30 H6          4.2864    0.0586   -0.4044 H         1 <0>         0.0000
     31 H7          0.9524    2.2463   -1.2773 H         1 <0>         0.0000
     32 H8         -0.8031    2.2362   -1.4034 H         1 <0>         0.0000
     33 H9         -0.7700    0.2407   -2.5930 H         1 <0>         0.0000
     34 H10         0.9848    0.4323   -2.6927 H         1 <0>         0.0000
     35 H11        -1.3129    0.2461    1.7785 H         1 <0>         0.0000
     36 H12        -2.1220    1.4940    0.8221 H         1 <0>         0.0000
     37 H13         2.0607    1.0244    0.9009 H         1 <0>         0.0000
     38 H14         0.9660   -0.0431    1.7744 H         1 <0>         0.0000
     39 H15        -1.4925   -2.0401   -1.2100 H         1 <0>         0.0000
     40 H16        -0.7630   -1.9930    0.3969 H         1 <0>         0.0000
     41 H17         0.0700    2.2071    0.9608 H         1 <0>         0.0000
     42 H18         0.6850   -1.7159   -1.7959 H         1 <0>         0.0000
     43 H19        -3.6249   -1.4387   -0.5639 H         1 <0>         0.0000
     44 H20        -3.9024    0.0525    0.3519 H         1 <0>         0.0000
     45 H21        -3.1781   -1.3596    1.1595 H         1 <0>         0.0000
     46 H22         2.0522   -2.6332   -0.3800 H         1 <0>         0.0000
     47 H23         1.5015   -2.2286    1.2474 H         1 <0>         0.0000
@<TRIPOS>BOND
     1    1    8 1
     2    1   21 3
     3    2    3 ar
     4    2    4 ar
     5    2   25 1
     6    3    5 ar
     7    3   26 1
     8    4    8 ar
     9    4   27 1
    10    5    9 ar
    11    5   28 1
    12    6    7 1
    13    6   10 2
    14    6   29 1
    15    7   11 2
    16    7   30 1
    17    8    9 ar
    18    9   10 1
    19   10   24 1
    20   11   20 1
    21   11   24 1
    22   12   13 1
    23   12   17 1
    24   12   31 1
    25   12   32 1
    26   13   18 1
    27   13   33 1
    28   13   34 1
    29   14   17 1
    30   14   22 1
    31   14   35 1
    32   14   36 1
    33   15   17 1
    34   15   23 1
    35   15   37 1
    36   15   38 1
    37   16   18 1
    38   16   22 1
    39   16   39 1
    40   16   40 1
    41   17   41 1
    42   18   23 1
    43   18   42 1
    44   19   22 1
    45   19   43 1
    46   19   44 1
    47   19   45 1
    48   20   23 1
    49   20   46 1
    50   20   47 1
