@<TRIPOS>MOLECULE
*****
   47    50     0     0     0
SMALL
NO_CHARGES

@<TRIPOS>ATOM
      1 C1         -1.8162   -2.2517   -4.0220 C.1       1 <0>         0.0000
      2 C2         -1.5203   -3.9446   -7.3151 C.ar      1 <0>         0.0000
      3 C3         -0.1404   -4.1741   -7.3961 C.ar      1 <0>         0.0000
      4 C4         -2.0451   -3.3342   -6.1799 C.ar      1 <0>         0.0000
      5 C5          0.6961   -3.8102   -6.3446 C.ar      1 <0>         0.0000
      6 C6          2.4543   -2.5090   -4.1256 C.2       1 <0>         0.0000
      7 C7          2.8113   -2.2202   -2.7719 C.2       1 <0>         0.0000
      8 C8         -1.2039   -2.9482   -5.1193 C.ar      1 <0>         0.0000
      9 C9          0.1916   -3.1930   -5.1837 C.ar      1 <0>         0.0000
     10 C10         1.1149   -2.8241   -4.1215 C.2       1 <0>         0.0000
     11 C11         1.6769   -2.3810   -2.0200 C.2       1 <0>         0.0000
     12 C12         1.1064    1.8025    0.7399 C.3       1 <0>         0.0000
     13 C13         0.6458    1.4641   -0.7031 C.3       1 <0>         0.0000
     14 C14        -0.7870    0.6115    1.9792 C.3       1 <0>         0.0000
     15 C15         1.3373   -0.6522    1.2893 C.3       1 <0>         0.0000
     16 C16        -1.1871   -0.2648   -0.2757 C.3       1 <0>         0.0000
     17 C17         0.7313    0.6920    1.7374 C.3       1 <0>         0.0000
     18 C18         0.2445   -0.0143   -0.8138 C.3       1 <0>         0.0000
     19 C19        -3.0085    0.5778    1.0663 C.3       1 <0>         0.0000
     20 C20         1.3748   -2.2076   -0.5653 C.3       1 <0>         0.0000
     21 N1         -2.3734   -1.6642   -3.1842 N.1       1 <0>         0.0000
     22 N2         -1.5887    0.6856    0.7624 N.3       1 <0>         0.0000
     23 N3          1.3108   -0.8037   -0.1702 N.3       1 <0>         0.0000
     24 O1          0.6390   -2.7497   -2.8362 O.3       1 <0>         0.0000
     25 H1         -2.1770   -4.2379   -8.1288 H         1 <0>         0.0000
     26 H2          0.2808   -4.6535   -8.2756 H         1 <0>         0.0000
     27 H3         -3.1094   -3.1346   -6.1025 H         1 <0>         0.0000
     28 H4          1.7584   -4.0268   -6.4026 H         1 <0>         0.0000
     29 H5          3.0956   -2.4581   -4.9956 H         1 <0>         0.0000
     30 H6          3.7783   -1.9128   -2.3968 H         1 <0>         0.0000
     31 H7          2.1950    1.9265    0.7613 H         1 <0>         0.0000
     32 H8          0.6706    2.7516    1.0684 H         1 <0>         0.0000
     33 H9         -0.2014    2.0899   -0.9930 H         1 <0>         0.0000
     34 H10         1.4627    1.6512   -1.4068 H         1 <0>         0.0000
     35 H11        -1.0032   -0.3118    2.5556 H         1 <0>         0.0000
     36 H12        -1.0860    1.4538    2.6160 H         1 <0>         0.0000
     37 H13         2.3827   -0.7169    1.6217 H         1 <0>         0.0000
     38 H14         0.7943   -1.4707    1.7946 H         1 <0>         0.0000
     39 H15        -1.8875   -0.1579   -1.1072 H         1 <0>         0.0000
     40 H16        -1.2824   -1.3149    0.0639 H         1 <0>         0.0000
     41 H17         1.1754    0.9262    2.7124 H         1 <0>         0.0000
     42 H18         0.2409   -0.2997   -1.8686 H         1 <0>         0.0000
     43 H19        -3.5953    0.7150    0.1528 H         1 <0>         0.0000
     44 H20        -3.2955    1.3598    1.7781 H         1 <0>         0.0000
     45 H21        -3.2853   -0.4005    1.5059 H         1 <0>         0.0000
     46 H22         0.4531   -2.7701   -0.3326 H         1 <0>         0.0000
     47 H23         2.1822   -2.6719    0.0122 H         1 <0>         0.0000
@<TRIPOS>BOND
     1    1    8 1
     2    1   21 3
     3    2    3 ar
     4    2    4 ar
     5    2   25 1
     6    3    5 ar
     7    3   26 1
     8    4    8 ar
     9    4   27 1
    10    5    9 ar
    11    5   28 1
    12    6    7 1
    13    6   10 2
    14    6   29 1
    15    7   11 2
    16    7   30 1
    17    8    9 ar
    18    9   10 1
    19   10   24 1
    20   11   20 1
    21   11   24 1
    22   12   13 1
    23   12   17 1
    24   12   31 1
    25   12   32 1
    26   13   18 1
    27   13   33 1
    28   13   34 1
    29   14   17 1
    30   14   22 1
    31   14   35 1
    32   14   36 1
    33   15   17 1
    34   15   23 1
    35   15   37 1
    36   15   38 1
    37   16   18 1
    38   16   22 1
    39   16   39 1
    40   16   40 1
    41   17   41 1
    42   18   23 1
    43   18   42 1
    44   19   22 1
    45   19   43 1
    46   19   44 1
    47   19   45 1
    48   20   23 1
    49   20   46 1
    50   20   47 1
