@<TRIPOS>MOLECULE
*****
   21    21     0     0     0
SMALL
NO_CHARGES

@<TRIPOS>ATOM
      1 C1          2.4569    0.0640    0.2028 C.ar      1 <0>         0.0000
      2 C2          1.3844    0.4977    0.9842 C.ar      1 <0>         0.0000
      3 C3          2.8935   -1.2651    0.2569 C.ar      1 <0>         0.0000
      4 C4          1.1545   -1.7278    1.9040 C.ar      1 <0>         0.0000
      5 C5          0.7245   -0.3975    1.8410 C.ar      1 <0>         0.0000
      6 C6          2.2260   -2.1320    1.1128 C.ar      1 <0>         0.0000
      7 C7          0.0043    1.0739    3.7485 C.2       1 <0>         0.0000
      8 C8         -0.4356    0.0789    2.6965 C.3       1 <0>         0.0000
      9 N1         -0.0856    2.3568    3.6633 N.2       1 <0>         0.0000
     10 N2          0.6377    0.5440    4.8727 N.pl3     1 <0>         0.0000
     11 O1         -0.5930    2.7616    2.3893 O.3       1 <0>         0.0000
     12 F1          2.6314   -3.4291    1.1843 F         1 <0>         0.0000
     13 H1          2.9620    0.7638   -0.4577 H         1 <0>         0.0000
     14 H2          1.0533    1.5310    0.9423 H         1 <0>         0.0000
     15 H3          3.7244   -1.6251   -0.3418 H         1 <0>         0.0000
     16 H4          0.6726   -2.4517    2.5555 H         1 <0>         0.0000
     17 H5         -1.1945    0.5544    2.0726 H         1 <0>         0.0000
     18 H6         -0.9005   -0.7774    3.1973 H         1 <0>         0.0000
     19 H7          0.2027   -0.2948    5.2418 H         1 <0>         0.0000
     20 H8          0.8074    1.2386    5.5946 H         1 <0>         0.0000
     21 H9         -0.6633    3.7222    2.5043 H         1 <0>         0.0000
@<TRIPOS>BOND
     1    1    2 ar
     2    1    3 ar
     3    1   13 1
     4    2    5 ar
     5    2   14 1
     6    3    6 ar
     7    3   15 1
     8    4    5 ar
     9    4    6 ar
    10    4   16 1
    11    5    8 1
    12    6   12 1
    13    7    8 1
    14    7    9 2
    15    7   10 1
    16    8   17 1
    17    8   18 1
    18    9   11 1
    19   10   19 1
    20   10   20 1
    21   11   21 1
