@<TRIPOS>MOLECULE
*****
   31    32     0     0     0
SMALL
NO_CHARGES

@<TRIPOS>ATOM
      1 C1          1.7364   -0.8086   -0.1792 C.ar      1 <0>         0.0000
      2 C2          0.6632   -0.1793    1.8738 C.ar      1 <0>         0.0000
      3 C3          0.6794   -0.1687    0.4756 C.ar      1 <0>         0.0000
      4 C4          2.7588   -1.4529    0.5271 C.ar      1 <0>         0.0000
      5 C5          1.6660   -0.8126    2.6180 C.ar      1 <0>         0.0000
      6 C6          2.7213   -1.4557    1.9379 C.ar      1 <0>         0.0000
      7 C7          3.5229   -3.6480    2.8492 C.2       1 <0>         0.0000
      8 C8         -0.7941    1.9297   -0.0584 C.3       1 <0>         0.0000
      9 C9         -0.1215    1.5244   -1.3550 C.3       1 <0>         0.0000
     10 C10        -0.4256    0.4818   -0.3010 C.3       1 <0>         0.0000
     11 C11         3.8851   -2.1128   -0.2392 C.3       1 <0>         0.0000
     12 C12         1.5952   -0.7753    4.1295 C.3       1 <0>         0.0000
     13 C13         3.8213   -2.1663    2.7185 C.3       1 <0>         0.0000
     14 O1          3.9445   -4.5261    2.1218 O.2       1 <0>         0.0000
     15 O2          2.6838   -3.9157    3.8885 O.3       1 <0>         0.0000
     16 H1          1.7646   -0.8008   -1.2667 H         1 <0>         0.0000
     17 H2         -0.1491    0.3230    2.3947 H         1 <0>         0.0000
     18 H3         -0.1975    2.4825    0.6616 H         1 <0>         0.0000
     19 H4         -1.8441    2.2065   -0.0858 H         1 <0>         0.0000
     20 H5         -0.7131    1.5249   -2.2660 H         1 <0>         0.0000
     21 H6          0.9178    1.8106   -1.4886 H         1 <0>         0.0000
     22 H7         -1.2614   -0.1786   -0.5282 H         1 <0>         0.0000
     23 H8          4.8453   -1.6215   -0.0377 H         1 <0>         0.0000
     24 H9          4.0019   -3.1664    0.0275 H         1 <0>         0.0000
     25 H10         3.7058   -2.0489   -1.3154 H         1 <0>         0.0000
     26 H11         1.5869   -1.7801    4.5608 H         1 <0>         0.0000
     27 H12         2.4521   -0.2423    4.5598 H         1 <0>         0.0000
     28 H13         0.6913   -0.2566    4.4587 H         1 <0>         0.0000
     29 H14         3.9247   -1.7401    3.7175 H         1 <0>         0.0000
     30 H15         4.7801   -2.0806    2.2063 H         1 <0>         0.0000
     31 H16         2.5162   -4.8778    3.8610 H         1 <0>         0.0000
@<TRIPOS>BOND
     1    1    3 ar
     2    1    4 ar
     3    1   16 1
     4    2    3 ar
     5    2    5 ar
     6    2   17 1
     7    3   10 1
     8    4    6 ar
     9    4   11 1
    10    5    6 ar
    11    5   12 1
    12    6   13 1
    13    7   13 1
    14    7   14 2
    15    7   15 1
    16    8    9 1
    17    8   10 1
    18    8   18 1
    19    8   19 1
    20    9   10 1
    21    9   20 1
    22    9   21 1
    23   10   22 1
    24   11   23 1
    25   11   24 1
    26   11   25 1
    27   12   26 1
    28   12   27 1
    29   12   28 1
    30   13   29 1
    31   13   30 1
    32   15   31 1
