@<TRIPOS>MOLECULE
*****
   32    34     0     0     0
SMALL
NO_CHARGES

@<TRIPOS>ATOM
      1 C1          0.5517    0.1752   -2.5461 C.ar      1 <0>         0.0000
      2 C2          0.0521   -0.1974   -1.2916 C.ar      1 <0>         0.0000
      3 C3          0.2393   -0.5912   -3.6682 C.ar      1 <0>         0.0000
      4 C4         -0.7578   -1.3262   -1.1816 C.ar      1 <0>         0.0000
      5 C5         -0.5726   -1.7329   -3.5702 C.ar      1 <0>         0.0000
      6 C6         -1.0800   -2.0985   -2.3104 C.ar      1 <0>         0.0000
      7 C7         -3.9005   -2.5740   -0.6947 C.2       1 <0>         0.0000
      8 C8         -0.8408   -2.5662   -4.8109 C.3       1 <0>         0.0000
      9 C9         -2.0390   -3.5084   -4.6615 C.3       1 <0>         0.0000
     10 C10        -1.9564   -4.2552   -3.3269 C.3       1 <0>         0.0000
     11 C11        -4.1321   -2.5325    1.5659 C.3       1 <0>         0.0000
     12 C12        -5.5611   -2.1021    1.1580 C.3       1 <0>         0.0000
     13 C13        -2.0204   -3.2856   -2.1422 C.3       1 <0>         0.0000
     14 N1         -3.4036   -3.0170    0.4006 N.2       1 <0>         0.0000
     15 N2         -3.4121   -2.8212   -1.9509 N.pl3     1 <0>         0.0000
     16 S1         -5.3955   -1.5592   -0.5859 S.3       1 <0>         0.0000
     17 H1          1.1814    1.0558   -2.6463 H         1 <0>         0.0000
     18 H2          0.2944    0.3887   -0.4087 H         1 <0>         0.0000
     19 H3          0.6313   -0.3039   -4.6423 H         1 <0>         0.0000
     20 H4         -1.1556   -1.6242   -0.2151 H         1 <0>         0.0000
     21 H5         -0.9732   -1.9072   -5.6763 H         1 <0>         0.0000
     22 H6          0.0547   -3.1677   -5.0214 H         1 <0>         0.0000
     23 H7         -2.9757   -2.9376   -4.7154 H         1 <0>         0.0000
     24 H8         -2.0643   -4.2168   -5.4963 H         1 <0>         0.0000
     25 H9         -2.7633   -4.9873   -3.2278 H         1 <0>         0.0000
     26 H10        -1.0060   -4.8020   -3.2806 H         1 <0>         0.0000
     27 H11        -3.5909   -1.6781    1.9976 H         1 <0>         0.0000
     28 H12        -4.1768   -3.3115    2.3343 H         1 <0>         0.0000
     29 H13        -6.2634   -2.9387    1.1991 H         1 <0>         0.0000
     30 H14        -5.9429   -1.2795    1.7658 H         1 <0>         0.0000
     31 H15        -1.7718   -3.8165   -1.2227 H         1 <0>         0.0000
     32 H16        -3.7657   -2.2080   -2.6750 H         1 <0>         0.0000
@<TRIPOS>BOND
     1    1    2 ar
     2    1    3 ar
     3    1   17 1
     4    2    4 ar
     5    2   18 1
     6    3    5 ar
     7    3   19 1
     8    4    6 ar
     9    4   20 1
    10    5    6 ar
    11    5    8 1
    12    6   13 1
    13    7   14 2
    14    7   15 1
    15    7   16 1
    16    8    9 1
    17    8   21 1
    18    8   22 1
    19    9   10 1
    20    9   23 1
    21    9   24 1
    22   10   13 1
    23   10   25 1
    24   10   26 1
    25   11   12 1
    26   11   14 1
    27   11   27 1
    28   11   28 1
    29   12   16 1
    30   12   29 1
    31   12   30 1
    32   13   15 1
    33   13   31 1
    34   15   32 1
