@<TRIPOS>MOLECULE
*****
   33    35     0     0     0
SMALL
NO_CHARGES

@<TRIPOS>ATOM
      1 C1         -3.4462   -1.7717   -0.8462 C.ar      1 <0>         0.0000
      2 C2         -2.6415   -2.2968    1.3577 C.ar      1 <0>         0.0000
      3 C3         -2.3262   -0.9523   -1.0216 C.ar      1 <0>         0.0000
      4 C4         -3.6037   -2.4492    0.3559 C.ar      1 <0>         0.0000
      5 C5         -1.4070   -0.8457    0.0405 C.ar      1 <0>         0.0000
      6 C6         -1.5898   -3.1673   -4.6497 C.3       1 <0>         0.0000
      7 C7         -1.1746   -3.2669   -3.1957 C.3       1 <0>         0.0000
      8 C8         -0.2722    1.4820   -0.2093 C.3       1 <0>         0.0000
      9 C9          0.2035    0.8684    1.0915 C.3       1 <0>         0.0000
     10 C10        -1.3206   -1.9137   -3.8543 C.3       1 <0>         0.0000
     11 C11        -0.1487   -0.0246   -0.0707 C.3       1 <0>         0.0000
     12 C12         0.9887   -0.7418   -0.7852 C.3       1 <0>         0.0000
     13 C13        -2.1769   -0.2110   -2.3406 C.3       1 <0>         0.0000
     14 N1         -1.5736   -1.5143    1.1973 N.ar      1 <0>         0.0000
     15 N2         -2.4482   -1.0878   -3.4895 N.3       1 <0>         0.0000
     16 Cl1        -4.9880   -3.4960    0.6209 Cl        1 <0>         0.0000
     17 H1         -4.1592   -1.8882   -1.6565 H         1 <0>         0.0000
     18 H2         -2.7401   -2.8220    2.3059 H         1 <0>         0.0000
     19 H3         -0.8749   -3.4507   -5.4163 H         1 <0>         0.0000
     20 H4         -2.6282   -3.3818   -4.8832 H         1 <0>         0.0000
     21 H5         -1.9353   -3.5507   -2.4778 H         1 <0>         0.0000
     22 H6         -0.1716   -3.6134   -2.9648 H         1 <0>         0.0000
     23 H7         -1.2691    1.9143   -0.2259 H         1 <0>         0.0000
     24 H8          0.4508    1.9952   -0.8389 H         1 <0>         0.0000
     25 H9          1.2543    0.9648    1.3504 H         1 <0>         0.0000
     26 H10        -0.4732    0.8747    1.9396 H         1 <0>         0.0000
     27 H11        -0.3844   -1.3913   -4.0771 H         1 <0>         0.0000
     28 H12         1.8721   -0.0981   -0.8555 H         1 <0>         0.0000
     29 H13         0.7041   -1.0418   -1.7992 H         1 <0>         0.0000
     30 H14         1.2687   -1.6460   -0.2341 H         1 <0>         0.0000
     31 H15        -2.9129    0.6023   -2.3638 H         1 <0>         0.0000
     32 H16        -1.1887    0.2599   -2.3970 H         1 <0>         0.0000
     33 H17        -2.7195   -0.5203   -4.2892 H         1 <0>         0.0000
@<TRIPOS>BOND
     1    1    3 ar
     2    1    4 ar
     3    1   17 1
     4    2    4 ar
     5    2   14 ar
     6    2   18 1
     7    3    5 ar
     8    3   13 1
     9    4   16 1
    10    5   11 1
    11    5   14 ar
    12    6    7 1
    13    6   10 1
    14    6   19 1
    15    6   20 1
    16    7   10 1
    17    7   21 1
    18    7   22 1
    19    8    9 1
    20    8   11 1
    21    8   23 1
    22    8   24 1
    23    9   11 1
    24    9   25 1
    25    9   26 1
    26   10   15 1
    27   10   27 1
    28   11   12 1
    29   12   28 1
    30   12   29 1
    31   12   30 1
    32   13   15 1
    33   13   31 1
    34   13   32 1
    35   15   33 1
