@<TRIPOS>MOLECULE
*****
   23    24     0     0     0
SMALL
NO_CHARGES

@<TRIPOS>ATOM
      1 C1          1.3536   -0.0441   -3.5985 C.2       1 <0>         0.0000
      2 C2          2.2898    0.4671   -5.6867 C.2       1 <0>         0.0000
      3 C3          0.5907   -0.5776   -2.4217 C.2       1 <0>         0.0000
      4 C4         -1.0827    0.0297    0.3242 C.3       1 <0>         0.0000
      5 C5          0.0810    0.6790    1.0436 C.3       1 <0>         0.0000
      6 C6          0.3326   -0.3845    0.0032 C.3       1 <0>         0.0000
      7 C7          4.4549   -0.0020   -7.2137 C.3       1 <0>         0.0000
      8 N1          2.2649    0.8944   -3.5187 N.2       1 <0>         0.0000
      9 N2          2.8068    1.1991   -4.7383 N.2       1 <0>         0.0000
     10 N3          0.9081    0.0271   -1.2471 N.am      1 <0>         0.0000
     11 O1         -0.2362   -1.4753   -2.5663 O.2       1 <0>         0.0000
     12 O2          1.9558   -0.4528   -8.1553 O.2       1 <0>         0.0000
     13 S1          1.0667   -0.6667   -5.1971 S.3       1 <0>         0.0000
     14 S2          2.7434    0.6263   -7.4450 S.o       1 <0>         0.0000
     15 H1         -1.7010   -0.6816    0.8618 H         1 <0>         0.0000
     16 H2         -1.6015    0.6154   -0.4272 H         1 <0>         0.0000
     17 H3          0.3238    1.7046    0.7802 H         1 <0>         0.0000
     18 H4          0.2673    0.4202    2.0813 H         1 <0>         0.0000
     19 H5          0.6496   -1.3670    0.3453 H         1 <0>         0.0000
     20 H6          4.9257    0.0172   -8.1990 H         1 <0>         0.0000
     21 H7          4.3982   -1.0254   -6.8375 H         1 <0>         0.0000
     22 H8          4.9824    0.6526   -6.5166 H         1 <0>         0.0000
     23 H9          1.6675    0.7000   -1.2615 H         1 <0>         0.0000
@<TRIPOS>BOND
     1    1    3 1
     2    1    8 2
     3    1   13 1
     4    2    9 2
     5    2   13 1
     6    2   14 1
     7    3   10 am
     8    3   11 2
     9    4    5 1
    10    4    6 1
    11    4   15 1
    12    4   16 1
    13    5    6 1
    14    5   17 1
    15    5   18 1
    16    6   10 1
    17    6   19 1
    18    7   14 1
    19    7   20 1
    20    7   21 1
    21    7   22 1
    22    8    9 1
    23   10   23 1
    24   12   14 2
