@<TRIPOS>MOLECULE
*****
   25    26     0     0     0
SMALL
NO_CHARGES

@<TRIPOS>ATOM
      1 C1          1.7652    1.2049    1.4983 C.ar      1 <0>         0.0000
      2 C2          0.6702    0.4387    1.9101 C.ar      1 <0>         0.0000
      3 C3          1.6106    2.5743    1.2053 C.ar      1 <0>         0.0000
      4 C4         -0.5533    1.1053    2.0106 C.ar      1 <0>         0.0000
      5 C5         -0.5741    2.4905    1.6893 C.ar      1 <0>         0.0000
      6 C6         -2.5799    1.7507    2.2736 C.2       1 <0>         0.0000
      7 C7         -4.0384    1.8290    2.6038 C.3       1 <0>         0.0000
      8 C8         -6.2292    4.6607    1.7270 C.3       1 <0>         0.0000
      9 C9         -5.8510    3.3607    2.4039 C.3       1 <0>         0.0000
     10 N1          0.4482    3.2427    1.2920 N.ar      1 <0>         0.0000
     11 N2         -1.8272    0.6742    2.3679 N.2       1 <0>         0.0000
     12 N3         -1.8908    2.8747    1.8783 N.pl3     1 <0>         0.0000
     13 O1         -5.3677    5.6899    2.2181 O.3       1 <0>         0.0000
     14 O2         -4.5736    2.9567    1.9284 O.3       1 <0>         0.0000
     15 H1          2.7480    0.7537    1.3982 H         1 <0>         0.0000
     16 H2          0.7605   -0.6194    2.1400 H         1 <0>         0.0000
     17 H3          2.4708    3.1588    0.8845 H         1 <0>         0.0000
     18 H4         -4.5325    0.8954    2.3031 H         1 <0>         0.0000
     19 H5         -4.1606    1.9398    3.6927 H         1 <0>         0.0000
     20 H6         -7.2820    4.8797    1.9592 H         1 <0>         0.0000
     21 H7         -6.1293    4.5421    0.6391 H         1 <0>         0.0000
     22 H8         -6.6072    2.5938    2.1754 H         1 <0>         0.0000
     23 H9         -5.8232    3.5080    3.4937 H         1 <0>         0.0000
     24 H10        -2.3105    3.7806    1.7034 H         1 <0>         0.0000
     25 H11        -5.5591    6.5072    1.7336 H         1 <0>         0.0000
@<TRIPOS>BOND
     1    1    2 ar
     2    1    3 ar
     3    1   15 1
     4    2    4 ar
     5    2   16 1
     6    3   10 ar
     7    3   17 1
     8    4    5 ar
     9    4   11 1
    10    5   10 ar
    11    5   12 1
    12    6    7 1
    13    6   11 2
    14    6   12 1
    15    7   14 1
    16    7   18 1
    17    7   19 1
    18    8    9 1
    19    8   13 1
    20    8   20 1
    21    8   21 1
    22    9   14 1
    23    9   22 1
    24    9   23 1
    25   12   24 1
    26   13   25 1
