@<TRIPOS>MOLECULE
*****
   34    35     0     0     0
SMALL
NO_CHARGES

@<TRIPOS>ATOM
      1 C1          1.0651   -1.9108    2.5229 C.2       1 <0>         0.0000
      2 C2          0.4260   -0.8931    0.4876 C.2       1 <0>         0.0000
      3 C3          0.5482   -0.8211    1.9536 C.2       1 <0>         0.0000
      4 C4         -0.5938   -5.3210   -1.0017 C.2       1 <0>         0.0000
      5 C5          0.4827   -4.5401   -1.3670 C.2       1 <0>         0.0000
      6 C6          1.4741   -3.0834    1.7149 C.2       1 <0>         0.0000
      7 C7         -1.1248   -4.9900   -3.1037 C.2       1 <0>         0.0000
      8 C8         -0.8395   -5.8898    0.3394 C.3       1 <0>         0.0000
      9 C9         -1.8616   -5.0412   -4.3853 C.3       1 <0>         0.0000
     10 C10        -0.4159    1.4397    1.8185 C.3       1 <0>         0.0000
     11 C11        -0.0174    0.3882    4.0223 C.3       1 <0>         0.0000
     12 C12         1.6540   -4.0669   -0.5556 C.3       1 <0>         0.0000
     13 N1          0.7641   -1.8829   -0.2683 N.2       1 <0>         0.0000
     14 N2         -1.5168   -5.5797   -1.9961 N.2       1 <0>         0.0000
     15 N3          1.2910   -2.9847    0.3434 N.am      1 <0>         0.0000
     16 N4          0.1345    0.3156    2.5713 N.pl3     1 <0>         0.0000
     17 O1          1.9449   -4.0610    2.2959 O.2       1 <0>         0.0000
     18 S1          0.3450   -4.1080   -3.0210 S.3       1 <0>         0.0000
     19 H1          1.2035   -1.9750    3.5972 H         1 <0>         0.0000
     20 H2         -0.0004   -0.0003   -0.0000 H         1 <0>         0.0000
     21 H3         -1.4293   -5.1973    0.9613 H         1 <0>         0.0000
     22 H4         -1.3876   -6.8455    0.2881 H         1 <0>         0.0000
     23 H5          0.1006   -6.1049    0.8748 H         1 <0>         0.0000
     24 H6         -2.5791   -4.2092   -4.4610 H         1 <0>         0.0000
     25 H7         -1.1830   -4.9819   -5.2518 H         1 <0>         0.0000
     26 H8         -2.4232   -5.9830   -4.4987 H         1 <0>         0.0000
     27 H9         -0.6865    2.2512    2.4990 H         1 <0>         0.0000
     28 H10        -1.3093    1.1268    1.2711 H         1 <0>         0.0000
     29 H11         0.3214    1.8121    1.1022 H         1 <0>         0.0000
     30 H12        -0.3580    1.3848    4.3150 H         1 <0>         0.0000
     31 H13         0.9383    0.1848    4.5130 H         1 <0>         0.0000
     32 H14        -0.7501   -0.3482    4.3630 H         1 <0>         0.0000
     33 H15         2.0609   -4.8851    0.0485 H         1 <0>         0.0000
     34 H16         2.4611   -3.7080   -1.2029 H         1 <0>         0.0000
@<TRIPOS>BOND
     1    1    3 2
     2    1    6 1
     3    1   19 1
     4    2    3 1
     5    2   13 2
     6    2   20 1
     7    3   16 1
     8    4    5 2
     9    4    8 1
    10    4   14 1
    11    5   12 1
    12    5   18 1
    13    6   15 am
    14    6   17 2
    15    7    9 1
    16    7   14 2
    17    7   18 1
    18    8   21 1
    19    8   22 1
    20    8   23 1
    21    9   24 1
    22    9   25 1
    23    9   26 1
    24   10   16 1
    25   10   27 1
    26   10   28 1
    27   10   29 1
    28   11   16 1
    29   11   30 1
    30   11   31 1
    31   11   32 1
    32   12   15 1
    33   12   33 1
    34   12   34 1
    35   13   15 1
