@<TRIPOS>MOLECULE
*****
   38    39     0     0     0
SMALL
NO_CHARGES

@<TRIPOS>ATOM
      1 C1         -3.5584    2.2485   -0.7607 C.ar      1 <0>         0.0000
      2 C2         -2.7389    1.3284   -1.4145 C.ar      1 <0>         0.0000
      3 C3         -3.8891    2.0580    0.5809 C.ar      1 <0>         0.0000
      4 C4         -2.2500    0.2177   -0.7266 C.ar      1 <0>         0.0000
      5 C5         -3.4002    0.9474    1.2688 C.ar      1 <0>         0.0000
      6 C6         -2.5807    0.0272    0.6151 C.ar      1 <0>         0.0000
      7 C7         -0.0369   -2.3556    0.9518 C.2       1 <0>         0.0000
      8 C8         -2.8957   -2.1164    1.9297 C.2       1 <0>         0.0000
      9 C9         -0.0080   -0.5412    2.4062 C.3       1 <0>         0.0000
     10 C10         1.3995   -1.0343    2.1496 C.3       1 <0>         0.0000
     11 C11        -1.3747   -0.7502   -1.4548 C.3       1 <0>         0.0000
     12 C12        -3.7720    0.7706    2.7056 C.3       1 <0>         0.0000
     13 C13        -6.2416   -3.5353    1.2023 C.3       1 <0>         0.0000
     14 C14        -4.2325   -2.3163    1.2181 C.3       1 <0>         0.0000
     15 N1         -0.7284   -1.2794    1.4338 N.am      1 <0>         0.0000
     16 N2         -2.0713   -1.1288    1.3312 N.am      1 <0>         0.0000
     17 O1         -0.4401   -3.2571    0.2315 O.2       1 <0>         0.0000
     18 O2         -2.6453   -2.7942    2.9268 O.2       1 <0>         0.0000
     19 O3          1.2470   -2.2828    1.4395 O.3       1 <0>         0.0000
     20 O4         -4.9898   -3.3308    1.8489 O.3       1 <0>         0.0000
     21 H1         -3.9392    3.1132   -1.2965 H         1 <0>         0.0000
     22 H2         -2.4878    1.4859   -2.4601 H         1 <0>         0.0000
     23 H3         -4.5279    2.7809    1.0815 H         1 <0>         0.0000
     24 H4         -0.3536   -0.8315    3.4042 H         1 <0>         0.0000
     25 H5         -0.1166    0.5381    2.2699 H         1 <0>         0.0000
     26 H6          1.9706   -0.3495    1.5142 H         1 <0>         0.0000
     27 H7          1.9499   -1.2139    3.0774 H         1 <0>         0.0000
     28 H8         -0.3233   -0.4567   -1.3588 H         1 <0>         0.0000
     29 H9         -1.4926   -1.7658   -1.0582 H         1 <0>         0.0000
     30 H10        -1.6313   -0.7910   -2.5203 H         1 <0>         0.0000
     31 H11        -4.6955    0.1868    2.7888 H         1 <0>         0.0000
     32 H12        -2.9790    0.2528    3.2583 H         1 <0>         0.0000
     33 H13        -3.9242    1.7394    3.1965 H         1 <0>         0.0000
     34 H14        -6.7944   -4.3242    1.7182 H         1 <0>         0.0000
     35 H15        -6.0727   -3.8161    0.1597 H         1 <0>         0.0000
     36 H16        -6.8165   -2.6069    1.2391 H         1 <0>         0.0000
     37 H17        -4.0554   -2.6261    0.1841 H         1 <0>         0.0000
     38 H18        -4.8147   -1.3901    1.2321 H         1 <0>         0.0000
@<TRIPOS>BOND
     1    1    3 ar
     2    1    2 ar
     3    1   21 1
     4    2    4 ar
     5    2   22 1
     6    3    5 ar
     7    3   23 1
     8    4    6 ar
     9    4   11 1
    10    5    6 ar
    11    5   12 1
    12    6   16 1
    13    7   15 am
    14    7   17 2
    15    7   19 1
    16    8   14 1
    17    8   16 am
    18    8   18 2
    19    9   10 1
    20    9   15 1
    21    9   24 1
    22    9   25 1
    23   10   19 1
    24   10   26 1
    25   10   27 1
    26   11   28 1
    27   11   29 1
    28   11   30 1
    29   12   31 1
    30   12   32 1
    31   12   33 1
    32   13   20 1
    33   13   34 1
    34   13   35 1
    35   13   36 1
    36   14   20 1
    37   14   37 1
    38   14   38 1
    39   15   16 1
