@<TRIPOS>MOLECULE
*****
   35    36     0     0     0
SMALL
NO_CHARGES

@<TRIPOS>ATOM
      1 C1         -0.5632    0.3073   -0.8531 C.1       1 <0>         0.0000
      2 C2         -1.4103    0.8428   -1.5476 C.1       1 <0>         0.0000
      3 C3          1.5418   -0.9621   -0.6294 C.ar      1 <0>         0.0000
      4 C4          0.3364   -0.3175    1.3595 C.ar      1 <0>         0.0000
      5 C5          0.4318   -0.3249   -0.0430 C.ar      1 <0>         0.0000
      6 C6          2.5164   -1.5884    0.1477 C.ar      1 <0>         0.0000
      7 C7          1.2980   -0.9370    2.1604 C.ar      1 <0>         0.0000
      8 C8          2.3924   -1.6077    1.5607 C.ar      1 <0>         0.0000
      9 C9          4.6052   -1.2598    2.7953 C.2       1 <0>         0.0000
     10 C10        -3.1805    0.6090   -3.3953 C.3       1 <0>         0.0000
     11 C11        -3.8944    1.0880   -2.1548 C.3       1 <0>         0.0000
     12 C12        -2.4292    1.4517   -2.3697 C.3       1 <0>         0.0000
     13 C13         3.7085   -2.2312   -0.5270 C.3       1 <0>         0.0000
     14 C14         0.3513   -2.0853    4.2220 C.3       1 <0>         0.0000
     15 C15         3.4430   -2.2785    2.4016 C.3       1 <0>         0.0000
     16 C16         1.1372   -0.8824    3.6679 C.3       1 <0>         0.0000
     17 O1          4.4281   -0.6545    3.8845 O.co2     1 <0>         0.0000
     18 O2          5.5490   -1.1816    1.9663 O.co2     1 <0>         0.0000
     19 H1          1.6395   -0.9531   -1.7127 H         1 <0>         0.0000
     20 H2         -0.5028    0.1939    1.8270 H         1 <0>         0.0000
     21 H3         -2.9097   -0.4401   -3.4539 H         1 <0>         0.0000
     22 H4         -3.4257    1.0765   -4.3453 H         1 <0>         0.0000
     23 H5         -4.6285    1.8831   -2.2556 H         1 <0>         0.0000
     24 H6         -4.1054    0.3620   -1.3765 H         1 <0>         0.0000
     25 H7         -2.2451    2.4840   -2.6627 H         1 <0>         0.0000
     26 H8          4.6377   -1.8979   -0.0530 H         1 <0>         0.0000
     27 H9          3.6708   -3.3259   -0.4403 H         1 <0>         0.0000
     28 H10         3.7294   -1.9826   -1.5936 H         1 <0>         0.0000
     29 H11        -0.6559   -2.1318    3.7899 H         1 <0>         0.0000
     30 H12         0.2538   -2.0223    5.3131 H         1 <0>         0.0000
     31 H13         0.8553   -3.0282    3.9842 H         1 <0>         0.0000
     32 H14         3.0088   -2.6681    3.3235 H         1 <0>         0.0000
     33 H15         3.8903   -3.1116    1.8551 H         1 <0>         0.0000
     34 H16         2.1236   -0.8143    4.1364 H         1 <0>         0.0000
     35 H17         0.5991    0.0374    3.9291 H         1 <0>         0.0000
@<TRIPOS>BOND
     1    1    2 3
     2    1    5 1
     3    2   12 1
     4    3    5 ar
     5    3    6 ar
     6    3   19 1
     7    4    5 ar
     8    4    7 ar
     9    4   20 1
    10    6    8 ar
    11    6   13 1
    12    7    8 ar
    13    7   16 1
    14    8   15 1
    15    9   15 1
    16    9   17 1
    17    9   18 2
    18   10   11 1
    19   10   12 1
    20   10   21 1
    21   10   22 1
    22   11   12 1
    23   11   23 1
    24   11   24 1
    25   12   25 1
    26   13   26 1
    27   13   27 1
    28   13   28 1
    29   14   16 1
    30   14   29 1
    31   14   30 1
    32   14   31 1
    33   15   32 1
    34   15   33 1
    35   16   34 1
    36   16   35 1
