@<TRIPOS>MOLECULE
*****
   24    24     0     0     0
SMALL
NO_CHARGES

@<TRIPOS>ATOM
      1 C1          5.6500    0.9600    1.0150 C.ar      1 <0>         0.0000
      2 C2          5.8430    0.3470   -0.2210 C.ar      1 <0>         0.0000
      3 C3          4.4070    0.8960    1.6380 C.ar      1 <0>         0.0000
      4 C4          4.8090   -0.3540   -0.8450 C.ar      1 <0>         0.0000
      5 C5          3.5610   -0.4470   -0.2070 C.ar      1 <0>         0.0000
      6 C6          3.3630    0.2170    1.0260 C.ar      1 <0>         0.0000
      7 C7          5.0640   -1.0110   -2.1910 C.3       1 <0>         0.0000
      8 C8          1.9430   -2.2580    0.0150 C.3       1 <0>         0.0000
      9 C9          1.0830    1.0210    1.0400 C.3       1 <0>         0.0000
     10 N1          2.5540   -1.2250   -0.8310 N.pl3     1 <0>         0.0000
     11 O1          2.1380    0.2590    1.6700 O.3       1 <0>         0.0000
     12 H1          6.4480    1.4820    1.4780 H         1 <0>         0.0000
     13 H2          6.7920    0.4160   -0.6870 H         1 <0>         0.0000
     14 H3          4.2490    1.3700    2.5710 H         1 <0>         0.0000
     15 H4          4.3330   -0.6270   -2.9020 H         1 <0>         0.0000
     16 H5          4.9640   -2.0900   -2.0680 H         1 <0>         0.0000
     17 H6          6.0710   -0.7670   -2.5300 H         1 <0>         0.0000
     18 H7          1.2370   -1.7940    0.7040 H         1 <0>         0.0000
     19 H8          2.7290   -2.7720    0.5710 H         1 <0>         0.0000
     20 H9          1.4120   -2.9620   -0.6280 H         1 <0>         0.0000
     21 H10         0.1990    0.9580    1.6740 H         1 <0>         0.0000
     22 H11         0.8810    0.5940    0.0570 H         1 <0>         0.0000
     23 H12         1.4180    2.0540    0.9460 H         1 <0>         0.0000
     24 H13         2.9120   -1.6340   -1.7060 H         1 <0>         0.0000
@<TRIPOS>BOND
     1    1    2 ar
     2    1    3 ar
     3    1   12 1
     4    2    4 ar
     5    2   13 1
     6    3    6 ar
     7    3   14 1
     8    4    5 ar
     9    4    7 1
    10    5    6 ar
    11    5   10 1
    12    6   11 1
    13    7   15 1
    14    7   16 1
    15    7   17 1
    16    8   10 1
    17    8   18 1
    18    8   19 1
    19    8   20 1
    20    9   11 1
    21    9   21 1
    22    9   22 1
    23    9   23 1
    24   10   24 1
