@<TRIPOS>MOLECULE
*****
   42    43     0     0     0
SMALL
NO_CHARGES

@<TRIPOS>ATOM
      1 C1          6.3255    1.6972    6.3039 C.1       1 <0>         0.0000
      2 C2          6.8566    1.8874    7.3802 C.1       1 <0>         0.0000
      3 C3         -2.3923   -1.6368   -5.9693 C.ar      1 <0>         0.0000
      4 C4         -3.0681   -1.9586   -4.7835 C.ar      1 <0>         0.0000
      5 C5         -1.1130   -1.0850   -5.8939 C.ar      1 <0>         0.0000
      6 C6          4.4075    0.9335    4.9538 C.ar      1 <0>         0.0000
      7 C7          6.3681    1.7998    3.8352 C.ar      1 <0>         0.0000
      8 C8         -2.4723   -1.7318   -3.5450 C.ar      1 <0>         0.0000
      9 C9         -0.5001   -0.8508   -4.6554 C.ar      1 <0>         0.0000
     10 C10         3.7913    0.7129    3.7203 C.ar      1 <0>         0.0000
     11 C11         5.7638    1.5838    2.6047 C.ar      1 <0>         0.0000
     12 C12         5.7003    1.4774    5.0369 C.ar      1 <0>         0.0000
     13 C13        -1.1841   -1.1765   -3.4759 C.ar      1 <0>         0.0000
     14 C14         4.4703    1.0381    2.5367 C.ar      1 <0>         0.0000
     15 C15         7.5132    2.0800    8.6734 C.3       1 <0>         0.0000
     16 C16         0.9399   -0.3518   -0.5925 C.3       1 <0>         0.0000
     17 C17         2.3352    0.2297   -0.3402 C.3       1 <0>         0.0000
     18 C18         0.6255   -0.4387   -2.0790 C.3       1 <0>         0.0000
     19 C19         2.6504    0.3142    1.1458 C.3       1 <0>         0.0000
     20 O1          7.2038    3.3827    9.1908 O.3       1 <0>         0.0000
     21 O2         -0.6842   -0.9921   -2.2130 O.3       1 <0>         0.0000
     22 O3          3.9642    0.8642    1.2796 O.3       1 <0>         0.0000
     23 H1         -2.8588   -1.8145   -6.9341 H         1 <0>         0.0000
     24 H2         -4.0654   -2.3891   -4.8247 H         1 <0>         0.0000
     25 H3         -0.5764   -0.8299   -6.8044 H         1 <0>         0.0000
     26 H4          3.8796    0.6829    5.8692 H         1 <0>         0.0000
     27 H5          7.3668    2.2239    3.8820 H         1 <0>         0.0000
     28 H6         -2.9832   -1.9761   -2.6180 H         1 <0>         0.0000
     29 H7          0.4945   -0.4207   -4.6268 H         1 <0>         0.0000
     30 H8          2.7925    0.2926    3.6962 H         1 <0>         0.0000
     31 H9          6.2720    1.8307    1.6771 H         1 <0>         0.0000
     32 H10         7.1728    1.2955    9.3656 H         1 <0>         0.0000
     33 H11         8.5990    1.9612    8.5417 H         1 <0>         0.0000
     34 H12         0.8603   -1.3555   -0.1590 H         1 <0>         0.0000
     35 H13         0.1750    0.2663   -0.1080 H         1 <0>         0.0000
     36 H14         2.4146    1.2338   -0.7727 H         1 <0>         0.0000
     37 H15         3.0996   -0.3881   -0.8256 H         1 <0>         0.0000
     38 H16         0.6609    0.5579   -2.5405 H         1 <0>         0.0000
     39 H17         1.3573   -1.0784   -2.5915 H         1 <0>         0.0000
     40 H18         2.6147   -0.6821    1.6070 H         1 <0>         0.0000
     41 H19         1.9232    0.9568    1.6604 H         1 <0>         0.0000
     42 H20         7.6579    3.4704   10.0444 H         1 <0>         0.0000
@<TRIPOS>BOND
     1    1    2 3
     2    1   12 1
     3    2   15 1
     4    3    5 ar
     5    3    4 ar
     6    3   23 1
     7    4    8 ar
     8    4   24 1
     9    5    9 ar
    10    5   25 1
    11    6   10 ar
    12    6   12 ar
    13    6   26 1
    14    7   11 ar
    15    7   12 ar
    16    7   27 1
    17    8   13 ar
    18    8   28 1
    19    9   13 ar
    20    9   29 1
    21   10   14 ar
    22   10   30 1
    23   11   14 ar
    24   11   31 1
    25   13   21 1
    26   14   22 1
    27   15   20 1
    28   15   32 1
    29   15   33 1
    30   16   17 1
    31   16   18 1
    32   16   34 1
    33   16   35 1
    34   17   19 1
    35   17   36 1
    36   17   37 1
    37   18   21 1
    38   18   38 1
    39   18   39 1
    40   19   22 1
    41   19   40 1
    42   19   41 1
    43   20   42 1
