@<TRIPOS>MOLECULE
*****
   42    44     0     0     0
SMALL
NO_CHARGES

@<TRIPOS>ATOM
      1 C1          2.0895   -4.0334   -0.3062 C.1       1 <0>         0.0000
      2 C2          1.8417   -2.8464   -0.2266 C.1       1 <0>         0.0000
      3 C3          2.8281   -8.1957   -0.6378 C.ar      1 <0>         0.0000
      4 C4         -1.5332   -4.7008   -2.7052 C.ar      1 <0>         0.0000
      5 C5          3.7466   -7.3718    0.0235 C.ar      1 <0>         0.0000
      6 C6          1.6671   -7.6414   -1.1890 C.ar      1 <0>         0.0000
      7 C7         -0.8358   -3.5913   -3.1951 C.ar      1 <0>         0.0000
      8 C8         -2.0269   -4.6770   -1.3974 C.ar      1 <0>         0.0000
      9 C9          3.5078   -6.0018    0.1336 C.ar      1 <0>         0.0000
     10 C10         1.4197   -6.2726   -1.0821 C.ar      1 <0>         0.0000
     11 C11        -0.6427   -2.4658   -2.3914 C.ar      1 <0>         0.0000
     12 C12        -1.8304   -3.5476   -0.5981 C.ar      1 <0>         0.0000
     13 C13         2.3403   -5.4378   -0.4184 C.ar      1 <0>         0.0000
     14 C14        -1.1409   -2.4252   -1.0802 C.ar      1 <0>         0.0000
     15 C15        -0.5056    1.1343    0.0894 C.2       1 <0>         0.0000
     16 C16        -1.2099    0.1649   -0.8485 C.3       1 <0>         0.0000
     17 C17        -1.0033   -1.2095   -0.1891 C.3       1 <0>         0.0000
     18 C18         0.3216   -1.0288    0.6190 C.3       1 <0>         0.0000
     19 C19         1.1934    1.0139    1.8787 C.3       1 <0>         0.0000
     20 C20         1.6501   -1.3995   -0.0763 C.3       1 <0>         0.0000
     21 N1          0.2807    0.3919    0.9407 N.am      1 <0>         0.0000
     22 O1         -0.6073    2.3558    0.1061 O.2       1 <0>         0.0000
     23 O2          1.7217   -0.6811   -1.3159 O.3       1 <0>         0.0000
     24 H1          3.0167   -9.2628   -0.7225 H         1 <0>         0.0000
     25 H2         -1.6916   -5.5717   -3.3365 H         1 <0>         0.0000
     26 H3          4.6491   -7.7990    0.4527 H         1 <0>         0.0000
     27 H4          0.9522   -8.2789   -1.7030 H         1 <0>         0.0000
     28 H5         -0.4427   -3.6022   -4.2087 H         1 <0>         0.0000
     29 H6         -2.5697   -5.5319   -1.0019 H         1 <0>         0.0000
     30 H7          4.2177   -5.3582    0.6452 H         1 <0>         0.0000
     31 H8          0.5221   -5.8345   -1.5042 H         1 <0>         0.0000
     32 H9         -0.0910   -1.6184   -2.7818 H         1 <0>         0.0000
     33 H10        -2.2274   -3.5347    0.4151 H         1 <0>         0.0000
     34 H11        -2.2616    0.4340   -0.9645 H         1 <0>         0.0000
     35 H12        -0.7283    0.2398   -1.8256 H         1 <0>         0.0000
     36 H13        -1.7715   -1.3005    0.5861 H         1 <0>         0.0000
     37 H14         0.2855   -1.6241    1.5391 H         1 <0>         0.0000
     38 H15         1.2154    0.4473    2.8158 H         1 <0>         0.0000
     39 H16         0.8366    2.0265    2.0736 H         1 <0>         0.0000
     40 H17         2.2136    1.0811    1.4790 H         1 <0>         0.0000
     41 H18         2.4544   -1.0470    0.5867 H         1 <0>         0.0000
     42 H19         2.5093   -0.9905   -1.7908 H         1 <0>         0.0000
@<TRIPOS>BOND
     1    1    2 3
     2    1   13 1
     3    2   20 1
     4    3    6 ar
     5    3    5 ar
     6    3   24 1
     7    4    8 ar
     8    4    7 ar
     9    4   25 1
    10    5    9 ar
    11    5   26 1
    12    6   10 ar
    13    6   27 1
    14    7   11 ar
    15    7   28 1
    16    8   12 ar
    17    8   29 1
    18    9   13 ar
    19    9   30 1
    20   10   13 ar
    21   10   31 1
    22   11   14 ar
    23   11   32 1
    24   12   14 ar
    25   12   33 1
    26   14   17 1
    27   15   16 1
    28   15   21 am
    29   15   22 2
    30   16   17 1
    31   16   34 1
    32   16   35 1
    33   17   18 1
    34   17   36 1
    35   18   20 1
    36   18   21 1
    37   18   37 1
    38   19   21 1
    39   19   38 1
    40   19   39 1
    41   19   40 1
    42   20   23 1
    43   20   41 1
    44   23   42 1
