@<TRIPOS>MOLECULE
*****
   32    32     0     0     0
SMALL
NO_CHARGES

@<TRIPOS>ATOM
      1 C1          1.2643   -1.0574   -5.5223 C.ar      1 <0>         0.0000
      2 C2          0.0002   -0.6922   -5.9929 C.ar      1 <0>         0.0000
      3 C3          1.5703   -0.9416   -4.1642 C.ar      1 <0>         0.0000
      4 C4         -0.6681   -0.1117   -3.7516 C.ar      1 <0>         0.0000
      5 C5         -0.9795   -0.2087   -5.1133 C.ar      1 <0>         0.0000
      6 C6          0.5960   -0.4714   -3.2784 C.ar      1 <0>         0.0000
      7 C7          0.7688    0.8002   -1.2201 C.2       1 <0>         0.0000
      8 C8         -2.3402    1.7696   -5.9074 C.3       1 <0>         0.0000
      9 C9         -0.1767   -2.4186   -0.8826 C.3       1 <0>         0.0000
     10 C10        -2.3254    0.2564   -5.6230 C.3       1 <0>         0.0000
     11 C11         1.0414    0.8381    0.2918 C.3       1 <0>         0.0000
     12 C12         1.1255   -1.6670   -1.1710 C.3       1 <0>         0.0000
     13 N1          0.8983   -0.3936   -1.8741 N.am      1 <0>         0.0000
     14 O1          0.4632    1.8548   -1.7842 O.2       1 <0>         0.0000
     15 O2          0.8181    2.1364    0.7851 O.3       1 <0>         0.0000
     16 H1          2.0175   -1.4239   -6.2149 H         1 <0>         0.0000
     17 H2         -0.2277   -0.7794   -7.0531 H         1 <0>         0.0000
     18 H3          2.5591   -1.2017   -3.7960 H         1 <0>         0.0000
     19 H4         -1.4081    0.2644   -3.0509 H         1 <0>         0.0000
     20 H5         -2.1037    2.3378   -5.0022 H         1 <0>         0.0000
     21 H6         -3.3234    2.0901   -6.2687 H         1 <0>         0.0000
     22 H7         -1.5945    2.0301   -6.6657 H         1 <0>         0.0000
     23 H8         -0.8340   -1.8312   -0.2337 H         1 <0>         0.0000
     24 H9         -0.7136   -2.6295   -1.8119 H         1 <0>         0.0000
     25 H10         0.0362   -3.3706   -0.3851 H         1 <0>         0.0000
     26 H11        -2.5827   -0.2899   -6.5372 H         1 <0>         0.0000
     27 H12        -3.1008    0.0199   -4.8855 H         1 <0>         0.0000
     28 H13         0.3867    0.1247    0.8099 H         1 <0>         0.0000
     29 H14         2.0815    0.5340    0.4799 H         1 <0>         0.0000
     30 H15         1.7784   -2.2804   -1.7971 H         1 <0>         0.0000
     31 H16         1.6750   -1.4747   -0.2486 H         1 <0>         0.0000
     32 H17         0.5994    2.6740   -0.0052 H         1 <0>         0.0000
@<TRIPOS>BOND
     1    1    2 ar
     2    1    3 ar
     3    1   16 1
     4    2    5 ar
     5    2   17 1
     6    3    6 ar
     7    3   18 1
     8    4    5 ar
     9    4    6 ar
    10    4   19 1
    11    5   10 1
    12    6   13 1
    13    7   11 1
    14    7   13 am
    15    7   14 2
    16    8   10 1
    17    8   20 1
    18    8   21 1
    19    8   22 1
    20    9   12 1
    21    9   23 1
    22    9   24 1
    23    9   25 1
    24   10   26 1
    25   10   27 1
    26   11   15 1
    27   11   28 1
    28   11   29 1
    29   12   13 1
    30   12   30 1
    31   12   31 1
    32   15   32 1
