@<TRIPOS>MOLECULE
*****
   32    32     0     0     0
SMALL
NO_CHARGES

@<TRIPOS>ATOM
      1 C1          1.5160   -1.2261   -5.4500 C.ar      1 <0>         0.0000
      2 C2          0.3078   -0.7190   -5.9368 C.ar      1 <0>         0.0000
      3 C3          1.8140   -1.1835   -4.0884 C.ar      1 <0>         0.0000
      4 C4         -0.3163   -0.1085   -3.6912 C.ar      1 <0>         0.0000
      5 C5         -0.6242   -0.1554   -5.0576 C.ar      1 <0>         0.0000
      6 C6          0.8913   -0.6177   -3.1962 C.ar      1 <0>         0.0000
      7 C7          2.4007   -0.3528   -1.2933 C.2       1 <0>         0.0000
      8 C8         -1.7547    1.9474   -5.9091 C.3       1 <0>         0.0000
      9 C9         -0.6463    0.3385   -0.2645 C.3       1 <0>         0.0000
     10 C10        -1.9108    0.4536   -5.5711 C.3       1 <0>         0.0000
     11 C11         2.6576   -0.5532    0.2098 C.3       1 <0>         0.0000
     12 C12         0.0245   -0.9025   -0.8669 C.3       1 <0>         0.0000
     13 N1          1.1457   -0.6182   -1.7828 N.am      1 <0>         0.0000
     14 O1          3.3519    0.0024   -1.9939 O.2       1 <0>         0.0000
     15 O2          3.9748   -0.1746    0.5251 O.3       1 <0>         0.0000
     16 H1          2.2330   -1.6702   -6.1356 H         1 <0>         0.0000
     17 H2          0.0874   -0.7638   -7.0011 H         1 <0>         0.0000
     18 H3          2.7524   -1.5796   -3.7223 H         1 <0>         0.0000
     19 H4         -1.0360    0.3410   -3.0148 H         1 <0>         0.0000
     20 H5         -1.4524    2.5184   -5.0250 H         1 <0>         0.0000
     21 H6         -2.6959    2.3660   -6.2819 H         1 <0>         0.0000
     22 H7         -0.9869    2.0946   -6.6756 H         1 <0>         0.0000
     23 H8          0.0659    0.9505    0.2948 H         1 <0>         0.0000
     24 H9         -1.0929    0.9733   -1.0331 H         1 <0>         0.0000
     25 H10        -1.4395    0.0294    0.4247 H         1 <0>         0.0000
     26 H11        -2.2402   -0.0872   -6.4653 H         1 <0>         0.0000
     27 H12        -2.7027    0.3324   -4.8228 H         1 <0>         0.0000
     28 H13         1.9542    0.0313    0.8127 H         1 <0>         0.0000
     29 H14         2.4971   -1.6158    0.4496 H         1 <0>         0.0000
     30 H15        -0.7047   -1.4882   -1.4299 H         1 <0>         0.0000
     31 H16         0.3823   -1.5538   -0.0655 H         1 <0>         0.0000
     32 H17         4.3873    0.0540   -0.3343 H         1 <0>         0.0000
@<TRIPOS>BOND
     1    1    2 ar
     2    1    3 ar
     3    1   16 1
     4    2    5 ar
     5    2   17 1
     6    3    6 ar
     7    3   18 1
     8    4    5 ar
     9    4    6 ar
    10    4   19 1
    11    5   10 1
    12    6   13 1
    13    7   11 1
    14    7   13 am
    15    7   14 2
    16    8   10 1
    17    8   20 1
    18    8   21 1
    19    8   22 1
    20    9   12 1
    21    9   23 1
    22    9   24 1
    23    9   25 1
    24   10   26 1
    25   10   27 1
    26   11   15 1
    27   11   28 1
    28   11   29 1
    29   12   13 1
    30   12   30 1
    31   12   31 1
    32   15   32 1
