@<TRIPOS>MOLECULE
*****
   42    44     0     0     0
SMALL
NO_CHARGES

@<TRIPOS>ATOM
      1 C1          0.7863   -2.5281   -2.5943 C.1       1 <0>         0.0000
      2 C2          1.2202   -1.9899   -1.5965 C.1       1 <0>         0.0000
      3 C3         -1.1733   -4.2937   -5.9094 C.ar      1 <0>         0.0000
      4 C4         -1.7513   -4.7694   -0.8163 C.ar      1 <0>         0.0000
      5 C5         -0.2154   -5.0240   -5.1958 C.ar      1 <0>         0.0000
      6 C6         -1.4658   -2.9767   -5.5353 C.ar      1 <0>         0.0000
      7 C7         -2.2606   -3.5518   -1.2780 C.ar      1 <0>         0.0000
      8 C8         -0.8805   -4.7798    0.2765 C.ar      1 <0>         0.0000
      9 C9          0.4464   -4.4452   -4.1129 C.ar      1 <0>         0.0000
     10 C10        -0.8070   -2.3913   -4.4543 C.ar      1 <0>         0.0000
     11 C11        -1.8892   -2.3545   -0.6652 C.ar      1 <0>         0.0000
     12 C12        -0.5119   -3.5774    0.8876 C.ar      1 <0>         0.0000
     13 C13         0.1560   -3.1221   -3.7307 C.ar      1 <0>         0.0000
     14 C14        -0.9949   -2.3486    0.4168 C.ar      1 <0>         0.0000
     15 C15        -1.2371    0.8535   -0.2475 C.2       1 <0>         0.0000
     16 C16        -1.5426    0.0704    1.0243 C.3       1 <0>         0.0000
     17 C17        -0.4994   -1.0595    1.0473 C.3       1 <0>         0.0000
     18 C18         0.6910   -0.3955    0.2823 C.3       1 <0>         0.0000
     19 C19         0.7348    1.2637   -1.6740 C.3       1 <0>         0.0000
     20 C20         1.7008   -1.3629   -0.3627 C.3       1 <0>         0.0000
     21 N1          0.0278    0.5076   -0.6522 N.am      1 <0>         0.0000
     22 O1         -1.9725    1.6656   -0.8013 O.2       1 <0>         0.0000
     23 O2          2.9092   -0.6059   -0.5717 O.3       1 <0>         0.0000
     24 H1         -1.6888   -4.7482   -6.7514 H         1 <0>         0.0000
     25 H2         -2.0326   -5.6993   -1.3034 H         1 <0>         0.0000
     26 H3          0.0121   -6.0472   -5.4832 H         1 <0>         0.0000
     27 H4         -2.2098   -2.4071   -6.0859 H         1 <0>         0.0000
     28 H5         -2.9341   -3.5332   -2.1305 H         1 <0>         0.0000
     29 H6         -0.4886   -5.7208    0.6544 H         1 <0>         0.0000
     30 H7          1.1803   -5.0114   -3.5469 H         1 <0>         0.0000
     31 H8         -1.0357   -1.3735   -4.1517 H         1 <0>         0.0000
     32 H9         -2.2791   -1.4211   -1.0590 H         1 <0>         0.0000
     33 H10         0.1661   -3.5952    1.7390 H         1 <0>         0.0000
     34 H11        -1.4020    0.7560    1.8682 H         1 <0>         0.0000
     35 H12        -2.5781   -0.2710    1.0417 H         1 <0>         0.0000
     36 H13        -0.1707   -1.2797    2.0665 H         1 <0>         0.0000
     37 H14         1.2906    0.1852    1.0007 H         1 <0>         0.0000
     38 H15         1.5866    1.7974   -1.2389 H         1 <0>         0.0000
     39 H16         0.0271    1.9780   -2.0979 H         1 <0>         0.0000
     40 H17         1.1059    0.6033   -2.4611 H         1 <0>         0.0000
     41 H18         1.8979   -2.1578    0.3709 H         1 <0>         0.0000
     42 H19         3.4703   -1.1122   -1.1810 H         1 <0>         0.0000
@<TRIPOS>BOND
     1    1    2 3
     2    1   13 1
     3    2   20 1
     4    3    6 ar
     5    3    5 ar
     6    3   24 1
     7    4    8 ar
     8    4    7 ar
     9    4   25 1
    10    5    9 ar
    11    5   26 1
    12    6   10 ar
    13    6   27 1
    14    7   11 ar
    15    7   28 1
    16    8   12 ar
    17    8   29 1
    18    9   13 ar
    19    9   30 1
    20   10   13 ar
    21   10   31 1
    22   11   14 ar
    23   11   32 1
    24   12   14 ar
    25   12   33 1
    26   14   17 1
    27   15   16 1
    28   15   21 am
    29   15   22 2
    30   16   17 1
    31   16   34 1
    32   16   35 1
    33   17   18 1
    34   17   36 1
    35   18   20 1
    36   18   21 1
    37   18   37 1
    38   19   21 1
    39   19   38 1
    40   19   39 1
    41   19   40 1
    42   20   23 1
    43   20   41 1
    44   23   42 1
