@<TRIPOS>MOLECULE
*****
   20    19     0     0     0
SMALL
NO_CHARGES

@<TRIPOS>ATOM
      1 C1         -1.7050    1.2952   -0.0038 C.2       1 <0>         0.0000
      2 C2          2.0014    0.6442    0.7579 C.3       1 <0>         0.0000
      3 C3          0.0408   -2.9566   -0.8073 C.3       1 <0>         0.0000
      4 C4         -2.8372    1.4530    0.9989 C.3       1 <0>         0.0000
      5 N1         -1.0610    0.0680    0.0733 N.am      1 <0>         0.0000
      6 O1         -1.3828    2.1716   -0.8050 O.2       1 <0>         0.0000
      7 O2         -0.0733   -0.3401   -2.4119 O.2       1 <0>         0.0000
      8 O3          1.4773    0.6396   -0.5591 O.3       1 <0>         0.0000
      9 O4          0.7565   -1.7991   -0.4109 O.3       1 <0>         0.0000
     10 P1          0.2501   -0.3512   -0.9424 P.3       1 <0>         0.0000
     11 Cl1        -2.1999    1.2949    2.6545 Cl        1 <0>         0.0000
     12 Cl2        -3.5608    3.0647    0.8011 Cl        1 <0>         0.0000
     13 Cl3        -4.0392    0.1762    0.7076 Cl        1 <0>         0.0000
     14 H1          2.8157    1.3698    0.8243 H         1 <0>         0.0000
     15 H2          2.3676   -0.3545    1.0087 H         1 <0>         0.0000
     16 H3          1.2084    0.9250    1.4550 H         1 <0>         0.0000
     17 H4          0.5066   -3.8421   -0.3679 H         1 <0>         0.0000
     18 H5          0.0445   -3.0328   -1.8975 H         1 <0>         0.0000
     19 H6         -0.9896   -2.8760   -0.4531 H         1 <0>         0.0000
     20 H7         -1.3831   -0.6024    0.7659 H         1 <0>         0.0000
@<TRIPOS>BOND
     1    1    4 1
     2    1    5 am
     3    1    6 2
     4    2    8 1
     5    2   14 1
     6    2   15 1
     7    2   16 1
     8    3    9 1
     9    3   17 1
    10    3   18 1
    11    3   19 1
    12    4   11 1
    13    4   12 1
    14    4   13 1
    15    5   10 1
    16    5   20 1
    17    7   10 2
    18    8   10 1
    19    9   10 1
