@<TRIPOS>MOLECULE
*****
   25    26     0     0     0
SMALL
NO_CHARGES

@<TRIPOS>ATOM
      1 C1          5.8496   -3.0955    0.1625 C.ar      1 <0>         0.0000
      2 C2          5.9986   -1.8959   -0.5417 C.ar      1 <0>         0.0000
      3 C3          5.0056   -3.1526    1.2722 C.ar      1 <0>         0.0000
      4 C4          5.3016   -0.7546   -0.1369 C.ar      1 <0>         0.0000
      5 C5          6.4813   -3.9640    4.8910 C.2       1 <0>         0.0000
      6 C6          6.4942   -1.8998    4.0794 C.2       1 <0>         0.0000
      7 C7          7.3460   -2.9374    4.4152 C.2       1 <0>         0.0000
      8 C8          4.3005   -2.0178    1.6856 C.ar      1 <0>         0.0000
      9 C9          4.4566   -0.8189    0.9739 C.ar      1 <0>         0.0000
     10 C10         3.9911   -1.6737    4.0182 C.3       1 <0>         0.0000
     11 N1          5.1999   -3.5954    4.8458 N.2       1 <0>         0.0000
     12 N2          5.2180   -2.3293    4.3716 N.pl3     1 <0>         0.0000
     13 N3          8.7571   -2.9598    4.3914 N.pl3     1 <0>         0.0000
     14 O1          3.4482   -2.1162    2.7639 O.3       1 <0>         0.0000
     15 Cl1         3.5816    0.6170    1.4759 Cl        1 <0>         0.0000
     16 H1          6.3916   -3.9839   -0.1497 H         1 <0>         0.0000
     17 H2          6.6519   -1.8435   -1.4082 H         1 <0>         0.0000
     18 H3          4.8799   -4.0642    1.8486 H         1 <0>         0.0000
     19 H4          5.4025    0.1812   -0.6778 H         1 <0>         0.0000
     20 H5          6.7496   -4.9425    5.2728 H         1 <0>         0.0000
     21 H6          6.6828   -0.9181    3.6665 H         1 <0>         0.0000
     22 H7          3.2285   -1.9200    4.7551 H         1 <0>         0.0000
     23 H8          4.1746   -0.5961    3.9923 H         1 <0>         0.0000
     24 H9          9.1405   -2.3225    3.7007 H         1 <0>         0.0000
     25 H10         9.1176   -3.8919    4.2132 H         1 <0>         0.0000
@<TRIPOS>BOND
     1    1    2 ar
     2    1    3 ar
     3    1   16 1
     4    2    4 ar
     5    2   17 1
     6    3    8 ar
     7    3   18 1
     8    4    9 ar
     9    4   19 1
    10    5    7 1
    11    5   11 2
    12    5   20 1
    13    6    7 2
    14    6   12 1
    15    6   21 1
    16    7   13 1
    17    8    9 ar
    18    8   14 1
    19    9   15 1
    20   10   12 1
    21   10   14 1
    22   10   22 1
    23   10   23 1
    24   11   12 1
    25   13   24 1
    26   13   25 1
