@<TRIPOS>MOLECULE
*****
   42    43     0     0     0
SMALL
NO_CHARGES

@<TRIPOS>ATOM
      1 C1          0.7976   -2.6265    0.1348 C.ar      1 <0>         0.0000
      2 C2          1.7735   -3.4812   -0.3922 C.ar      1 <0>         0.0000
      3 C3          1.4944   -4.9395    1.4871 C.ar      1 <0>         0.0000
      4 C4          0.1598   -2.9034    1.3457 C.ar      1 <0>         0.0000
      5 C5          2.1386   -4.6596    0.2696 C.ar      1 <0>         0.0000
      6 C6          0.5382   -4.0785    2.0200 C.ar      1 <0>         0.0000
      7 C7         -1.9626   -0.6148    0.2684 C.2       1 <0>         0.0000
      8 C8         -2.7564   -1.9215    0.2493 C.3       1 <0>         0.0000
      9 C9         -2.3725   -2.6213    1.5615 C.3       1 <0>         0.0000
     10 C10        -0.9668   -2.0433    1.8989 C.3       1 <0>         0.0000
     11 C11         1.7743   -4.7233    4.7967 C.3       1 <0>         0.0000
     12 C12         3.7945   -5.1608   -1.6053 C.3       1 <0>         0.0000
     13 C13         2.5352   -7.0174   -0.5036 C.3       1 <0>         0.0000
     14 C14         4.3362   -5.7769    0.7550 C.3       1 <0>         0.0000
     15 C15         0.5300   -3.9331    4.4066 C.3       1 <0>         0.0000
     16 C16         3.1904   -5.6367   -0.2727 C.3       1 <0>         0.0000
     17 N1         -1.0472   -0.7200    1.2905 N.am      1 <0>         0.0000
     18 O1         -2.0878    0.3454   -0.4810 O.2       1 <0>         0.0000
     19 O2         -0.1046   -4.4153    3.2035 O.3       1 <0>         0.0000
     20 H1          0.5286   -1.7302   -0.4170 H         1 <0>         0.0000
     21 H2          2.2366   -3.2135   -1.3351 H         1 <0>         0.0000
     22 H3          1.7162   -5.8463    2.0406 H         1 <0>         0.0000
     23 H4         -3.8235   -1.7176    0.1434 H         1 <0>         0.0000
     24 H5         -2.4375   -2.4881   -0.6322 H         1 <0>         0.0000
     25 H6         -3.0698   -2.3411    2.3564 H         1 <0>         0.0000
     26 H7         -2.3492   -3.7094    1.4967 H         1 <0>         0.0000
     27 H8         -0.8560   -1.9497    2.9813 H         1 <0>         0.0000
     28 H9          1.5407   -5.7882    4.8909 H         1 <0>         0.0000
     29 H10         2.5739   -4.6026    4.0608 H         1 <0>         0.0000
     30 H11         2.1476   -4.3643    5.7627 H         1 <0>         0.0000
     31 H12         4.5386   -5.8855   -1.9517 H         1 <0>         0.0000
     32 H13         3.0342   -5.0702   -2.3880 H         1 <0>         0.0000
     33 H14         4.2988   -4.1944   -1.5020 H         1 <0>         0.0000
     34 H15         3.2726   -7.7283   -0.8931 H         1 <0>         0.0000
     35 H16         2.1266   -7.4338    0.4218 H         1 <0>         0.0000
     36 H17         1.7163   -6.9431   -1.2267 H         1 <0>         0.0000
     37 H18         5.0996   -6.4696    0.3830 H         1 <0>         0.0000
     38 H19         4.8141   -4.8090    0.9396 H         1 <0>         0.0000
     39 H20         3.9769   -6.1616    1.7142 H         1 <0>         0.0000
     40 H21         0.7760   -2.8691    4.2911 H         1 <0>         0.0000
     41 H22        -0.2395   -4.0228    5.1782 H         1 <0>         0.0000
     42 H23        -0.2988   -0.0403    1.3578 H         1 <0>         0.0000
@<TRIPOS>BOND
     1    1    2 ar
     2    1    4 ar
     3    1   20 1
     4    2    5 ar
     5    2   21 1
     6    3    5 ar
     7    3    6 ar
     8    3   22 1
     9    4    6 ar
    10    4   10 1
    11    5   16 1
    12    6   19 1
    13    7    8 1
    14    7   17 am
    15    7   18 2
    16    8    9 1
    17    8   23 1
    18    8   24 1
    19    9   10 1
    20    9   25 1
    21    9   26 1
    22   10   17 1
    23   10   27 1
    24   11   15 1
    25   11   28 1
    26   11   29 1
    27   11   30 1
    28   12   16 1
    29   12   31 1
    30   12   32 1
    31   12   33 1
    32   13   16 1
    33   13   34 1
    34   13   35 1
    35   13   36 1
    36   14   16 1
    37   14   37 1
    38   14   38 1
    39   14   39 1
    40   15   19 1
    41   15   40 1
    42   15   41 1
    43   17   42 1
