@<TRIPOS>MOLECULE
*****
   34    36     0     0     0
SMALL
NO_CHARGES

@<TRIPOS>ATOM
      1 C1         -6.6208   -2.1324   -5.3177 C.ar      1 <0>         0.0000
      2 C2         -6.4505   -4.2685   -4.2363 C.ar      1 <0>         0.0000
      3 C3         -5.5569   -1.6890   -4.5188 C.ar      1 <0>         0.0000
      4 C4         -7.0806   -3.4367   -5.1724 C.ar      1 <0>         0.0000
      5 C5         -4.9872   -2.5887   -3.5911 C.ar      1 <0>         0.0000
      6 C6         -3.0935    1.7384   -6.5226 C.3       1 <0>         0.0000
      7 C7         -1.7927    1.3891   -5.8286 C.3       1 <0>         0.0000
      8 C8         -3.7298   -0.9946   -1.8800 C.3       1 <0>         0.0000
      9 C9         -4.0331   -2.3200   -1.2180 C.3       1 <0>         0.0000
     10 C10        -3.1038    1.2202   -5.1110 C.3       1 <0>         0.0000
     11 C11        -3.8017   -2.2894   -2.7051 C.3       1 <0>         0.0000
     12 C12        -2.5022   -2.9236   -3.1969 C.3       1 <0>         0.0000
     13 C13        -5.1088   -0.2578   -4.6898 C.3       1 <0>         0.0000
     14 N1         -5.4368   -3.8496   -3.4823 N.ar      1 <0>         0.0000
     15 N2         -3.6064   -0.1560   -4.8634 N.4       1 <0>         0.0000
     16 Cl1        -8.4004   -4.0303   -6.1311 Cl        1 <0>         0.0000
     17 H1         -7.0917   -1.4703   -6.0395 H         1 <0>         0.0000
     18 H2         -6.7811   -5.2962   -4.1008 H         1 <0>         0.0000
     19 H3         -3.3509    2.7819   -6.6692 H         1 <0>         0.0000
     20 H4         -3.4308    1.0777   -7.3173 H         1 <0>         0.0000
     21 H5         -1.2670    0.4985   -6.1627 H         1 <0>         0.0000
     22 H6         -1.1441    2.1882   -5.4862 H         1 <0>         0.0000
     23 H7         -4.5494   -0.2822   -1.9149 H         1 <0>         0.0000
     24 H8         -2.7525   -0.5519   -1.6972 H         1 <0>         0.0000
     25 H9         -3.2645   -2.7745   -0.6014 H         1 <0>         0.0000
     26 H10        -5.0480   -2.4802   -0.8705 H         1 <0>         0.0000
     27 H11        -3.3627    1.8798   -4.2898 H         1 <0>         0.0000
     28 H12        -1.6747   -2.6990   -2.5177 H         1 <0>         0.0000
     29 H13        -2.2133   -2.5855   -4.2019 H         1 <0>         0.0000
     30 H14        -2.6209   -4.0091   -3.2463 H         1 <0>         0.0000
     31 H15        -5.5544    0.1945   -5.5765 H         1 <0>         0.0000
     32 H16        -5.3500    0.3706   -3.8308 H         1 <0>         0.0000
     33 H17        -3.3205   -0.7803   -5.6264 H         1 <0>         0.0000
     34 H18        -3.1851   -0.5392   -4.0017 H         1 <0>         0.0000
@<TRIPOS>BOND
     1    1    3 ar
     2    1    4 ar
     3    1   17 1
     4    2    4 ar
     5    2   14 ar
     6    2   18 1
     7    3    5 ar
     8    3   13 1
     9    4   16 1
    10    5   11 1
    11    5   14 ar
    12    6    7 1
    13    6   10 1
    14    6   19 1
    15    6   20 1
    16    7   10 1
    17    7   21 1
    18    7   22 1
    19    8    9 1
    20    8   11 1
    21    8   23 1
    22    8   24 1
    23    9   11 1
    24    9   25 1
    25    9   26 1
    26   10   15 1
    27   10   27 1
    28   11   12 1
    29   12   28 1
    30   12   29 1
    31   12   30 1
    32   13   15 1
    33   13   31 1
    34   13   32 1
    35   15   33 1
    36   15   34 1
