@<TRIPOS>MOLECULE
*****
   56    58     0     0     0
SMALL
NO_CHARGES

@<TRIPOS>ATOM
      1 C1          3.3395    0.5289   -6.9942 C.ar      1 <0>         0.0000
      2 C2          5.6091    0.9454   -6.2499 C.ar      1 <0>         0.0000
      3 C3          3.6874    0.9700   -8.2774 C.ar      1 <0>         0.0000
      4 C4          5.9540    1.3829   -7.5251 C.ar      1 <0>         0.0000
      5 C5          4.3021    0.5156   -5.9781 C.ar      1 <0>         0.0000
      6 C6          4.9882    1.3924   -8.5384 C.ar      1 <0>         0.0000
      7 C7         -3.0350   -3.5992   -6.3240 C.3       1 <0>         0.0000
      8 C8         -3.2409   -2.7100   -5.0923 C.3       1 <0>         0.0000
      9 C9         -1.5516   -3.9463   -6.4932 C.3       1 <0>         0.0000
     10 C10        -2.6509   -3.3426   -3.8355 C.3       1 <0>         0.0000
     11 C11        -0.9767   -4.5757   -5.2278 C.3       1 <0>         0.0000
     12 C12         1.6016   -3.8336   -1.4428 C.3       1 <0>         0.0000
     13 C13         0.9873   -3.8535   -2.8421 C.3       1 <0>         0.0000
     14 C14         1.3804   -1.4459   -2.5589 C.3       1 <0>         0.0000
     15 C15         0.2017   -0.4823   -2.7314 C.3       1 <0>         0.0000
     16 C16         3.0490    0.4005   -1.9953 C.3       1 <0>         0.0000
     17 C17         3.9014   -1.8557   -2.6868 C.3       1 <0>         0.0000
     18 C18        -0.5202   -4.1701   -2.7848 C.3       1 <0>         0.0000
     19 C19         2.7702   -0.3851   -4.3715 C.3       1 <0>         0.0000
     20 C20         2.7766   -0.8246   -2.8891 C.3       1 <0>         0.0000
     21 N1         -1.1873   -3.6659   -4.0355 N.4       1 <0>         0.0000
     22 O1          1.1606   -2.5765   -3.4613 O.3       1 <0>         0.0000
     23 O2          4.0666    0.1027   -4.6886 O.3       1 <0>         0.0000
     24 S1          1.2795   -2.1484   -0.8331 S.3       1 <0>         0.0000
     25 Cl1         5.4202    1.9424  -10.1460 Cl        1 <0>         0.0000
     26 H1          2.3199    0.2093   -6.8115 H         1 <0>         0.0000
     27 H2          6.3444    0.9317   -5.4511 H         1 <0>         0.0000
     28 H3          2.9435    0.9852   -9.0677 H         1 <0>         0.0000
     29 H4          6.9656    1.7154   -7.7348 H         1 <0>         0.0000
     30 H5         -3.4062   -3.0918   -7.2181 H         1 <0>         0.0000
     31 H6         -3.6202   -4.5207   -6.2167 H         1 <0>         0.0000
     32 H7         -2.7812   -1.7264   -5.2527 H         1 <0>         0.0000
     33 H8         -4.3044   -2.5304   -4.9097 H         1 <0>         0.0000
     34 H9         -1.4038   -4.6525   -7.3154 H         1 <0>         0.0000
     35 H10        -0.9750   -3.0476   -6.7464 H         1 <0>         0.0000
     36 H11        -2.7141   -2.6742   -2.9743 H         1 <0>         0.0000
     37 H12        -3.1453   -4.2844   -3.5816 H         1 <0>         0.0000
     38 H13        -1.4714   -5.5198   -4.9841 H         1 <0>         0.0000
     39 H14         0.0962   -4.7520   -5.3139 H         1 <0>         0.0000
     40 H15         1.1213   -4.5521   -0.7730 H         1 <0>         0.0000
     41 H16         2.6694   -4.0481   -1.4830 H         1 <0>         0.0000
     42 H17         1.5083   -4.5767   -3.4768 H         1 <0>         0.0000
     43 H18        -0.7363   -0.9924   -2.4947 H         1 <0>         0.0000
     44 H19         0.1506   -0.0991   -3.7538 H         1 <0>         0.0000
     45 H20         0.2829    0.3703   -2.0551 H         1 <0>         0.0000
     46 H21         4.0509    0.7814   -2.2016 H         1 <0>         0.0000
     47 H22         2.3469    1.2177   -2.1837 H         1 <0>         0.0000
     48 H23         3.0004    0.1347   -0.9355 H         1 <0>         0.0000
     49 H24         4.8516   -1.4196   -2.9968 H         1 <0>         0.0000
     50 H25         3.7410   -2.7539   -3.2909 H         1 <0>         0.0000
     51 H26         3.9901   -2.1365   -1.6344 H         1 <0>         0.0000
     52 H27        -0.9717   -3.6418   -1.9428 H         1 <0>         0.0000
     53 H28        -0.7153   -5.2402   -2.6901 H         1 <0>         0.0000
     54 H29         2.0359    0.4125   -4.5393 H         1 <0>         0.0000
     55 H30         2.5215   -1.2364   -5.0175 H         1 <0>         0.0000
     56 H31        -0.6802   -2.7875   -4.2365 H         1 <0>         0.0000
@<TRIPOS>BOND
     1    1    3 ar
     2    1    5 ar
     3    1   26 1
     4    2    4 ar
     5    2    5 ar
     6    2   27 1
     7    3    6 ar
     8    3   28 1
     9    4    6 ar
    10    4   29 1
    11    5   23 1
    12    6   25 1
    13    7    9 1
    14    7    8 1
    15    7   30 1
    16    7   31 1
    17    8   10 1
    18    8   32 1
    19    8   33 1
    20    9   11 1
    21    9   34 1
    22    9   35 1
    23   10   21 1
    24   10   36 1
    25   10   37 1
    26   11   21 1
    27   11   38 1
    28   11   39 1
    29   12   13 1
    30   12   24 1
    31   12   40 1
    32   12   41 1
    33   13   18 1
    34   13   22 1
    35   13   42 1
    36   14   15 1
    37   14   20 1
    38   14   22 1
    39   14   24 1
    40   15   43 1
    41   15   44 1
    42   15   45 1
    43   16   20 1
    44   16   46 1
    45   16   47 1
    46   16   48 1
    47   17   20 1
    48   17   49 1
    49   17   50 1
    50   17   51 1
    51   18   21 1
    52   18   52 1
    53   18   53 1
    54   19   20 1
    55   19   23 1
    56   19   54 1
    57   19   55 1
    58   21   56 1
