@<TRIPOS>MOLECULE
*****
   55    57     0     0     0
SMALL
NO_CHARGES

@<TRIPOS>ATOM
      1 C1         -6.7300    8.4193    4.0579 C.ar      1 <0>         0.0000
      2 C2         -6.4976    9.5798    6.1743 C.ar      1 <0>         0.0000
      3 C3         -7.5143    9.4747    3.5760 C.ar      1 <0>         0.0000
      4 C4         -7.2768   10.6280    5.6943 C.ar      1 <0>         0.0000
      5 C5         -6.2175    8.4681    5.3621 C.ar      1 <0>         0.0000
      6 C6         -7.7840   10.5699    4.3917 C.ar      1 <0>         0.0000
      7 C7          0.9236    1.0967    0.2622 C.3       1 <0>         0.0000
      8 C8          0.3423    0.3063    1.4408 C.3       1 <0>         0.0000
      9 C9          0.9001    2.5985    0.5708 C.3       1 <0>         0.0000
     10 C10        -1.0375    0.8401    1.8317 C.3       1 <0>         0.0000
     11 C11        -0.5016    3.0437    0.9931 C.3       1 <0>         0.0000
     12 C12        -1.3445    3.5663    4.9159 C.3       1 <0>         0.0000
     13 C13        -2.0290    3.9718    3.6104 C.3       1 <0>         0.0000
     14 C14        -3.9208    4.1389    5.1227 C.3       1 <0>         0.0000
     15 C15        -5.1400    3.2927    4.7319 C.3       1 <0>         0.0000
     16 C16        -5.0249    4.9882    7.2736 C.3       1 <0>         0.0000
     17 C17        -2.9837    6.1539    6.3873 C.3       1 <0>         0.0000
     18 C18        -2.2469    2.7803    2.6652 C.3       1 <0>         0.0000
     19 C19        -5.1475    6.3323    5.1495 C.3       1 <0>         0.0000
     20 C20        -4.2653    5.3945    5.9981 C.3       1 <0>         0.0000
     21 N1         -0.9784    2.2723    2.1472 N.3       1 <0>         0.0000
     22 O1         -3.2699    4.6109    3.9365 O.3       1 <0>         0.0000
     23 O2         -5.4449    7.4972    5.9294 O.3       1 <0>         0.0000
     24 S1         -2.7058    2.9940    5.9853 S.3       1 <0>         0.0000
     25 Cl1        -8.7699   11.8942    3.7820 Cl        1 <0>         0.0000
     26 H1         -6.5287    7.5772    3.4065 H         1 <0>         0.0000
     27 H2         -6.0945    9.6042    7.1824 H         1 <0>         0.0000
     28 H3         -7.9109    9.4378    2.5661 H         1 <0>         0.0000
     29 H4         -7.4912   11.4854    6.3245 H         1 <0>         0.0000
     30 H5          0.3229    0.9021   -0.6369 H         1 <0>         0.0000
     31 H6          1.9437    0.7638    0.0400 H         1 <0>         0.0000
     32 H7          0.2631   -0.7585    1.1930 H         1 <0>         0.0000
     33 H8          1.0095    0.3928    2.3071 H         1 <0>         0.0000
     34 H9          1.6003    2.8198    1.3854 H         1 <0>         0.0000
     35 H10         1.2183    3.1796   -0.3024 H         1 <0>         0.0000
     36 H11        -1.7547    0.6418    1.0099 H         1 <0>         0.0000
     37 H12        -1.4057    0.3099    2.7161 H         1 <0>         0.0000
     38 H13        -0.4890    4.1060    1.2554 H         1 <0>         0.0000
     39 H14        -1.1979    2.9334    0.1373 H         1 <0>         0.0000
     40 H15        -0.6428    2.7485    4.7413 H         1 <0>         0.0000
     41 H16        -0.8214    4.4075    5.3758 H         1 <0>         0.0000
     42 H17        -1.4354    4.7391    3.1042 H         1 <0>         0.0000
     43 H18        -4.8231    2.4814    4.0757 H         1 <0>         0.0000
     44 H19        -5.8805    3.8916    4.1953 H         1 <0>         0.0000
     45 H20        -5.6186    2.8510    5.6089 H         1 <0>         0.0000
     46 H21        -5.1920    5.8676    7.8997 H         1 <0>         0.0000
     47 H22        -6.0038    4.5533    7.0505 H         1 <0>         0.0000
     48 H23        -4.4468    4.2625    7.8535 H         1 <0>         0.0000
     49 H24        -3.2451    7.0704    6.9203 H         1 <0>         0.0000
     50 H25        -2.4062    6.4307    5.5011 H         1 <0>         0.0000
     51 H26        -2.3568    5.5434    7.0418 H         1 <0>         0.0000
     52 H27        -2.9407    3.0887    1.8644 H         1 <0>         0.0000
     53 H28        -2.7369    1.9821    3.2294 H         1 <0>         0.0000
     54 H29        -6.0906    5.8468    4.8754 H         1 <0>         0.0000
     55 H30        -4.6168    6.6199    4.2361 H         1 <0>         0.0000
@<TRIPOS>BOND
     1    1    3 ar
     2    1    5 ar
     3    1   26 1
     4    2    4 ar
     5    2    5 ar
     6    2   27 1
     7    3    6 ar
     8    3   28 1
     9    4    6 ar
    10    4   29 1
    11    5   23 1
    12    6   25 1
    13    7    9 1
    14    7    8 1
    15    7   30 1
    16    7   31 1
    17    8   10 1
    18    8   32 1
    19    8   33 1
    20    9   11 1
    21    9   34 1
    22    9   35 1
    23   10   21 1
    24   10   36 1
    25   10   37 1
    26   11   21 1
    27   11   38 1
    28   11   39 1
    29   12   13 1
    30   12   24 1
    31   12   40 1
    32   12   41 1
    33   13   18 1
    34   13   22 1
    35   13   42 1
    36   14   15 1
    37   14   20 1
    38   14   22 1
    39   14   24 1
    40   15   43 1
    41   15   44 1
    42   15   45 1
    43   16   20 1
    44   16   46 1
    45   16   47 1
    46   16   48 1
    47   17   20 1
    48   17   49 1
    49   17   50 1
    50   17   51 1
    51   18   21 1
    52   18   52 1
    53   18   53 1
    54   19   20 1
    55   19   23 1
    56   19   54 1
    57   19   55 1
