@<TRIPOS>MOLECULE
*****
   42    43     0     0     0
SMALL
NO_CHARGES

@<TRIPOS>ATOM
      1 C1          3.0883   -0.5991    3.2080 C.ar      1 <0>         0.0000
      2 C2          4.0446   -0.2027    4.1460 C.ar      1 <0>         0.0000
      3 C3          2.9018   -1.4699    5.8336 C.ar      1 <0>         0.0000
      4 C4          2.0204   -1.4296    3.5507 C.ar      1 <0>         0.0000
      5 C5          3.9663   -0.6275    5.4787 C.ar      1 <0>         0.0000
      6 C6          1.9513   -1.8686    4.8873 C.ar      1 <0>         0.0000
      7 C7         -1.2486   -1.4667    1.8794 C.2       1 <0>         0.0000
      8 C8         -0.3882   -1.4725    0.6135 C.3       1 <0>         0.0000
      9 C9          1.0470   -1.3062    1.1363 C.3       1 <0>         0.0000
     10 C10         0.9877   -1.9152    2.5526 C.3       1 <0>         0.0000
     11 C11        -0.4633   -4.1090    6.5383 C.3       1 <0>         0.0000
     12 C12         5.0011    1.3700    6.5963 C.3       1 <0>         0.0000
     13 C13         6.4197   -0.6373    6.0248 C.3       1 <0>         0.0000
     14 C14         4.7748   -0.7482    7.9010 C.3       1 <0>         0.0000
     15 C15         0.7674   -3.2190    6.5130 C.3       1 <0>         0.0000
     16 C16         5.0231   -0.1722    6.4957 C.3       1 <0>         0.0000
     17 N1         -0.3911   -1.5905    2.9427 N.am      1 <0>         0.0000
     18 O1         -2.4699   -1.3840    1.9421 O.2       1 <0>         0.0000
     19 O2          0.8981   -2.7038    5.1820 O.3       1 <0>         0.0000
     20 H1          3.1889   -0.2527    2.1843 H         1 <0>         0.0000
     21 H2          4.8541    0.4451    3.8237 H         1 <0>         0.0000
     22 H3          2.8131   -1.8198    6.8522 H         1 <0>         0.0000
     23 H4         -0.5371   -2.4390    0.1178 H         1 <0>         0.0000
     24 H5         -0.7112   -0.6931   -0.0792 H         1 <0>         0.0000
     25 H6          1.8057   -1.7861    0.5133 H         1 <0>         0.0000
     26 H7          1.2825   -0.2406    1.2064 H         1 <0>         0.0000
     27 H8          1.0916   -3.0094    2.4776 H         1 <0>         0.0000
     28 H9         -1.3622   -3.5385    6.2864 H         1 <0>         0.0000
     29 H10        -0.3616   -4.9297    5.8224 H         1 <0>         0.0000
     30 H11        -0.5947   -4.5344    7.5382 H         1 <0>         0.0000
     31 H12         5.7486    1.7153    7.3197 H         1 <0>         0.0000
     32 H13         5.2228    1.8420    5.6350 H         1 <0>         0.0000
     33 H14         4.0182    1.7247    6.9236 H         1 <0>         0.0000
     34 H15         7.1873   -0.3223    6.7408 H         1 <0>         0.0000
     35 H16         6.4586   -1.7284    5.9393 H         1 <0>         0.0000
     36 H17         6.6801   -0.2166    5.0495 H         1 <0>         0.0000
     37 H18         5.5522   -0.3952    8.5863 H         1 <0>         0.0000
     38 H19         3.8096   -0.4288    8.3085 H         1 <0>         0.0000
     39 H20         4.8070   -1.8430    7.9050 H         1 <0>         0.0000
     40 H21         1.6689   -3.7871    6.7763 H         1 <0>         0.0000
     41 H22         0.6644   -2.3874    7.2219 H         1 <0>         0.0000
     42 H23        -0.7419   -1.8622    3.8530 H         1 <0>         0.0000
@<TRIPOS>BOND
     1    1    2 ar
     2    1    4 ar
     3    1   20 1
     4    2    5 ar
     5    2   21 1
     6    3    5 ar
     7    3    6 ar
     8    3   22 1
     9    4    6 ar
    10    4   10 1
    11    5   16 1
    12    6   19 1
    13    7    8 1
    14    7   17 am
    15    7   18 2
    16    8    9 1
    17    8   23 1
    18    8   24 1
    19    9   10 1
    20    9   25 1
    21    9   26 1
    22   10   17 1
    23   10   27 1
    24   11   15 1
    25   11   28 1
    26   11   29 1
    27   11   30 1
    28   12   16 1
    29   12   31 1
    30   12   32 1
    31   12   33 1
    32   13   16 1
    33   13   34 1
    34   13   35 1
    35   13   36 1
    36   14   16 1
    37   14   37 1
    38   14   38 1
    39   14   39 1
    40   15   19 1
    41   15   40 1
    42   15   41 1
    43   17   42 1
