@<TRIPOS>MOLECULE
*****
   24    24     0     0     0
SMALL
NO_CHARGES

@<TRIPOS>ATOM
      1 C1          1.1749    0.0498    1.4722 C.1       1 <0>         0.0000
      2 C2         -0.2377   -1.9915    1.2556 C.2       1 <0>         0.0000
      3 C3         -1.1379    0.2659    0.6177 C.3       1 <0>         0.0000
      4 C4          0.6631   -0.8318   -0.7832 C.3       1 <0>         0.0000
      5 C5         -0.8850    1.5565   -0.1620 C.3       1 <0>         0.0000
      6 C6          0.8424    0.5038   -1.5056 C.3       1 <0>         0.0000
      7 C7          0.1390   -0.6237    0.6681 C.3       1 <0>         0.0000
      8 C8          0.1325   -3.5714    2.9698 C.3       1 <0>         0.0000
      9 N1          1.9885    0.6420    2.0543 N.1       1 <0>         0.0000
     10 N2         -0.4312    1.2311   -1.5183 N.3       1 <0>         0.0000
     11 O1         -1.0725   -2.7121    0.7465 O.2       1 <0>         0.0000
     12 O2          0.4458   -2.2928    2.3710 O.3       1 <0>         0.0000
     13 H1         -1.4708    0.4943    1.6348 H         1 <0>         0.0000
     14 H2         -1.9158   -0.3183    0.1198 H         1 <0>         0.0000
     15 H3         -0.0797   -1.4373   -1.3083 H         1 <0>         0.0000
     16 H4          1.6085   -1.3824   -0.7604 H         1 <0>         0.0000
     17 H5         -1.8234    2.1158   -0.2322 H         1 <0>         0.0000
     18 H6         -0.1647    2.1845    0.3910 H         1 <0>         0.0000
     19 H7          1.6564    1.0746   -1.0255 H         1 <0>         0.0000
     20 H8          1.1432    0.3078   -2.5397 H         1 <0>         0.0000
     21 H9          0.7742   -3.6412    3.8469 H         1 <0>         0.0000
     22 H10         0.3450   -4.3788    2.2659 H         1 <0>         0.0000
     23 H11        -0.9214   -3.6055    3.2542 H         1 <0>         0.0000
     24 H12        -0.3276    2.0880   -2.0565 H         1 <0>         0.0000
@<TRIPOS>BOND
     1    1    7 1
     2    1    9 3
     3    2    7 1
     4    2   11 2
     5    2   12 1
     6    3    5 1
     7    3    7 1
     8    3   13 1
     9    3   14 1
    10    4    6 1
    11    4    7 1
    12    4   15 1
    13    4   16 1
    14    5   10 1
    15    5   17 1
    16    5   18 1
    17    6   10 1
    18    6   19 1
    19    6   20 1
    20    8   12 1
    21    8   21 1
    22    8   22 1
    23    8   23 1
    24   10   24 1
