@<TRIPOS>MOLECULE
*****
   18    18     0     0     0
SMALL
NO_CHARGES

@<TRIPOS>ATOM
      1 C1          1.5204    0.4727    1.5759 C.2       1 <0>         0.0000
      2 C2          0.2891    0.0196    1.0414 C.2       1 <0>         0.0000
      3 C3          1.4575    0.3171    2.9431 C.2       1 <0>         0.0000
      4 C4         -0.4888   -0.3990    2.0983 C.2       1 <0>         0.0000
      5 C5         -2.9311   -0.0185    1.5512 C.3       1 <0>         0.0000
      6 C6         -1.8531   -0.9585    2.1290 C.3       1 <0>         0.0000
      7 N1          0.2315   -0.2133    3.2493 N.pl3     1 <0>         0.0000
      8 N2         -1.9611   -2.2398    1.4387 N.3       1 <0>         0.0000
      9 H1          2.3618    0.8698    1.0258 H         1 <0>         0.0000
     10 H2          0.0037    0.0023   -0.0014 H         1 <0>         0.0000
     11 H3          2.1737    0.5367    3.7222 H         1 <0>         0.0000
     12 H4         -2.6872    0.2515    0.5179 H         1 <0>         0.0000
     13 H5         -3.9228   -0.4848    1.5550 H         1 <0>         0.0000
     14 H6         -3.0084    0.9068    2.1330 H         1 <0>         0.0000
     15 H7         -2.1668   -1.1861    3.1694 H         1 <0>         0.0000
     16 H8         -0.0899   -0.4321    4.1825 H         1 <0>         0.0000
     17 H9         -2.8559   -2.5138    1.0938 H         1 <0>         0.0000
     18 H10        -1.1994   -2.8793    1.5132 H         1 <0>         0.0000
@<TRIPOS>BOND
     1    1    2 1
     2    1    3 2
     3    1    9 1
     4    2    4 2
     5    2   10 1
     6    3    7 1
     7    3   11 1
     8    4    6 1
     9    4    7 1
    10    5    6 1
    11    5   12 1
    12    5   13 1
    13    5   14 1
    14    6    8 1
    15    6   15 1
    16    7   16 1
    17    8   17 1
    18    8   18 1
