@<TRIPOS>MOLECULE
*****
   21    21     0     0     0
SMALL
NO_CHARGES

@<TRIPOS>ATOM
      1 C1          1.9500   -0.7781   -0.0130 C.ar      1 <0>         0.0000
      2 C2          0.7693   -0.4470    0.6596 C.ar      1 <0>         0.0000
      3 C3          3.0177   -1.3384    0.6879 C.ar      1 <0>         0.0000
      4 C4          0.6677   -0.6738    2.0329 C.ar      1 <0>         0.0000
      5 C5          2.9431   -1.5865    2.0693 C.ar      1 <0>         0.0000
      6 C6          1.7507   -1.2320    2.7164 C.ar      1 <0>         0.0000
      7 C7          5.1394   -1.1258    3.1923 C.2       1 <0>         0.0000
      8 C8          4.1378   -2.1891    2.7855 C.3       1 <0>         0.0000
      9 N1          6.1415   -0.7303    2.4841 N.2       1 <0>         0.0000
     10 N2          4.9785   -0.5741    4.4609 N.pl3     1 <0>         0.0000
     11 O1          6.2323   -1.4578    1.2541 O.3       1 <0>         0.0000
     12 Cl1         1.5655   -1.4824    4.4599 Cl        1 <0>         0.0000
     13 H1          2.0382   -0.6002   -1.0812 H         1 <0>         0.0000
     14 H2         -0.0702   -0.0128    0.1237 H         1 <0>         0.0000
     15 H3          3.9439   -1.5828    0.1768 H         1 <0>         0.0000
     16 H4         -0.2388   -0.4214    2.5736 H         1 <0>         0.0000
     17 H5          3.8242   -2.7320    3.6789 H         1 <0>         0.0000
     18 H6          4.6397   -2.8894    2.1173 H         1 <0>         0.0000
     19 H7          4.0118   -0.4745    4.7526 H         1 <0>         0.0000
     20 H8          5.5210    0.2729    4.6001 H         1 <0>         0.0000
     21 H9          7.0633   -1.1158    0.8895 H         1 <0>         0.0000
@<TRIPOS>BOND
     1    1    2 ar
     2    1    3 ar
     3    1   13 1
     4    2    4 ar
     5    2   14 1
     6    3    5 ar
     7    3   15 1
     8    4    6 ar
     9    4   16 1
    10    5    6 ar
    11    5    8 1
    12    6   12 1
    13    7    8 1
    14    7    9 2
    15    7   10 1
    16    8   17 1
    17    8   18 1
    18    9   11 1
    19   10   19 1
    20   10   20 1
    21   11   21 1
