@<TRIPOS>MOLECULE
*****
   22    22     0     0     0
SMALL
NO_CHARGES

@<TRIPOS>ATOM
      1 C1          1.4647   -0.9150   -0.0421 C.ar      1 <0>         0.0000
      2 C2          0.5486   -0.4518    0.9031 C.ar      1 <0>         0.0000
      3 C3          2.0296   -1.1973    2.6844 C.ar      1 <0>         0.0000
      4 C4          2.6627   -1.5177    0.3525 C.ar      1 <0>         0.0000
      5 C5          0.8432   -0.5968    2.2604 C.ar      1 <0>         0.0000
      6 C6          2.9329   -1.6538    1.7233 C.ar      1 <0>         0.0000
      7 C7          5.6000   -1.8453   -1.7564 C.2       1 <0>         0.0000
      8 C8          4.5495   -1.0711   -1.0150 C.3       1 <0>         0.0000
      9 N1          5.9446   -1.3873   -2.9138 N.2       1 <0>         0.0000
     10 N2          6.1632   -2.9175   -1.1028 N.pl3     1 <0>         0.0000
     11 O1          6.9892   -2.2010   -3.4509 O.3       1 <0>         0.0000
     12 O2          3.5318   -2.0108   -0.5901 O.3       1 <0>         0.0000
     13 Cl1        -0.2972   -0.0211    3.4619 Cl        1 <0>         0.0000
     14 Cl2         4.4223   -2.4161    2.2386 Cl        1 <0>         0.0000
     15 H1          1.2576   -0.8258   -1.1046 H         1 <0>         0.0000
     16 H2         -0.3820    0.0113    0.5922 H         1 <0>         0.0000
     17 H3          2.2479   -1.3123    3.7404 H         1 <0>         0.0000
     18 H4          4.1209   -0.3104   -1.6724 H         1 <0>         0.0000
     19 H5          4.9877   -0.5919   -0.1317 H         1 <0>         0.0000
     20 H6          6.6945   -3.5434   -1.6972 H         1 <0>         0.0000
     21 H7          5.5521   -3.3720   -0.4340 H         1 <0>         0.0000
     22 H8          7.1386   -1.7964   -4.3193 H         1 <0>         0.0000
@<TRIPOS>BOND
     1    1    2 ar
     2    1    4 ar
     3    1   15 1
     4    2    5 ar
     5    2   16 1
     6    3    5 ar
     7    3    6 ar
     8    3   17 1
     9    4    6 ar
    10    4   12 1
    11    5   13 1
    12    6   14 1
    13    7    8 1
    14    7    9 2
    15    7   10 1
    16    8   12 1
    17    8   18 1
    18    8   19 1
    19    9   11 1
    20   10   20 1
    21   10   21 1
    22   11   22 1
