@<TRIPOS>MOLECULE
*****
   39    40     0     0     0
SMALL
NO_CHARGES

@<TRIPOS>ATOM
      1 C1          1.3887    1.1690    4.3250 C.2       1 <0>         0.0000
      2 C2          1.9540    1.7470    3.2163 C.2       1 <0>         0.0000
      3 C3          1.1188    3.3005    4.9368 C.2       1 <0>         0.0000
      4 C4          0.3968    1.1470    0.7411 C.3       1 <0>         0.0000
      5 C5          2.0131   -0.4591    0.1460 C.3       1 <0>         0.0000
      6 C6         -0.1083    0.4006   -0.5179 C.3       1 <0>         0.0000
      7 C7          0.7167   -0.9108   -0.5506 C.3       1 <0>         0.0000
      8 C8          0.7190    4.4842    5.7665 C.3       1 <0>         0.0000
      9 C9         -1.6260    0.2465   -0.5919 C.3       1 <0>         0.0000
     10 C10         0.0692   -2.0792    0.1953 C.3       1 <0>         0.0000
     11 C11         2.2262   -0.7964    5.6733 C.3       1 <0>         0.0000
     12 C12         1.2614   -0.3076    4.5791 C.3       1 <0>         0.0000
     13 C13         2.5248    1.0746    1.9945 C.3       1 <0>         0.0000
     14 N1          0.9281    2.0578    5.2841 N.2       1 <0>         0.0000
     15 N2          1.5095    0.3318    1.2627 N.3       1 <0>         0.0000
     16 O1          0.9239   -1.2514   -1.9299 O.3       1 <0>         0.0000
     17 S1          1.8953    3.4845    3.3725 S.3       1 <0>         0.0000
     18 H1          0.7284    2.1650    0.4766 H         1 <0>         0.0000
     19 H2         -0.3787    1.2508    1.5077 H         1 <0>         0.0000
     20 H3          2.6262   -1.2937    0.5078 H         1 <0>         0.0000
     21 H4          2.6156    0.1284   -0.5721 H         1 <0>         0.0000
     22 H5          0.2206    0.9526   -1.4047 H         1 <0>         0.0000
     23 H6          1.5710    5.1431    5.9632 H         1 <0>         0.0000
     24 H7         -0.0536    5.0789    5.2671 H         1 <0>         0.0000
     25 H8          0.3230    4.1251    6.7185 H         1 <0>         0.0000
     26 H9         -2.0249   -0.2595    0.2935 H         1 <0>         0.0000
     27 H10        -1.9183   -0.3246   -1.4790 H         1 <0>         0.0000
     28 H11        -2.1071    1.2289   -0.6540 H         1 <0>         0.0000
     29 H12        -0.8798   -2.3614   -0.2679 H         1 <0>         0.0000
     30 H13        -0.1080   -1.8218    1.2429 H         1 <0>         0.0000
     31 H14         0.7316   -2.9544    0.1759 H         1 <0>         0.0000
     32 H15         3.2682   -0.6314    5.3778 H         1 <0>         0.0000
     33 H16         2.0910   -1.8670    5.8621 H         1 <0>         0.0000
     34 H17         2.0527   -0.2572    6.6092 H         1 <0>         0.0000
     35 H18         0.2299   -0.5149    4.8873 H         1 <0>         0.0000
     36 H19         1.4300   -0.8468    3.6435 H         1 <0>         0.0000
     37 H20         3.0193    1.8295    1.3536 H         1 <0>         0.0000
     38 H21         3.3053    0.3672    2.3001 H         1 <0>         0.0000
     39 H22         1.3154   -2.1387   -1.9648 H         1 <0>         0.0000
@<TRIPOS>BOND
     1    1    2 2
     2    1   12 1
     3    1   14 1
     4    2   13 1
     5    2   17 1
     6    3    8 1
     7    3   14 2
     8    3   17 1
     9    4    6 1
    10    4   15 1
    11    4   18 1
    12    4   19 1
    13    5    7 1
    14    5   15 1
    15    5   20 1
    16    5   21 1
    17    6    7 1
    18    6    9 1
    19    6   22 1
    20    7   10 1
    21    7   16 1
    22    8   23 1
    23    8   24 1
    24    8   25 1
    25    9   26 1
    26    9   27 1
    27    9   28 1
    28   10   29 1
    29   10   30 1
    30   10   31 1
    31   11   12 1
    32   11   32 1
    33   11   33 1
    34   11   34 1
    35   12   35 1
    36   12   36 1
    37   13   15 1
    38   13   37 1
    39   13   38 1
    40   16   39 1
