@<TRIPOS>MOLECULE
*****
   44    46     0     0     0
SMALL
NO_CHARGES

@<TRIPOS>ATOM
      1 C1         -4.5251   -5.7645    1.9275 C.ar      1 <0>         0.0000
      2 C2         -5.4003   -4.8726    1.3024 C.ar      1 <0>         0.0000
      3 C3         -2.9069   -5.3956    0.1972 C.ar      1 <0>         0.0000
      4 C4         -2.7202   -2.3632   -3.1452 C.2       1 <0>         0.0000
      5 C5         -3.2652   -6.0485    1.3825 C.ar      1 <0>         0.0000
      6 C6         -5.0543   -4.2224    0.1112 C.ar      1 <0>         0.0000
      7 C7         -3.7840   -4.5015   -0.4149 C.ar      1 <0>         0.0000
      8 C8         -2.9660   -3.6462   -3.7252 C.2       1 <0>         0.0000
      9 C9         -2.9808   -2.5636   -1.7923 C.2       1 <0>         0.0000
     10 C10        -2.2091   -1.1798   -3.8454 C.2       1 <0>         0.0000
     11 C11        -4.8301   -0.0715   -2.9682 C.3       1 <0>         0.0000
     12 C12        -3.6225    2.0096   -3.0896 C.3       1 <0>         0.0000
     13 C13        -5.5695    0.3203   -4.2491 C.3       1 <0>         0.0000
     14 C14        -4.3916    2.3587   -4.3637 C.3       1 <0>         0.0000
     15 C15        -2.3331   -7.0442    2.0328 C.3       1 <0>         0.0000
     16 C16        -6.0000   -3.2682   -0.5758 C.3       1 <0>         0.0000
     17 C17        -2.8363   -4.0291   -5.1671 C.3       1 <0>         0.0000
     18 N1         -3.3682   -4.5327   -2.8136 N.2       1 <0>         0.0000
     19 N2         -2.4987    0.0755   -3.7486 N.2       1 <0>         0.0000
     20 N3         -3.3693   -3.8585   -1.6238 N.pl3     1 <0>         0.0000
     21 N4         -3.4911    0.5529   -2.9151 N.pl3     1 <0>         0.0000
     22 O1         -5.6814    1.7385   -4.3707 O.3       1 <0>         0.0000
     23 Cl1        -2.8051   -1.4909   -0.4615 Cl        1 <0>         0.0000
     24 H1         -4.8299   -6.2505    2.8519 H         1 <0>         0.0000
     25 H2         -6.3753   -4.6819    1.7448 H         1 <0>         0.0000
     26 H3         -1.9394   -5.5747   -0.2644 H         1 <0>         0.0000
     27 H4         -1.4145   -1.3777   -4.5657 H         1 <0>         0.0000
     28 H5         -5.3861    0.2933   -2.0983 H         1 <0>         0.0000
     29 H6         -4.7571   -1.1543   -2.8880 H         1 <0>         0.0000
     30 H7         -2.6207    2.4428   -3.1086 H         1 <0>         0.0000
     31 H8         -4.1570    2.3997   -2.2166 H         1 <0>         0.0000
     32 H9         -5.0459   -0.0923   -5.1251 H         1 <0>         0.0000
     33 H10        -6.5914   -0.0700   -4.2379 H         1 <0>         0.0000
     34 H11        -4.5682    3.4355   -4.4366 H         1 <0>         0.0000
     35 H12        -3.8142    2.0330   -5.2418 H         1 <0>         0.0000
     36 H13        -2.4650   -8.0430    1.5997 H         1 <0>         0.0000
     37 H14        -1.2855   -6.7621    1.8919 H         1 <0>         0.0000
     38 H15        -2.5215   -7.1235    3.1073 H         1 <0>         0.0000
     39 H16        -5.6953   -2.2272   -0.4221 H         1 <0>         0.0000
     40 H17        -6.0258   -3.4468   -1.6550 H         1 <0>         0.0000
     41 H18        -7.0146   -3.3803   -0.1853 H         1 <0>         0.0000
     42 H19        -1.8036   -3.9146   -5.5160 H         1 <0>         0.0000
     43 H20        -3.1333   -5.0715   -5.3014 H         1 <0>         0.0000
     44 H21        -3.4665   -3.3984   -5.8031 H         1 <0>         0.0000
@<TRIPOS>BOND
     1    1    2 ar
     2    1    5 ar
     3    1   24 1
     4    2    6 ar
     5    2   25 1
     6    3    5 ar
     7    3    7 ar
     8    3   26 1
     9    4    8 1
    10    4    9 2
    11    4   10 1
    12    5   15 1
    13    6    7 ar
    14    6   16 1
    15    7   20 1
    16    8   17 1
    17    8   18 2
    18    9   20 1
    19    9   23 1
    20   10   19 2
    21   10   27 1
    22   11   13 1
    23   11   21 1
    24   11   28 1
    25   11   29 1
    26   12   14 1
    27   12   21 1
    28   12   30 1
    29   12   31 1
    30   13   22 1
    31   13   32 1
    32   13   33 1
    33   14   22 1
    34   14   34 1
    35   14   35 1
    36   15   36 1
    37   15   37 1
    38   15   38 1
    39   16   39 1
    40   16   40 1
    41   16   41 1
    42   17   42 1
    43   17   43 1
    44   17   44 1
    45   18   20 1
    46   19   21 1
