@<TRIPOS>MOLECULE
*****
   37    40     0     0     0
SMALL
NO_CHARGES

@<TRIPOS>ATOM
      1 C1          1.2656   -4.6027    4.5088 C.ar      1 <0>         0.0000
      2 C2          1.7378   -3.2877    4.6199 C.ar      1 <0>         0.0000
      3 C3          1.4936   -5.3527    3.3482 C.ar      1 <0>         0.0000
      4 C4          3.4950   -8.1922   -2.9343 C.ar      1 <0>         0.0000
      5 C5          3.8457   -8.6388   -4.2159 C.ar      1 <0>         0.0000
      6 C6          2.4504   -2.6929    3.5692 C.ar      1 <0>         0.0000
      7 C7          1.9067  -10.0288   -2.6485 C.ar      1 <0>         0.0000
      8 C8          2.2033   -4.7616    2.3000 C.ar      1 <0>         0.0000
      9 C9          2.5419   -8.8648   -2.1449 C.ar      1 <0>         0.0000
     10 C10         3.2052   -9.7741   -4.6850 C.ar      1 <0>         0.0000
     11 C11         2.2573  -10.4466   -3.9162 C.ar      1 <0>         0.0000
     12 C12         2.6638   -3.4541    2.4315 C.ar      1 <0>         0.0000
     13 C13         2.5940   -5.3010    0.9623 C.2       1 <0>         0.0000
     14 C14         2.2030   -8.3355   -0.8047 C.2       1 <0>         0.0000
     15 C15         2.3467  -11.4253   -5.9286 C.3       1 <0>         0.0000
     16 C16         1.5278   -9.2165    0.2255 C.3       1 <0>         0.0000
     17 N1          3.2671   -4.5296    0.1600 N.2       1 <0>         0.0000
     18 N2          2.5251   -7.1027   -0.5779 N.2       1 <0>         0.0000
     19 N3          2.2353   -6.5763    0.6479 N.pl3     1 <0>         0.0000
     20 O1          2.7876   -1.9851    0.1858 O.2       1 <0>         0.0000
     21 O2          4.9548   -2.8444    1.1662 O.2       1 <0>         0.0000
     22 O3          3.3831  -10.4286   -5.8814 O.3       1 <0>         0.0000
     23 O4          1.7999  -11.5515   -4.6053 O.3       1 <0>         0.0000
     24 S1          3.5276   -3.0241    0.9013 S.o2      1 <0>         0.0000
     25 H1          0.7157   -5.0467    5.3336 H         1 <0>         0.0000
     26 H2          1.5497   -2.7242    5.5294 H         1 <0>         0.0000
     27 H3          1.1165   -6.3709    3.2888 H         1 <0>         0.0000
     28 H4          3.9623   -7.3015   -2.5298 H         1 <0>         0.0000
     29 H5          4.5885   -8.1204   -4.8135 H         1 <0>         0.0000
     30 H6          2.8215   -1.6750    3.6429 H         1 <0>         0.0000
     31 H7          1.1520  -10.5714   -2.0907 H         1 <0>         0.0000
     32 H8          1.5591  -11.0945   -6.6186 H         1 <0>         0.0000
     33 H9          2.7781  -12.3805   -6.2351 H         1 <0>         0.0000
     34 H10         2.0542   -9.1595    1.1859 H         1 <0>         0.0000
     35 H11         0.4851   -8.9162    0.3910 H         1 <0>         0.0000
     36 H12         1.5298  -10.2649   -0.0669 H         1 <0>         0.0000
     37 H13         1.6927   -7.0989    1.3276 H         1 <0>         0.0000
@<TRIPOS>BOND
     1    1    2 ar
     2    1    3 ar
     3    1   25 1
     4    2    6 ar
     5    2   26 1
     6    3    8 ar
     7    3   27 1
     8    4    5 ar
     9    4    9 ar
    10    4   28 1
    11    5   10 ar
    12    5   29 1
    13    6   12 ar
    14    6   30 1
    15    7    9 ar
    16    7   11 ar
    17    7   31 1
    18    8   12 ar
    19    8   13 1
    20    9   14 1
    21   10   11 ar
    22   10   22 1
    23   11   23 1
    24   12   24 1
    25   13   17 2
    26   13   19 1
    27   14   16 1
    28   14   18 2
    29   15   22 1
    30   15   23 1
    31   15   32 1
    32   15   33 1
    33   16   34 1
    34   16   35 1
    35   16   36 1
    36   17   24 1
    37   18   19 1
    38   19   37 1
    39   20   24 2
    40   21   24 2
