@<TRIPOS>MOLECULE
*****
   20    20     0     0     0
SMALL
NO_CHARGES

@<TRIPOS>ATOM
      1 C1          2.8242   -0.5075    5.3356 C.2       1 <0>         0.0000
      2 C2          2.7000    0.8930    5.1728 C.2       1 <0>         0.0000
      3 C3          2.2928    1.1042    3.8542 C.2       1 <0>         0.0000
      4 C4          2.8227   -0.3646    0.9154 C.2       1 <0>         0.0000
      5 C5          1.8907    2.3354    3.1002 C.3       1 <0>         0.0000
      6 C6          4.2526   -0.5894    1.3452 C.3       1 <0>         0.0000
      7 C7          1.7316   -0.5030    1.9894 C.3       1 <0>         0.0000
      8 N1          2.4845   -1.1400    4.2119 N.2       1 <0>         0.0000
      9 N2          2.1608   -0.1532    3.3294 N.pl3     1 <0>         0.0000
     10 O1          2.4964   -0.1101   -0.2310 O.2       1 <0>         0.0000
     11 I1          3.6041    2.4117    6.4527 I         1 <0>         0.0000
     12 H1          3.1344   -1.0653    6.2093 H         1 <0>         0.0000
     13 H2          2.1398    2.2681    2.0376 H         1 <0>         0.0000
     14 H3          0.8094    2.4976    3.1798 H         1 <0>         0.0000
     15 H4          2.3927    3.2112    3.5135 H         1 <0>         0.0000
     16 H5          4.3378   -1.5100    1.9319 H         1 <0>         0.0000
     17 H6          4.9006   -0.6221    0.4686 H         1 <0>         0.0000
     18 H7          4.5724    0.2248    2.0055 H         1 <0>         0.0000
     19 H8          1.4280   -1.5533    2.0210 H         1 <0>         0.0000
     20 H9          0.8676    0.0922    1.6880 H         1 <0>         0.0000
@<TRIPOS>BOND
     1    1    2 1
     2    1    8 2
     3    1   12 1
     4    2    3 2
     5    2   11 1
     6    3    5 1
     7    3    9 1
     8    4    6 1
     9    4    7 1
    10    4   10 2
    11    5   13 1
    12    5   14 1
    13    5   15 1
    14    6   16 1
    15    6   17 1
    16    6   18 1
    17    7    9 1
    18    7   19 1
    19    7   20 1
    20    8    9 1
