@<TRIPOS>MOLECULE
*****
   39    40     0     0     0
SMALL
NO_CHARGES

@<TRIPOS>ATOM
      1 C1          4.5566   -0.0214   -0.7738 C.2       1 <0>         0.0000
      2 C2          3.5072   -0.0631   -1.6566 C.2       1 <0>         0.0000
      3 C3          5.3737    1.4248   -2.2667 C.2       1 <0>         0.0000
      4 C4          0.9981    1.0500   -0.5034 C.3       1 <0>         0.0000
      5 C5          0.1877   -1.1628   -0.1951 C.3       1 <0>         0.0000
      6 C6         -0.1391    1.1340    0.5220 C.3       1 <0>         0.0000
      7 C7         -0.9221   -0.1667    0.1994 C.3       1 <0>         0.0000
      8 C8          6.3301    2.3747   -2.9245 C.3       1 <0>         0.0000
      9 C9          0.3860    1.2149    1.9609 C.3       1 <0>         0.0000
     10 C10        -1.8468   -0.6818    1.2996 C.3       1 <0>         0.0000
     11 C11         4.4186    0.1822    1.7353 C.3       1 <0>         0.0000
     12 C12         4.6336   -0.7558    0.5354 C.3       1 <0>         0.0000
     13 C13         2.2155   -0.8269   -1.5409 C.3       1 <0>         0.0000
     14 N1          5.5981    0.8204   -1.1327 N.2       1 <0>         0.0000
     15 N2          1.4029   -0.3592   -0.4235 N.3       1 <0>         0.0000
     16 O1         -1.6859    0.0358   -1.0143 O.3       1 <0>         0.0000
     17 S1          3.8331    1.0057   -2.9977 S.3       1 <0>         0.0000
     18 H1          0.6278    1.3198   -1.5071 H         1 <0>         0.0000
     19 H2          1.8422    1.7036   -0.2641 H         1 <0>         0.0000
     20 H3          0.3679   -1.9041    0.5928 H         1 <0>         0.0000
     21 H4         -0.1413   -1.6979   -1.0965 H         1 <0>         0.0000
     22 H5         -0.7778    2.0041    0.3260 H         1 <0>         0.0000
     23 H6          6.7092    1.9681   -3.8684 H         1 <0>         0.0000
     24 H7          5.8557    3.3369   -3.1434 H         1 <0>         0.0000
     25 H8          7.1741    2.5414   -2.2522 H         1 <0>         0.0000
     26 H9          1.0066    0.3483    2.2065 H         1 <0>         0.0000
     27 H10        -0.4304    1.2711    2.6876 H         1 <0>         0.0000
     28 H11         1.0035    2.1104    2.0866 H         1 <0>         0.0000
     29 H12        -2.6072    0.0669    1.5545 H         1 <0>         0.0000
     30 H13        -1.2973   -0.9266    2.2123 H         1 <0>         0.0000
     31 H14        -2.3620   -1.5832    0.9537 H         1 <0>         0.0000
     32 H15         5.1585    0.9884    1.7310 H         1 <0>         0.0000
     33 H16         4.5116   -0.3657    2.6795 H         1 <0>         0.0000
     34 H17         3.4205    0.6268    1.6935 H         1 <0>         0.0000
     35 H18         3.8812   -1.5488    0.5543 H         1 <0>         0.0000
     36 H19         5.6195   -1.2289    0.6108 H         1 <0>         0.0000
     37 H20         1.6621   -0.7691   -2.4968 H         1 <0>         0.0000
     38 H21         2.4400   -1.8873   -1.3751 H         1 <0>         0.0000
     39 H22        -2.3399    0.7316   -0.8377 H         1 <0>         0.0000
@<TRIPOS>BOND
     1    1    2 2
     2    1   12 1
     3    1   14 1
     4    2   13 1
     5    2   17 1
     6    3    8 1
     7    3   14 2
     8    3   17 1
     9    4    6 1
    10    4   15 1
    11    4   18 1
    12    4   19 1
    13    5    7 1
    14    5   15 1
    15    5   20 1
    16    5   21 1
    17    6    7 1
    18    6    9 1
    19    6   22 1
    20    7   10 1
    21    7   16 1
    22    8   23 1
    23    8   24 1
    24    8   25 1
    25    9   26 1
    26    9   27 1
    27    9   28 1
    28   10   29 1
    29   10   30 1
    30   10   31 1
    31   11   12 1
    32   11   32 1
    33   11   33 1
    34   11   34 1
    35   12   35 1
    36   12   36 1
    37   13   15 1
    38   13   37 1
    39   13   38 1
    40   16   39 1
