@<TRIPOS>MOLECULE
*****
   19    19     0     0     0
SMALL
NO_CHARGES

@<TRIPOS>ATOM
      1 C1          2.7492   -0.3389    0.0149 C.ar      1 <0>         0.0000
      2 C2          1.0596   -0.6712    1.7364 C.ar      1 <0>         0.0000
      3 C3          3.4219   -0.9532    2.2770 C.ar      1 <0>         0.0000
      4 C4          1.4137   -0.3584    0.4209 C.ar      1 <0>         0.0000
      5 C5          3.7308   -0.6529    0.9522 C.ar      1 <0>         0.0000
      6 C6          2.0779   -0.9593    2.6368 C.ar      1 <0>         0.0000
      7 C7          0.3294    0.0237   -0.5571 C.3       1 <0>         0.0000
      8 C8          5.7382   -1.6598    0.0915 C.3       1 <0>         0.0000
      9 O1          5.0801   -0.5594    0.5801 O.3       1 <0>         0.0000
     10 F1          1.7542   -1.2536    3.9150 F         1 <0>         0.0000
     11 F2          0.7070   -0.1819   -1.8392 F         1 <0>         0.0000
     12 F3         -0.8072   -0.6817   -0.3474 F         1 <0>         0.0000
     13 F4          0.0031    1.3377   -0.4448 F         1 <0>         0.0000
     14 Cl1         5.7925   -3.0216    1.2955 Cl        1 <0>         0.0000
     15 Cl2         7.3990   -1.1085   -0.2563 Cl        1 <0>         0.0000
     16 Cl3         4.9791   -2.2995   -1.4294 Cl        1 <0>         0.0000
     17 H1          3.0259   -0.0889   -1.0017 H         1 <0>         0.0000
     18 H2          0.0247   -0.6924    2.0609 H         1 <0>         0.0000
     19 H3          4.1943   -1.1732    3.0045 H         1 <0>         0.0000
@<TRIPOS>BOND
     1    1    4 ar
     2    1    5 ar
     3    1   17 1
     4    2    4 ar
     5    2    6 ar
     6    2   18 1
     7    3    5 ar
     8    3    6 ar
     9    3   19 1
    10    4    7 1
    11    5    9 1
    12    6   10 1
    13    7   11 1
    14    7   12 1
    15    7   13 1
    16    8    9 1
    17    8   14 1
    18    8   15 1
    19    8   16 1
