@<TRIPOS>MOLECULE
*****
   34    36     0     0     0
SMALL
NO_CHARGES

@<TRIPOS>ATOM
      1 C1          2.4230    7.6371   -3.8103 C.ar      1 <0>         0.0000
      2 C2          1.9879    6.5770   -3.0416 C.ar      1 <0>         0.0000
      3 C3          2.2614    5.5940    0.5810 C.ar      1 <0>         0.0000
      4 C4          3.5188    2.8128   -0.4550 C.ar      1 <0>         0.0000
      5 C5          1.7435    1.9531    0.9742 C.ar      1 <0>         0.0000
      6 C6          2.9725    6.6962    1.0903 C.ar      1 <0>         0.0000
      7 C7          4.4654    2.1527    0.3220 C.ar      1 <0>         0.0000
      8 C8          2.6892    1.3155    1.7737 C.ar      1 <0>         0.0000
      9 C9          3.1849    8.6694   -3.2066 C.ar      1 <0>         0.0000
     10 C10         2.3073    6.5483   -1.6591 C.ar      1 <0>         0.0000
     11 C11         3.0623    7.6423   -1.1554 C.ar      1 <0>         0.0000
     12 C12         2.1565    2.7291   -0.1189 C.ar      1 <0>         0.0000
     13 C13         1.9407    5.4876   -0.7698 C.ar      1 <0>         0.0000
     14 C14         3.3920    7.7042    0.2368 C.ar      1 <0>         0.0000
     15 C15         4.0413    1.4199    1.4355 C.ar      1 <0>         0.0000
     16 N1          3.4957    8.6797   -1.9223 N.ar      1 <0>         0.0000
     17 N2          1.1460    3.2704   -0.9735 N.2       1 <0>         0.0000
     18 N3          1.1161    4.4751   -1.3290 N.2       1 <0>         0.0000
     19 O1          6.5755    1.1576    2.1821 O.2       1 <0>         0.0000
     20 O2          4.7176    0.4307    3.7846 O.2       1 <0>         0.0000
     21 O3          4.0939    8.7629    0.6880 O.3       1 <0>         0.0000
     22 O4          5.2678   -0.9252    1.7749 O.3       1 <0>         0.0000
     23 S1          5.2532    0.5872    2.4427 S.o2      1 <0>         0.0000
     24 H1          2.1892    7.6942   -4.8693 H         1 <0>         0.0000
     25 H2          1.3991    5.7711   -3.4676 H         1 <0>         0.0000
     26 H3          1.9374    4.8269    1.2746 H         1 <0>         0.0000
     27 H4          3.8290    3.3989   -1.3143 H         1 <0>         0.0000
     28 H5          0.6834    1.8708    1.1954 H         1 <0>         0.0000
     29 H6          3.2000    6.7654    2.1494 H         1 <0>         0.0000
     30 H7          5.5231    2.2231    0.0879 H         1 <0>         0.0000
     31 H8          2.3887    0.7441    2.6460 H         1 <0>         0.0000
     32 H9          3.5409    9.5079   -3.8028 H         1 <0>         0.0000
     33 H10         4.2548    9.3286   -0.1000 H         1 <0>         0.0000
     34 H11         6.1209   -1.0326    1.3116 H         1 <0>         0.0000
@<TRIPOS>BOND
     1    1    2 ar
     2    1    9 ar
     3    1   24 1
     4    2   10 ar
     5    2   25 1
     6    3    6 ar
     7    3   13 ar
     8    3   26 1
     9    4    7 ar
    10    4   12 ar
    11    4   27 1
    12    5    8 ar
    13    5   12 ar
    14    5   28 1
    15    6   14 ar
    16    6   29 1
    17    7   15 ar
    18    7   30 1
    19    8   15 ar
    20    8   31 1
    21    9   16 ar
    22    9   32 1
    23   10   11 ar
    24   10   13 ar
    25   11   14 ar
    26   11   16 ar
    27   12   17 1
    28   13   18 1
    29   14   21 1
    30   15   23 1
    31   17   18 2
    32   19   23 2
    33   20   23 2
    34   21   33 1
    35   22   23 1
    36   22   34 1
