@<TRIPOS>MOLECULE
*****
   26    26     0     0     0
SMALL
NO_CHARGES

@<TRIPOS>ATOM
      1 C1          1.9172   -1.0581   -0.0665 C.ar      1 <0>         0.0000
      2 C2          0.8256   -0.4967    0.5807 C.ar      1 <0>         0.0000
      3 C3          1.8298   -1.0738    2.7131 C.ar      1 <0>         0.0000
      4 C4          2.9895   -1.6421    0.6308 C.ar      1 <0>         0.0000
      5 C5          0.7814   -0.5019    1.9811 C.ar      1 <0>         0.0000
      6 C6          2.9221   -1.6409    2.0387 C.ar      1 <0>         0.0000
      7 C7          4.1131   -2.2310   -0.1443 C.2       1 <0>         0.0000
      8 C8         -0.4068    0.1007    3.9724 C.3       1 <0>         0.0000
      9 C9          3.9233   -2.2709    4.1435 C.3       1 <0>         0.0000
     10 N1          3.8163   -2.6983   -1.3199 N.2       1 <0>         0.0000
     11 N2          5.4014   -2.1706    0.3508 N.pl3     1 <0>         0.0000
     12 O1          5.0093   -3.1705   -1.9589 O.3       1 <0>         0.0000
     13 O2         -0.3191    0.0755    2.5522 O.3       1 <0>         0.0000
     14 O3          3.9619   -2.2356    2.7198 O.3       1 <0>         0.0000
     15 H1          1.9649   -1.0546   -1.1498 H         1 <0>         0.0000
     16 H2          0.0085   -0.0446    0.0277 H         1 <0>         0.0000
     17 H3          1.7970   -1.0847    3.7928 H         1 <0>         0.0000
     18 H4         -1.3473    0.6020    4.2046 H         1 <0>         0.0000
     19 H5          0.4232    0.6656    4.4153 H         1 <0>         0.0000
     20 H6         -0.4250   -0.9135    4.3909 H         1 <0>         0.0000
     21 H7          4.8345   -2.7854    4.4518 H         1 <0>         0.0000
     22 H8          3.0528   -2.8318    4.5031 H         1 <0>         0.0000
     23 H9          3.9158   -1.2604    4.5692 H         1 <0>         0.0000
     24 H10         5.4695   -2.1841    1.3599 H         1 <0>         0.0000
     25 H11         6.0506   -2.7787   -0.1356 H         1 <0>         0.0000
     26 H12         4.6566   -3.5607   -2.7730 H         1 <0>         0.0000
@<TRIPOS>BOND
     1    1    2 ar
     2    1    4 ar
     3    1   15 1
     4    2    5 ar
     5    2   16 1
     6    3    5 ar
     7    3    6 ar
     8    3   17 1
     9    4    6 ar
    10    4    7 1
    11    5   13 1
    12    6   14 1
    13    7   10 2
    14    7   11 1
    15    8   13 1
    16    8   18 1
    17    8   19 1
    18    8   20 1
    19    9   14 1
    20    9   21 1
    21    9   22 1
    22    9   23 1
    23   10   12 1
    24   11   24 1
    25   11   25 1
    26   12   26 1
