@<TRIPOS>MOLECULE
*****
   21    22     0     0     0
SMALL
NO_CHARGES

@<TRIPOS>ATOM
      1 C1          1.9252   -0.3720   -0.1511 C.ar      1 <0>         0.0000
      2 C2          0.7018   -0.2211    0.5005 C.ar      1 <0>         0.0000
      3 C3          1.6295   -1.3530    2.4458 C.ar      1 <0>         0.0000
      4 C4          3.0275   -0.9867    0.4657 C.ar      1 <0>         0.0000
      5 C5          2.8418   -1.4658    1.7710 C.ar      1 <0>         0.0000
      6 C6          0.5687   -0.7201    1.7982 C.ar      1 <0>         0.0000
      7 C7          4.3576   -1.0624   -0.2256 C.2       1 <0>         0.0000
      8 C8          5.6080   -1.8339   -2.3374 C.3       1 <0>         0.0000
      9 C9          5.3156   -0.3809   -2.5212 C.3       1 <0>         0.0000
     10 C10         4.3500   -1.2494   -1.7067 C.3       1 <0>         0.0000
     11 O1          5.4045   -0.9481    0.4016 O.2       1 <0>         0.0000
     12 F1          3.8435   -2.0985    2.4082 F         1 <0>         0.0000
     13 Br1        -1.1022   -0.5400    2.7101 Br        1 <0>         0.0000
     14 H1          2.0355    0.0249   -1.1557 H         1 <0>         0.0000
     15 H2         -0.1303    0.2733    0.0114 H         1 <0>         0.0000
     16 H3          1.5347   -1.7552    3.4484 H         1 <0>         0.0000
     17 H4          5.4603   -2.5071   -3.1760 H         1 <0>         0.0000
     18 H5          6.3961   -2.1007   -1.6410 H         1 <0>         0.0000
     19 H6          5.9077    0.3255   -1.9481 H         1 <0>         0.0000
     20 H7          4.9629   -0.0301   -3.4863 H         1 <0>         0.0000
     21 H8          3.4040   -1.5033   -2.1718 H         1 <0>         0.0000
@<TRIPOS>BOND
     1    1    2 ar
     2    1    4 ar
     3    1   14 1
     4    2    6 ar
     5    2   15 1
     6    3    5 ar
     7    3    6 ar
     8    3   16 1
     9    4    5 ar
    10    4    7 1
    11    5   12 1
    12    6   13 1
    13    7   10 1
    14    7   11 2
    15    8    9 1
    16    8   10 1
    17    8   17 1
    18    8   18 1
    19    9   10 1
    20    9   19 1
    21    9   20 1
    22   10   21 1
