@<TRIPOS>MOLECULE
*****
   20    21     0     0     0
SMALL
NO_CHARGES

@<TRIPOS>ATOM
      1 C1          1.7561   -1.3469   -0.1219 C.ar      1 <0>         0.0000
      2 C2          0.9894   -0.2943    0.3800 C.ar      1 <0>         0.0000
      3 C3          2.6602   -1.7455    2.1036 C.ar      1 <0>         0.0000
      4 C4         -0.5648    0.3393    6.5741 C.2       1 <0>         0.0000
      5 C5         -1.4955   -0.3566    5.8361 C.2       1 <0>         0.0000
      6 C6          1.8674   -0.7099    2.6229 C.ar      1 <0>         0.0000
      7 C7          2.5802   -2.0522    0.7535 C.ar      1 <0>         0.0000
      8 C8          1.0548    0.0049    1.7372 C.ar      1 <0>         0.0000
      9 C9          0.7406   -0.2153    4.8820 C.2       1 <0>         0.0000
     10 C10         1.9911   -0.3898    4.0878 C.2       1 <0>         0.0000
     11 N1          0.6893    0.4029    6.0356 N.2       1 <0>         0.0000
     12 O1          3.0878   -0.3446    4.6216 O.2       1 <0>         0.0000
     13 F1          3.3317   -3.0687    0.2645 F         1 <0>         0.0000
     14 F2          0.3321    1.0571    2.1948 F         1 <0>         0.0000
     15 S1         -0.7813   -0.9457    4.3862 S.3       1 <0>         0.0000
     16 H1          1.7285   -1.6150   -1.1733 H         1 <0>         0.0000
     17 H2          0.3525    0.3006   -0.2667 H         1 <0>         0.0000
     18 H3          3.3268   -2.2986    2.7574 H         1 <0>         0.0000
     19 H4         -0.7636    0.8201    7.5260 H         1 <0>         0.0000
     20 H5         -2.5339   -0.5491    6.0739 H         1 <0>         0.0000
@<TRIPOS>BOND
     1    1    2 ar
     2    1    7 ar
     3    1   16 1
     4    2    8 ar
     5    2   17 1
     6    3    6 ar
     7    3    7 ar
     8    3   18 1
     9    4    5 2
    10    4   11 1
    11    4   19 1
    12    5   15 1
    13    5   20 1
    14    6    8 ar
    15    6   10 1
    16    7   13 1
    17    8   14 1
    18    9   10 1
    19    9   11 2
    20    9   15 1
    21   10   12 2
