@<TRIPOS>MOLECULE
*****
   42    45     0     0     0
SMALL
NO_CHARGES

@<TRIPOS>ATOM
      1 C1          1.2544   -1.5831   -2.8757 C.ar      1 <0>         0.0000
      2 C2          0.4979   -1.2387   -1.7505 C.ar      1 <0>         0.0000
      3 C3          1.3683   -2.9281   -3.2584 C.ar      1 <0>         0.0000
      4 C4         -0.1644   -2.2101   -0.9864 C.ar      1 <0>         0.0000
      5 C5         -4.2873   -5.8906    1.6593 C.ar      1 <0>         0.0000
      6 C6         -2.4324   -6.1615    3.1681 C.ar      1 <0>         0.0000
      7 C7          0.7162   -3.9014   -2.5109 C.ar      1 <0>         0.0000
      8 C8         -2.9167   -6.0575    1.8611 C.ar      1 <0>         0.0000
      9 C9         -0.0473   -3.5439   -1.3888 C.ar      1 <0>         0.0000
     10 C10        -5.1749   -5.8144    2.7346 C.ar      1 <0>         0.0000
     11 C11        -4.6908   -5.8805    4.0597 C.ar      1 <0>         0.0000
     12 C12        -3.3118   -6.0701    4.2443 C.ar      1 <0>         0.0000
     13 C13        -1.4093   -4.7318    0.3175 C.2       1 <0>         0.0000
     14 C14         0.7205   -5.4047   -2.6718 C.3       1 <0>         0.0000
     15 C15        -7.8186   -5.4495    4.4911 C.3       1 <0>         0.0000
     16 C16        -0.3925   -5.8658   -1.7047 C.3       1 <0>         0.0000
     17 C17        -7.4564   -6.3079    3.2793 C.3       1 <0>         0.0000
     18 C18        -6.5605   -4.8317    5.1017 C.3       1 <0>         0.0000
     19 C19        -1.9711   -6.1133    0.6884 C.3       1 <0>         0.0000
     20 N1         -0.6220   -4.7058   -0.8113 N.am      1 <0>         0.0000
     21 O1         -1.6381   -3.7306    0.9898 O.2       1 <0>         0.0000
     22 O2         -6.5068   -5.6434    2.4245 O.3       1 <0>         0.0000
     23 O3         -5.4902   -5.7939    5.1706 O.3       1 <0>         0.0000
     24 Cl1        -2.6827   -6.1719    5.8766 Cl        1 <0>         0.0000
     25 H1          1.7552   -0.8100   -3.4521 H         1 <0>         0.0000
     26 H2          0.4159   -0.1953   -1.4570 H         1 <0>         0.0000
     27 H3          1.9603   -3.2060   -4.1275 H         1 <0>         0.0000
     28 H4         -0.7482   -1.9475   -0.1152 H         1 <0>         0.0000
     29 H5         -4.7040   -5.8214    0.6582 H         1 <0>         0.0000
     30 H6         -1.3716   -6.2892    3.3595 H         1 <0>         0.0000
     31 H7          0.5233   -5.7290   -3.6970 H         1 <0>         0.0000
     32 H8          1.6919   -5.8182   -2.3763 H         1 <0>         0.0000
     33 H9         -8.5036   -4.6435    4.2046 H         1 <0>         0.0000
     34 H10        -8.3352   -6.0802    5.2237 H         1 <0>         0.0000
     35 H11        -1.3148   -6.0976   -2.2512 H         1 <0>         0.0000
     36 H12        -0.1050   -6.7483   -1.1313 H         1 <0>         0.0000
     37 H13        -7.0448   -7.2719    3.5949 H         1 <0>         0.0000
     38 H14        -8.3315   -6.4965    2.6527 H         1 <0>         0.0000
     39 H15        -6.2282   -3.9654    4.5215 H         1 <0>         0.0000
     40 H16        -6.7323   -4.5110    6.1318 H         1 <0>         0.0000
     41 H17        -1.1299   -6.7799    0.9121 H         1 <0>         0.0000
     42 H18        -2.4756   -6.5427   -0.1841 H         1 <0>         0.0000
@<TRIPOS>BOND
     1    1    2 ar
     2    1    3 ar
     3    1   25 1
     4    2    4 ar
     5    2   26 1
     6    3    7 ar
     7    3   27 1
     8    4    9 ar
     9    4   28 1
    10    5    8 ar
    11    5   10 ar
    12    5   29 1
    13    6    8 ar
    14    6   12 ar
    15    6   30 1
    16    7    9 ar
    17    7   14 1
    18    8   19 1
    19    9   20 1
    20   10   11 ar
    21   10   22 1
    22   11   12 ar
    23   11   23 1
    24   12   24 1
    25   13   19 1
    26   13   20 am
    27   13   21 2
    28   14   16 1
    29   14   31 1
    30   14   32 1
    31   15   17 1
    32   15   18 1
    33   15   33 1
    34   15   34 1
    35   16   20 1
    36   16   35 1
    37   16   36 1
    38   17   22 1
    39   17   37 1
    40   17   38 1
    41   18   23 1
    42   18   39 1
    43   18   40 1
    44   19   41 1
    45   19   42 1
