@<TRIPOS>MOLECULE
*****
   25    26     0     0     0
SMALL
NO_CHARGES

@<TRIPOS>ATOM
      1 C1         -2.6824   -1.3097   -1.8274 C.ar      1 <0>         0.0000
      2 C2         -4.0241   -1.6913   -1.8833 C.ar      1 <0>         0.0000
      3 C3         -4.6551    0.4229   -0.8649 C.ar      1 <0>         0.0000
      4 C4         -2.2972   -0.0755   -1.2910 C.ar      1 <0>         0.0000
      5 C5         -3.3092    0.7664   -0.8075 C.ar      1 <0>         0.0000
      6 C6         -5.0007   -0.8158   -1.4062 C.ar      1 <0>         0.0000
      7 C7          2.5368   -0.0989   -1.5445 C.3       1 <0>         0.0000
      8 C8          1.6735   -0.7080   -2.6458 C.3       1 <0>         0.0000
      9 C9          0.8947    1.3991   -2.1641 C.3       1 <0>         0.0000
     10 C10        -0.5390    1.5122   -1.6654 C.3       1 <0>         0.0000
     11 O1          1.7501    1.0101   -1.0965 O.3       1 <0>         0.0000
     12 O2          1.0358    0.4465   -3.2095 O.3       1 <0>         0.0000
     13 O3         -0.9659    0.2163   -1.2130 O.3       1 <0>         0.0000
     14 F1         -2.9709    1.9579   -0.2511 F         1 <0>         0.0000
     15 Br1        -6.8482   -1.3168   -1.4875 Br        1 <0>         0.0000
     16 H1         -1.9041   -1.9664   -2.2041 H         1 <0>         0.0000
     17 H2         -4.3035   -2.6518   -2.3027 H         1 <0>         0.0000
     18 H3         -5.3985    1.1109   -0.4771 H         1 <0>         0.0000
     19 H4          2.7032   -0.7657   -0.6953 H         1 <0>         0.0000
     20 H5          3.5011    0.2523   -1.9352 H         1 <0>         0.0000
     21 H6          2.2463   -1.1981   -3.4362 H         1 <0>         0.0000
     22 H7          0.9254   -1.3955   -2.2362 H         1 <0>         0.0000
     23 H8          1.2040    2.3763   -2.5641 H         1 <0>         0.0000
     24 H9         -1.1740    1.8518   -2.4907 H         1 <0>         0.0000
     25 H10        -0.5855    2.2389   -0.8491 H         1 <0>         0.0000
@<TRIPOS>BOND
     1    1    2 ar
     2    1    4 ar
     3    1   16 1
     4    2    6 ar
     5    2   17 1
     6    3    5 ar
     7    3    6 ar
     8    3   18 1
     9    4    5 ar
    10    4   13 1
    11    5   14 1
    12    6   15 1
    13    7    8 1
    14    7   11 1
    15    7   19 1
    16    7   20 1
    17    8   12 1
    18    8   21 1
    19    8   22 1
    20    9   10 1
    21    9   12 1
    22    9   11 1
    23    9   23 1
    24   10   13 1
    25   10   24 1
    26   10   25 1
