@<TRIPOS>MOLECULE
*****
   18    19     0     0     0
SMALL
NO_CHARGES

@<TRIPOS>ATOM
      1 C1          0.5541   -0.9861   -1.8062 C.ar      1 <0>         0.0000
      2 C2          0.1718   -0.9696   -0.4673 C.ar      1 <0>         0.0000
      3 C3          0.7961   -2.1988   -2.4824 C.ar      1 <0>         0.0000
      4 C4          0.0082   -2.1603    0.2770 C.ar      1 <0>         0.0000
      5 C5          0.6327   -3.3522   -1.7441 C.ar      1 <0>         0.0000
      6 C6          0.2512   -3.3477   -0.4061 C.ar      1 <0>         0.0000
      7 C7         -0.4019   -2.0597    1.7017 C.2       1 <0>         0.0000
      8 C8          0.5210   -5.4623   -1.0501 C.3       1 <0>         0.0000
      9 O1         -0.6093   -1.0084    2.2799 O.2       1 <0>         0.0000
     10 O2          0.8035   -4.6647   -2.1560 O.3       1 <0>         0.0000
     11 O3          0.1787   -4.6534    0.0351 O.3       1 <0>         0.0000
     12 O4         -0.5245   -3.2668    2.3040 O.3       1 <0>         0.0000
     13 F1          1.5893   -6.2238   -0.7393 F         1 <0>         0.0000
     14 F2         -0.4898   -6.3088   -1.3317 F         1 <0>         0.0000
     15 H1          0.6688   -0.0494   -2.3426 H         1 <0>         0.0000
     16 H2         -0.0128   -0.0324    0.0468 H         1 <0>         0.0000
     17 H3          1.0945   -2.2305   -3.5251 H         1 <0>         0.0000
     18 H4         -0.7943   -3.0851    3.2250 H         1 <0>         0.0000
@<TRIPOS>BOND
     1    1    2 ar
     2    1    3 ar
     3    1   15 1
     4    2    4 ar
     5    2   16 1
     6    3    5 ar
     7    3   17 1
     8    4    6 ar
     9    4    7 1
    10    5    6 ar
    11    5   10 1
    12    6   11 1
    13    7    9 2
    14    7   12 1
    15    8   10 1
    16    8   11 1
    17    8   13 1
    18    8   14 1
    19   12   18 1
