@<TRIPOS>MOLECULE
*****
   32    33     0     0     0
SMALL
NO_CHARGES

@<TRIPOS>ATOM
      1 C1         -0.1729   -5.3440    0.2024 C.2       1 <0>         0.0000
      2 C2         -0.0988   -0.9728   -0.3845 C.2       1 <0>         0.0000
      3 C3         -0.8585   -5.7145    1.4073 C.2       1 <0>         0.0000
      4 C4         -0.2400   -1.5752   -1.6685 C.2       1 <0>         0.0000
      5 C5          0.4260   -1.9490    0.4758 C.2       1 <0>         0.0000
      6 C6         -0.8327   -6.0318   -0.7818 C.2       1 <0>         0.0000
      7 C7         -0.5893   -5.2670    2.8115 C.3       1 <0>         0.0000
      8 C8         -0.7432   -0.9946   -2.9504 C.3       1 <0>         0.0000
      9 C9          0.7813   -1.8701    1.9244 C.3       1 <0>         0.0000
     10 C10        -0.6732   -6.1110   -2.2602 C.3       1 <0>         0.0000
     11 C11         0.9845   -4.4051    0.0443 C.3       1 <0>         0.0000
     12 N1          0.1699   -2.8367   -1.6023 N.2       1 <0>         0.0000
     13 N2         -1.8370   -6.5588    1.1642 N.2       1 <0>         0.0000
     14 N3          0.5723   -3.0410   -0.3073 N.pl3     1 <0>         0.0000
     15 N4         -0.4175    0.3669   -0.0226 N.pl3     1 <0>         0.0000
     16 O1         -0.2286    0.7165    1.1569 O.3       1 <0>         0.0000
     17 O2         -0.8687    1.1145   -0.9050 O.2       1 <0>         0.0000
     18 O3         -1.8251   -6.7612   -0.2298 O.3       1 <0>         0.0000
     19 H1         -0.8021   -4.2001    2.9293 H         1 <0>         0.0000
     20 H2         -1.2213   -5.8229    3.5067 H         1 <0>         0.0000
     21 H3          0.4582   -5.4326    3.0850 H         1 <0>         0.0000
     22 H4         -0.1404   -0.1338   -3.2519 H         1 <0>         0.0000
     23 H5         -0.7070   -1.7580   -3.7306 H         1 <0>         0.0000
     24 H6         -1.7692   -0.6343   -2.8374 H         1 <0>         0.0000
     25 H7         -0.1075   -1.6482    2.5211 H         1 <0>         0.0000
     26 H8          1.2267   -2.7975    2.2854 H         1 <0>         0.0000
     27 H9          1.4801   -1.0478    2.0947 H         1 <0>         0.0000
     28 H10        -0.4769   -7.1413   -2.5737 H         1 <0>         0.0000
     29 H11        -1.5889   -5.7752   -2.7569 H         1 <0>         0.0000
     30 H12         0.1404   -5.4633   -2.5872 H         1 <0>         0.0000
     31 H13         1.5758   -4.3602    0.9591 H         1 <0>         0.0000
     32 H14         1.6476   -4.7361   -0.7572 H         1 <0>         0.0000
@<TRIPOS>BOND
     1    1    3 1
     2    1    6 2
     3    1   11 1
     4    2    4 1
     5    2    5 2
     6    2   15 1
     7    3    7 1
     8    3   13 2
     9    4    8 1
    10    4   12 2
    11    5    9 1
    12    5   14 1
    13    6   10 1
    14    6   18 1
    15    7   19 1
    16    7   20 1
    17    7   21 1
    18    8   22 1
    19    8   23 1
    20    8   24 1
    21    9   25 1
    22    9   26 1
    23    9   27 1
    24   10   28 1
    25   10   29 1
    26   10   30 1
    27   11   14 1
    28   11   31 1
    29   11   32 1
    30   12   14 1
    31   13   18 1
    32   15   16 1
    33   15   17 2
