@<TRIPOS>MOLECULE
*****
   32    33     0     0     0
SMALL
NO_CHARGES

@<TRIPOS>ATOM
      1 C1         -0.3301   -5.2450    0.0904 C.2       1 <0>         0.0000
      2 C2          0.2123   -1.5451   -2.2580 C.2       1 <0>         0.0000
      3 C3         -0.7638   -6.3336   -0.7376 C.2       1 <0>         0.0000
      4 C4         -0.3249   -1.1775   -0.9901 C.2       1 <0>         0.0000
      5 C5          0.7891   -2.8157   -2.1112 C.2       1 <0>         0.0000
      6 C6         -1.2805   -5.1752    1.0748 C.2       1 <0>         0.0000
      7 C7         -0.1261   -6.8742   -1.9807 C.3       1 <0>         0.0000
      8 C8         -1.0411    0.0671   -0.5761 C.3       1 <0>         0.0000
      9 C9          1.4995   -3.6747   -3.1055 C.3       1 <0>         0.0000
     10 C10        -1.4662   -4.2884    2.2572 C.3       1 <0>         0.0000
     11 C11         0.8736   -4.3687   -0.0829 C.3       1 <0>         0.0000
     12 N1         -0.0942   -2.1560   -0.1222 N.2       1 <0>         0.0000
     13 N2         -1.8726   -6.8736   -0.2808 N.2       1 <0>         0.0000
     14 N3          0.5814   -3.1293   -0.8129 N.pl3     1 <0>         0.0000
     15 N4          0.1858   -0.7800   -3.4584 N.pl3     1 <0>         0.0000
     16 O1          0.7056   -1.2700   -4.4777 O.3       1 <0>         0.0000
     17 O2         -0.3565    0.3361   -3.4232 O.2       1 <0>         0.0000
     18 O3         -2.2058   -6.1366    0.8722 O.3       1 <0>         0.0000
     19 H1          0.9231   -7.1351   -1.8051 H         1 <0>         0.0000
     20 H2         -0.6554   -7.7700   -2.3110 H         1 <0>         0.0000
     21 H3         -0.1578   -6.1368   -2.7885 H         1 <0>         0.0000
     22 H4         -1.9451    0.2121   -1.1737 H         1 <0>         0.0000
     23 H5         -1.3085   -0.0051    0.4803 H         1 <0>         0.0000
     24 H6         -0.4151    0.9490   -0.7362 H         1 <0>         0.0000
     25 H7          2.3319   -3.1238   -3.5496 H         1 <0>         0.0000
     26 H8          1.8790   -4.5917   -2.6539 H         1 <0>         0.0000
     27 H9          0.8288   -3.9361   -3.9282 H         1 <0>         0.0000
     28 H10        -2.4993   -3.9312    2.3005 H         1 <0>         0.0000
     29 H11        -1.2594   -4.8303    3.1865 H         1 <0>         0.0000
     30 H12        -0.8073   -3.4228    2.1826 H         1 <0>         0.0000
     31 H13         1.2736   -4.0622    0.8854 H         1 <0>         0.0000
     32 H14         1.6669   -4.8988   -0.6104 H         1 <0>         0.0000
@<TRIPOS>BOND
     1    1    3 1
     2    1    6 2
     3    1   11 1
     4    2    4 1
     5    2    5 2
     6    2   15 1
     7    3    7 1
     8    3   13 2
     9    4    8 1
    10    4   12 2
    11    5    9 1
    12    5   14 1
    13    6   10 1
    14    6   18 1
    15    7   19 1
    16    7   20 1
    17    7   21 1
    18    8   22 1
    19    8   23 1
    20    8   24 1
    21    9   25 1
    22    9   26 1
    23    9   27 1
    24   10   28 1
    25   10   29 1
    26   10   30 1
    27   11   14 1
    28   11   31 1
    29   11   32 1
    30   12   14 1
    31   13   18 1
    32   15   16 1
    33   15   17 2
