@<TRIPOS>MOLECULE
*****
   19    19     0     0     0
SMALL
NO_CHARGES

@<TRIPOS>ATOM
      1 C1          1.8729   -0.9565   -0.1719 C.ar      1 <0>         0.0000
      2 C2          0.9866   -0.1479    0.5422 C.ar      1 <0>         0.0000
      3 C3          2.6553   -1.9251    1.9238 C.ar      1 <0>         0.0000
      4 C4          1.7747   -1.1097    2.6528 C.ar      1 <0>         0.0000
      5 C5          2.6909   -1.8299    0.5397 C.ar      1 <0>         0.0000
      6 C6          0.9560   -0.2376    1.9296 C.ar      1 <0>         0.0000
      7 C7          1.7560   -1.1449    4.1433 C.2       1 <0>         0.0000
      8 C8          2.0281    0.1278    4.9031 C.3       1 <0>         0.0000
      9 N1          1.5697   -2.2040    4.8487 N.2       1 <0>         0.0000
     10 O1          1.3226   -3.3519    4.0673 O.3       1 <0>         0.0000
     11 F1          3.5554   -2.6210   -0.1473 F         1 <0>         0.0000
     12 F2          0.0726    0.5506    2.6001 F         1 <0>         0.0000
     13 H1          1.9306   -0.9174   -1.2549 H         1 <0>         0.0000
     14 H2          0.3203    0.5447    0.0379 H         1 <0>         0.0000
     15 H3          3.3025   -2.6298    2.4335 H         1 <0>         0.0000
     16 H4          1.2731    0.8849    4.6749 H         1 <0>         0.0000
     17 H5          2.0243   -0.0718    5.9764 H         1 <0>         0.0000
     18 H6          3.0031    0.5378    4.6162 H         1 <0>         0.0000
     19 H7          1.1785   -4.0315    4.7458 H         1 <0>         0.0000
@<TRIPOS>BOND
     1    1    2 ar
     2    1    5 ar
     3    1   13 1
     4    2    6 ar
     5    2   14 1
     6    3    4 ar
     7    3    5 ar
     8    3   15 1
     9    4    6 ar
    10    4    7 1
    11    5   11 1
    12    6   12 1
    13    7    8 1
    14    7    9 2
    15    8   16 1
    16    8   17 1
    17    8   18 1
    18    9   10 1
    19   10   19 1
