@<TRIPOS>MOLECULE
*****
   36    39     0     0     0
SMALL
NO_CHARGES

@<TRIPOS>ATOM
      1 C1          8.7235    5.8705   -0.8676 C.ar      1 <0>         0.0000
      2 C2          7.7734    6.3351   -1.7856 C.ar      1 <0>         0.0000
      3 C3          8.4132    4.7856   -0.0406 C.ar      1 <0>         0.0000
      4 C4          6.5245    5.7231   -1.8780 C.ar      1 <0>         0.0000
      5 C5          7.1645    4.1696   -0.1295 C.ar      1 <0>         0.0000
      6 C6          2.8238    3.6556   -1.9086 C.2       1 <0>         0.0000
      7 C7          6.2051    4.6307   -1.0487 C.ar      1 <0>         0.0000
      8 C8          2.8505    2.6392   -0.9772 C.2       1 <0>         0.0000
      9 C9          0.7307    0.0774    0.3127 C.2       1 <0>         0.0000
     10 C10        -0.1065    0.5669   -0.6807 C.2       1 <0>         0.0000
     11 C11         1.8333    1.6723   -0.6311 C.2       1 <0>         0.0000
     12 C12         4.8826    4.0068   -1.1680 C.2       1 <0>         0.0000
     13 C13         0.4266   -1.0769    1.1948 C.2       1 <0>         0.0000
     14 C14        -1.4538    0.0846   -1.1191 C.3       1 <0>         0.0000
     15 C15        -2.5125    0.1027    0.0095 C.3       1 <0>         0.0000
     16 C16        -1.9212   -0.2110    1.3940 C.3       1 <0>         0.0000
     17 N1          3.9567    4.4121   -2.0107 N.2       1 <0>         0.0000
     18 N2          1.9245    0.7663    0.3280 N.2       1 <0>         0.0000
     19 N3          0.6093    1.5830   -1.2744 N.pl3     1 <0>         0.0000
     20 N4         -0.9330   -1.2990    1.3918 N.am      1 <0>         0.0000
     21 O1          1.2801   -1.8193    1.6692 O.2       1 <0>         0.0000
     22 S1          4.3959    2.6333   -0.1774 S.3       1 <0>         0.0000
     23 H1          9.6965    6.3494   -0.7976 H         1 <0>         0.0000
     24 H2          8.0084    7.1774   -2.4312 H         1 <0>         0.0000
     25 H3          9.1445    4.4183    0.6744 H         1 <0>         0.0000
     26 H4          5.7811    6.0748   -2.5855 H         1 <0>         0.0000
     27 H5          6.9412    3.3277    0.5211 H         1 <0>         0.0000
     28 H6          1.9790    3.8932   -2.5488 H         1 <0>         0.0000
     29 H7         -1.8106    0.6657   -1.9758 H         1 <0>         0.0000
     30 H8         -1.3404   -0.9475   -1.4675 H         1 <0>         0.0000
     31 H9         -2.9908    1.0877    0.0656 H         1 <0>         0.0000
     32 H10        -3.2937   -0.6216   -0.2438 H         1 <0>         0.0000
     33 H11        -1.4650    0.6957    1.8057 H         1 <0>         0.0000
     34 H12        -2.7278   -0.4957    2.0749 H         1 <0>         0.0000
     35 H13         0.3059    2.1308   -2.0694 H         1 <0>         0.0000
     36 H14        -1.0924   -2.0608    2.0419 H         1 <0>         0.0000
@<TRIPOS>BOND
     1    1    3 ar
     2    1    2 ar
     3    1   23 1
     4    2    4 ar
     5    2   24 1
     6    3    5 ar
     7    3   25 1
     8    4    7 ar
     9    4   26 1
    10    5    7 ar
    11    5   27 1
    12    6    8 2
    13    6   17 1
    14    6   28 1
    15    7   12 1
    16    8   11 1
    17    8   22 1
    18    9   10 2
    19    9   13 1
    20    9   18 1
    21   10   14 1
    22   10   19 1
    23   11   18 2
    24   11   19 1
    25   12   17 2
    26   12   22 1
    27   13   20 am
    28   13   21 2
    29   14   15 1
    30   14   29 1
    31   14   30 1
    32   15   16 1
    33   15   31 1
    34   15   32 1
    35   16   20 1
    36   16   33 1
    37   16   34 1
    38   19   35 1
    39   20   36 1
