@<TRIPOS>MOLECULE
*****
   25    26     0     0     0
SMALL
NO_CHARGES

@<TRIPOS>ATOM
      1 C1         -1.3182   -1.6196   -1.3433 C.ar      1 <0>         0.0000
      2 C2         -1.7442   -2.2782   -0.1884 C.ar      1 <0>         0.0000
      3 C3         -2.7178   -0.2036    0.6116 C.ar      1 <0>         0.0000
      4 C4         -1.5788   -0.2610   -1.5519 C.ar      1 <0>         0.0000
      5 C5         -2.2954    0.4168   -0.5567 C.ar      1 <0>         0.0000
      6 C6         -2.4371   -1.5590    0.7852 C.ar      1 <0>         0.0000
      7 C7          1.8004    3.3753   -1.0878 C.3       1 <0>         0.0000
      8 C8          0.8506    2.6721   -0.1216 C.3       1 <0>         0.0000
      9 C9          0.8395    1.5261   -2.0971 C.3       1 <0>         0.0000
     10 C10        -0.5354    1.5690   -2.7630 C.3       1 <0>         0.0000
     11 O1          1.4787    2.7768   -2.3528 O.3       1 <0>         0.0000
     12 O2          0.7662    1.3587   -0.6889 O.3       1 <0>         0.0000
     13 O3         -1.1861    0.2868   -2.7456 O.3       1 <0>         0.0000
     14 F1         -2.5951    1.7347   -0.7183 F         1 <0>         0.0000
     15 Br1        -3.0258   -2.4350    2.3851 Br        1 <0>         0.0000
     16 H1         -0.7676   -2.1533   -2.1122 H         1 <0>         0.0000
     17 H2         -1.5300   -3.3322   -0.0484 H         1 <0>         0.0000
     18 H3         -3.2638    0.3715    1.3515 H         1 <0>         0.0000
     19 H4          1.6357    4.4529   -1.1635 H         1 <0>         0.0000
     20 H5          2.8496    3.1773   -0.8364 H         1 <0>         0.0000
     21 H6          1.2371    2.5751    0.8945 H         1 <0>         0.0000
     22 H7         -0.1371    3.1501   -0.0965 H         1 <0>         0.0000
     23 H8          1.4361    0.6947   -2.4909 H         1 <0>         0.0000
     24 H9         -0.4055    1.8012   -3.8217 H         1 <0>         0.0000
     25 H10        -1.1533    2.3425   -2.3039 H         1 <0>         0.0000
@<TRIPOS>BOND
     1    1    2 ar
     2    1    4 ar
     3    1   16 1
     4    2    6 ar
     5    2   17 1
     6    3    5 ar
     7    3    6 ar
     8    3   18 1
     9    4    5 ar
    10    4   13 1
    11    5   14 1
    12    6   15 1
    13    7    8 1
    14    7   11 1
    15    7   19 1
    16    7   20 1
    17    8   12 1
    18    8   21 1
    19    8   22 1
    20    9   10 1
    21    9   12 1
    22    9   11 1
    23    9   23 1
    24   10   13 1
    25   10   24 1
    26   10   25 1
