@<TRIPOS>MOLECULE
*****
   47    50     0     0     0
SMALL
NO_CHARGES

@<TRIPOS>ATOM
      1 C1          4.9627   -0.2934   -6.5119 C.1       1 <0>         0.0000
      2 C2          6.4392    2.7750   -5.0358 C.ar      1 <0>         0.0000
      3 C3          5.9505    2.7203   -3.7240 C.ar      1 <0>         0.0000
      4 C4          6.0944    1.7666   -5.9301 C.ar      1 <0>         0.0000
      5 C5          5.1306    1.6722   -3.3158 C.ar      1 <0>         0.0000
      6 C6          3.3102   -1.5468   -4.2758 C.2       1 <0>         0.0000
      7 C7          2.5612   -2.1761   -3.2318 C.2       1 <0>         0.0000
      8 C8          5.2667    0.7029   -5.5267 C.ar      1 <0>         0.0000
      9 C9          4.7657    0.6357   -4.2001 C.ar      1 <0>         0.0000
     10 C10         3.9052   -0.4360   -3.7199 C.2       1 <0>         0.0000
     11 C11         2.7421   -1.4234   -2.1027 C.2       1 <0>         0.0000
     12 C12        -0.0078    1.7320    0.7692 C.3       1 <0>         0.0000
     13 C13         0.0108    1.4680   -0.7601 C.3       1 <0>         0.0000
     14 C14        -1.3195   -0.3507    1.4614 C.3       1 <0>         0.0000
     15 C15         1.2316   -0.4267    1.1887 C.3       1 <0>         0.0000
     16 C16        -0.9175   -0.9095   -0.8920 C.3       1 <0>         0.0000
     17 C17         0.0075    0.4223    1.5761 C.3       1 <0>         0.0000
     18 C18         0.3300   -0.0043   -1.0609 C.3       1 <0>         0.0000
     19 C19        -3.1125   -1.1624    0.0818 C.3       1 <0>         0.0000
     20 C20         2.2387   -1.5504   -0.7036 C.3       1 <0>         0.0000
     21 N1          4.7325   -1.0852   -7.3365 N.1       1 <0>         0.0000
     22 N2         -1.8631   -0.4150    0.1070 N.3       1 <0>         0.0000
     23 N3          1.4991   -0.3789   -0.2526 N.3       1 <0>         0.0000
     24 O1          3.5577   -0.3646   -2.3855 O.3       1 <0>         0.0000
     25 H1          7.0789    3.5925   -5.3549 H         1 <0>         0.0000
     26 H2          6.2103    3.5018   -3.0150 H         1 <0>         0.0000
     27 H3          6.4594    1.7850   -6.9525 H         1 <0>         0.0000
     28 H4          4.7558    1.6423   -2.2992 H         1 <0>         0.0000
     29 H5          3.3876   -1.8747   -5.3010 H         1 <0>         0.0000
     30 H6          1.9587   -3.0717   -3.3099 H         1 <0>         0.0000
     31 H7          0.8722    2.3190    1.0542 H         1 <0>         0.0000
     32 H8         -0.8878    2.3217    1.0450 H         1 <0>         0.0000
     33 H9         -0.9526    1.7267   -1.2063 H         1 <0>         0.0000
     34 H10         0.7795    2.0847   -1.2349 H         1 <0>         0.0000
     35 H11        -1.1782   -1.3628    1.8925 H         1 <0>         0.0000
     36 H12        -2.0711    0.1513    2.0830 H         1 <0>         0.0000
     37 H13         2.1206   -0.0567    1.7181 H         1 <0>         0.0000
     38 H14         1.0665   -1.4620    1.5361 H         1 <0>         0.0000
     39 H15        -1.4514   -0.9374   -1.8484 H         1 <0>         0.0000
     40 H16        -0.5991   -1.9508   -0.6833 H         1 <0>         0.0000
     41 H17         0.1193    0.6618    2.6403 H         1 <0>         0.0000
     42 H18         0.6422   -0.0872   -2.1056 H         1 <0>         0.0000
     43 H19        -3.5523   -1.1196   -0.9199 H         1 <0>         0.0000
     44 H20        -3.8249   -0.7158    0.7836 H         1 <0>         0.0000
     45 H21        -2.9877   -2.2281    0.3564 H         1 <0>         0.0000
     46 H22         1.6557   -2.4885   -0.6491 H         1 <0>         0.0000
     47 H23         3.0923   -1.6773   -0.0248 H         1 <0>         0.0000
@<TRIPOS>BOND
     1    1    8 1
     2    1   21 3
     3    2    3 ar
     4    2    4 ar
     5    2   25 1
     6    3    5 ar
     7    3   26 1
     8    4    8 ar
     9    4   27 1
    10    5    9 ar
    11    5   28 1
    12    6    7 1
    13    6   10 2
    14    6   29 1
    15    7   11 2
    16    7   30 1
    17    8    9 ar
    18    9   10 1
    19   10   24 1
    20   11   20 1
    21   11   24 1
    22   12   13 1
    23   12   17 1
    24   12   31 1
    25   12   32 1
    26   13   18 1
    27   13   33 1
    28   13   34 1
    29   14   17 1
    30   14   22 1
    31   14   35 1
    32   14   36 1
    33   15   17 1
    34   15   23 1
    35   15   37 1
    36   15   38 1
    37   16   18 1
    38   16   22 1
    39   16   39 1
    40   16   40 1
    41   17   41 1
    42   18   23 1
    43   18   42 1
    44   19   22 1
    45   19   43 1
    46   19   44 1
    47   19   45 1
    48   20   23 1
    49   20   46 1
    50   20   47 1
