@<TRIPOS>MOLECULE
*****
   25    26     0     0     0
SMALL
NO_CHARGES

@<TRIPOS>ATOM
      1 C1         -0.7391   -0.8604   -7.3496 C.ar      1 <0>         0.0000
      2 C2         -0.0594   -2.0778   -7.4527 C.ar      1 <0>         0.0000
      3 C3         -0.0468   -2.2510   -5.0238 C.ar      1 <0>         0.0000
      4 C4         -0.7241   -1.0321   -4.9186 C.ar      1 <0>         0.0000
      5 C5         -1.0716   -0.3608   -6.0981 C.ar      1 <0>         0.0000
      6 C6          0.2709   -2.7603   -6.2819 C.ar      1 <0>         0.0000
      7 C7          2.8563    1.3043   -3.7590 C.3       1 <0>         0.0000
      8 C8          2.3538    2.4685   -2.9023 C.3       1 <0>         0.0000
      9 C9          0.8523    0.7001   -2.9050 C.3       1 <0>         0.0000
     10 C10        -0.6267    0.7114   -3.2629 C.3       1 <0>         0.0000
     11 O1          1.6443    0.6128   -4.0749 O.3       1 <0>         0.0000
     12 O2          1.1875    1.9298   -2.2572 O.3       1 <0>         0.0000
     13 O3         -1.0862   -0.5887   -3.6715 O.3       1 <0>         0.0000
     14 F1         -1.7583    0.8087   -6.0191 F         1 <0>         0.0000
     15 Br1         1.1950   -4.4379   -6.4031 Br        1 <0>         0.0000
     16 H1         -1.0279   -0.3015   -8.2346 H         1 <0>         0.0000
     17 H2          0.1983   -2.4837   -8.4246 H         1 <0>         0.0000
     18 H3          0.2209   -2.7753   -4.1131 H         1 <0>         0.0000
     19 H4          3.3294    1.6076   -4.6943 H         1 <0>         0.0000
     20 H5          3.5360    0.6501   -3.1956 H         1 <0>         0.0000
     21 H6          3.0695    2.7848   -2.1382 H         1 <0>         0.0000
     22 H7          2.0666    3.3303   -3.5157 H         1 <0>         0.0000
     23 H8          1.0833   -0.1367   -2.2266 H         1 <0>         0.0000
     24 H9         -0.8137    1.4685   -4.0271 H         1 <0>         0.0000
     25 H10        -1.2016    0.9514   -2.3669 H         1 <0>         0.0000
@<TRIPOS>BOND
     1    1    2 ar
     2    1    5 ar
     3    1   16 1
     4    2    6 ar
     5    2   17 1
     6    3    4 ar
     7    3    6 ar
     8    3   18 1
     9    4    5 ar
    10    4   13 1
    11    5   14 1
    12    6   15 1
    13    7    8 1
    14    7   11 1
    15    7   19 1
    16    7   20 1
    17    8   12 1
    18    8   21 1
    19    8   22 1
    20    9   10 1
    21    9   12 1
    22    9   11 1
    23    9   23 1
    24   10   13 1
    25   10   24 1
    26   10   25 1
