@<TRIPOS>MOLECULE
*****
   39    40     0     0     0
SMALL
NO_CHARGES

@<TRIPOS>ATOM
      1 C1          4.0012   -2.5340   -0.5957 C.2       1 <0>         0.0000
      2 C2          3.1456   -2.2722   -1.6362 C.2       1 <0>         0.0000
      3 C3          3.9017   -4.6068   -1.4216 C.2       1 <0>         0.0000
      4 C4          1.0675    0.8462   -1.1247 C.3       1 <0>         0.0000
      5 C5          0.4895   -1.3829   -0.5990 C.3       1 <0>         0.0000
      6 C6          0.0207    0.9412   -0.0072 C.3       1 <0>         0.0000
      7 C7         -0.6498   -0.4593   -0.1110 C.3       1 <0>         0.0000
      8 C8          4.1879   -6.0704   -1.5820 C.3       1 <0>         0.0000
      9 C9          0.6644    1.2488    1.3505 C.3       1 <0>         0.0000
     10 C10        -1.3364   -0.9615    1.1569 C.3       1 <0>         0.0000
     11 C11         3.7503   -1.7345    1.7828 C.3       1 <0>         0.0000
     12 C12         4.4639   -1.5412    0.4341 C.3       1 <0>         0.0000
     13 C13         2.4799   -0.9690   -1.9933 C.3       1 <0>         0.0000
     14 N1          4.4163   -3.8525   -0.4899 N.2       1 <0>         0.0000
     15 N2          1.6187   -0.4952   -0.9198 N.3       1 <0>         0.0000
     16 O1         -1.6052   -0.4389   -1.1992 O.3       1 <0>         0.0000
     17 S1          2.8399   -3.7441   -2.5223 S.3       1 <0>         0.0000
     18 H1          0.5855    0.9589   -2.1116 H         1 <0>         0.0000
     19 H2          1.8586    1.5999   -1.0387 H         1 <0>         0.0000
     20 H3          0.7869   -2.1158    0.1576 H         1 <0>         0.0000
     21 H4          0.1249   -1.9361   -1.4769 H         1 <0>         0.0000
     22 H5         -0.7244    1.7136   -0.2324 H         1 <0>         0.0000
     23 H6          3.2661   -6.6602   -1.6121 H         1 <0>         0.0000
     24 H7          4.7408   -6.2688   -2.5067 H         1 <0>         0.0000
     25 H8          4.7930   -6.4024   -0.7359 H         1 <0>         0.0000
     26 H9          1.4240    0.5051    1.6066 H         1 <0>         0.0000
     27 H10        -0.0771    1.2774    2.1548 H         1 <0>         0.0000
     28 H11         1.1546    2.2279    1.3195 H         1 <0>         0.0000
     29 H12        -2.1247   -0.2699    1.4799 H         1 <0>         0.0000
     30 H13        -0.6294   -1.0744    1.9830 H         1 <0>         0.0000
     31 H14        -1.7971   -1.9348    0.9619 H         1 <0>         0.0000
     32 H15         2.6743   -1.5753    1.6669 H         1 <0>         0.0000
     33 H16         4.1241   -1.0230    2.5274 H         1 <0>         0.0000
     34 H17         3.9113   -2.7478    2.1631 H         1 <0>         0.0000
     35 H18         5.5447   -1.6621    0.5706 H         1 <0>         0.0000
     36 H19         4.2836   -0.5262    0.0708 H         1 <0>         0.0000
     37 H20         3.2480   -0.2056   -2.1688 H         1 <0>         0.0000
     38 H21         1.9253   -1.0818   -2.9439 H         1 <0>         0.0000
     39 H22        -2.3221    0.1666   -0.9491 H         1 <0>         0.0000
@<TRIPOS>BOND
     1    1    2 2
     2    1   12 1
     3    1   14 1
     4    2   13 1
     5    2   17 1
     6    3    8 1
     7    3   14 2
     8    3   17 1
     9    4    6 1
    10    4   15 1
    11    4   18 1
    12    4   19 1
    13    5    7 1
    14    5   15 1
    15    5   20 1
    16    5   21 1
    17    6    7 1
    18    6    9 1
    19    6   22 1
    20    7   10 1
    21    7   16 1
    22    8   23 1
    23    8   24 1
    24    8   25 1
    25    9   26 1
    26    9   27 1
    27    9   28 1
    28   10   29 1
    29   10   30 1
    30   10   31 1
    31   11   12 1
    32   11   32 1
    33   11   33 1
    34   11   34 1
    35   12   35 1
    36   12   36 1
    37   13   15 1
    38   13   37 1
    39   13   38 1
    40   16   39 1
