@<TRIPOS>MOLECULE
*****
   32    34     0     0     0
SMALL
NO_CHARGES

@<TRIPOS>ATOM
      1 C1          7.5087   -3.9340    2.0652 C.1       1 <0>         0.0000
      2 C2          8.5196    4.1890    2.5565 C.ar      1 <0>         0.0000
      3 C3          8.3074    4.6211    3.8688 C.ar      1 <0>         0.0000
      4 C4          4.8538   -6.5934    4.5886 C.2       1 <0>         0.0000
      5 C5          8.4564    2.8282    2.2675 C.ar      1 <0>         0.0000
      6 C6          8.0414    3.6872    4.8724 C.ar      1 <0>         0.0000
      7 C7          5.6535   -5.6668    3.8768 C.2       1 <0>         0.0000
      8 C8          4.2036   -6.0260    5.6653 C.2       1 <0>         0.0000
      9 C9          8.1818    1.8855    3.2756 C.ar      1 <0>         0.0000
     10 C10         7.9725    2.3112    4.6080 C.ar      1 <0>         0.0000
     11 C11         5.6108   -4.3841    4.4175 C.2       1 <0>         0.0000
     12 C12         8.1359    0.4659    2.8819 C.2       1 <0>         0.0000
     13 C13         7.6295   -1.5754    2.7967 C.2       1 <0>         0.0000
     14 C14         6.2476   -3.1603    4.0328 C.2       1 <0>         0.0000
     15 C15         7.1019   -2.9210    2.9890 C.2       1 <0>         0.0000
     16 C16         7.6994    1.3599    5.7510 C.3       1 <0>         0.0000
     17 N1          7.8215   -4.7816    1.3285 N.1       1 <0>         0.0000
     18 N2          7.3885   -0.5096    3.5163 N.2       1 <0>         0.0000
     19 N3          8.8082    0.0220    1.8329 N.2       1 <0>         0.0000
     20 O1          8.4662   -1.3425    1.7689 O.3       1 <0>         0.0000
     21 S1          4.5592   -4.3523    5.8245 S.3       1 <0>         0.0000
     22 H1          8.7277    4.9044    1.7657 H         1 <0>         0.0000
     23 H2          8.3502    5.6797    4.1119 H         1 <0>         0.0000
     24 H3          4.7574   -7.6403    4.3217 H         1 <0>         0.0000
     25 H4          8.6121    2.4768    1.2524 H         1 <0>         0.0000
     26 H5          7.8875    4.0310    5.8925 H         1 <0>         0.0000
     27 H6          6.2382   -5.9253    3.0033 H         1 <0>         0.0000
     28 H7          3.5367   -6.5093    6.3682 H         1 <0>         0.0000
     29 H8          6.0337   -2.2868    4.6455 H         1 <0>         0.0000
     30 H9          6.7070    0.9094    5.6646 H         1 <0>         0.0000
     31 H10         8.4156    0.5340    5.7724 H         1 <0>         0.0000
     32 H11         7.7580    1.8911    6.7047 H         1 <0>         0.0000
@<TRIPOS>BOND
     1    1   15 1
     2    1   17 3
     3    2    3 ar
     4    2    5 ar
     5    2   22 1
     6    3    6 ar
     7    3   23 1
     8    4    7 1
     9    4    8 2
    10    4   24 1
    11    5    9 ar
    12    5   25 1
    13    6   10 ar
    14    6   26 1
    15    7   11 2
    16    7   27 1
    17    8   21 1
    18    8   28 1
    19    9   10 ar
    20    9   12 1
    21   10   16 1
    22   11   14 1
    23   11   21 1
    24   12   18 1
    25   12   19 2
    26   13   15 1
    27   13   18 2
    28   13   20 1
    29   14   15 2
    30   14   29 1
    31   16   30 1
    32   16   31 1
    33   16   32 1
    34   19   20 1
