@<TRIPOS>MOLECULE
*****
   43    45     0     0     0
SMALL
NO_CHARGES

@<TRIPOS>ATOM
      1 C1         -1.8144    0.2071    3.2030 C.ar      1 <0>         0.0000
      2 C2         -2.5248    0.4602    4.3956 C.ar      1 <0>         0.0000
      3 C3         -2.5929    2.2677    2.2484 C.ar      1 <0>         0.0000
      4 C4         -1.8259    1.0811    2.1158 C.ar      1 <0>         0.0000
      5 C5         -3.2834    1.6150    4.5613 C.ar      1 <0>         0.0000
      6 C6         -2.8630    3.4150    1.3957 C.2       1 <0>         0.0000
      7 C7         -3.2911    2.4943    3.4671 C.ar      1 <0>         0.0000
      8 C8         -3.6796    4.2715    2.1125 C.2       1 <0>         0.0000
      9 C9         -2.5648    2.6806   -1.1222 C.2       1 <0>         0.0000
     10 C10        -5.0325    2.5294   -0.6994 C.3       1 <0>         0.0000
     11 C11        -3.9291    1.1139   -2.3800 C.3       1 <0>         0.0000
     12 C12        -5.7781    3.4063   -1.7111 C.3       1 <0>         0.0000
     13 C13        -4.5318    1.8192   -3.5973 C.3       1 <0>         0.0000
     14 C14        -1.0516    0.7369    0.8669 C.3       1 <0>         0.0000
     15 C15        -4.0497    1.9281    5.8223 C.3       1 <0>         0.0000
     16 C16        -4.2839    5.5933    1.7561 C.3       1 <0>         0.0000
     17 C17        -2.3498    3.6980    0.0082 C.3       1 <0>         0.0000
     18 N1         -3.9426    3.7099    3.3535 N.pl3     1 <0>         0.0000
     19 N2         -3.7713    2.0292   -1.2454 N.am      1 <0>         0.0000
     20 O1         -1.6351    2.4586   -1.9027 O.2       1 <0>         0.0000
     21 S1         -6.2008    2.4987   -3.2465 S.3       1 <0>         0.0000
     22 H1         -1.2306   -0.7076    3.1307 H         1 <0>         0.0000
     23 H2         -2.4735   -0.2628    5.2068 H         1 <0>         0.0000
     24 H3         -4.8371    3.0875    0.2137 H         1 <0>         0.0000
     25 H4         -5.6544    1.6683   -0.4313 H         1 <0>         0.0000
     26 H5         -4.5789    0.2912   -2.0632 H         1 <0>         0.0000
     27 H6         -2.9445    0.7188   -2.6322 H         1 <0>         0.0000
     28 H7         -6.7289    3.7464   -1.2899 H         1 <0>         0.0000
     29 H8         -5.1782    4.2894   -1.9591 H         1 <0>         0.0000
     30 H9         -3.8654    2.6194   -3.9315 H         1 <0>         0.0000
     31 H10        -4.6636    1.1137   -4.4226 H         1 <0>         0.0000
     32 H11        -1.7198    0.4428    0.0515 H         1 <0>         0.0000
     33 H12        -0.4545    1.5744    0.4984 H         1 <0>         0.0000
     34 H13        -0.3739   -0.1003    1.0561 H         1 <0>         0.0000
     35 H14        -3.7027    2.8608    6.2863 H         1 <0>         0.0000
     36 H15        -5.1242    2.0396    5.6261 H         1 <0>         0.0000
     37 H16        -3.9319    1.1312    6.5610 H         1 <0>         0.0000
     38 H17        -5.3729    5.5828    1.8895 H         1 <0>         0.0000
     39 H18        -3.8828    6.4020    2.3796 H         1 <0>         0.0000
     40 H19        -4.0830    5.8546    0.7157 H         1 <0>         0.0000
     41 H20        -2.7684    4.6472   -0.3458 H         1 <0>         0.0000
     42 H21        -1.2669    3.8443    0.0156 H         1 <0>         0.0000
     43 H22        -4.4933    4.1459    4.0788 H         1 <0>         0.0000
@<TRIPOS>BOND
     1    1    2 ar
     2    1    4 ar
     3    1   22 1
     4    2    5 ar
     5    2   23 1
     6    3    4 ar
     7    3    6 1
     8    3    7 ar
     9    4   14 1
    10    5    7 ar
    11    5   15 1
    12    6    8 2
    13    6   17 1
    14    7   18 1
    15    8   16 1
    16    8   18 1
    17    9   17 1
    18    9   19 am
    19    9   20 2
    20   10   12 1
    21   10   19 1
    22   10   24 1
    23   10   25 1
    24   11   13 1
    25   11   19 1
    26   11   26 1
    27   11   27 1
    28   12   21 1
    29   12   28 1
    30   12   29 1
    31   13   21 1
    32   13   30 1
    33   13   31 1
    34   14   32 1
    35   14   33 1
    36   14   34 1
    37   15   35 1
    38   15   36 1
    39   15   37 1
    40   16   38 1
    41   16   39 1
    42   16   40 1
    43   17   41 1
    44   17   42 1
    45   18   43 1
