@<TRIPOS>MOLECULE
*****
   37    40     0     0     0
SMALL
NO_CHARGES

@<TRIPOS>ATOM
      1 C1          5.3819   -4.3769   -1.1502 C.ar      1 <0>         0.0000
      2 C2          5.6503   -3.1777   -0.4784 C.ar      1 <0>         0.0000
      3 C3          4.1968   -5.0886   -0.9236 C.ar      1 <0>         0.0000
      4 C4          1.6279  -10.1805   -2.6208 C.ar      1 <0>         0.0000
      5 C5          2.2022  -10.9155   -3.6752 C.ar      1 <0>         0.0000
      6 C6          4.7345   -2.6612    0.4491 C.ar      1 <0>         0.0000
      7 C7          2.6244   -8.1023   -3.4308 C.ar      1 <0>         0.0000
      8 C8          3.2752   -4.5718   -0.0061 C.ar      1 <0>         0.0000
      9 C9          1.8300   -8.7980   -2.4803 C.ar      1 <0>         0.0000
     10 C10         2.9764  -10.2143   -4.5792 C.ar      1 <0>         0.0000
     11 C11         3.1784   -8.8364   -4.4545 C.ar      1 <0>         0.0000
     12 C12         3.5690   -3.3785    0.6584 C.ar      1 <0>         0.0000
     13 C13         1.9520   -5.0778    0.4666 C.2       1 <0>         0.0000
     14 C14         1.2555   -8.0509   -1.3400 C.2       1 <0>         0.0000
     15 C15         4.3776   -9.5662   -6.2040 C.3       1 <0>         0.0000
     16 C16         0.0027   -8.5344   -0.6453 C.3       1 <0>         0.0000
     17 N1          1.3169   -4.3853    1.3738 N.2       1 <0>         0.0000
     18 N2          1.8778   -6.9677   -0.9972 N.2       1 <0>         0.0000
     19 N3          1.3682   -6.2283    0.0281 N.pl3     1 <0>         0.0000
     20 O1          2.6741   -3.1200    3.1776 O.2       1 <0>         0.0000
     21 O2          1.5019   -1.8073    1.3622 O.2       1 <0>         0.0000
     22 O3          3.6072  -10.6768   -5.7084 O.3       1 <0>         0.0000
     23 O4          3.9419   -8.3861   -5.5095 O.3       1 <0>         0.0000
     24 S1          2.2162   -3.0094    1.7923 S.o2      1 <0>         0.0000
     25 H1          6.1063   -4.7659   -1.8603 H         1 <0>         0.0000
     26 H2          6.5770   -2.6448   -0.6729 H         1 <0>         0.0000
     27 H3          3.9949   -6.0182   -1.4377 H         1 <0>         0.0000
     28 H4          1.0414  -10.7218   -1.8863 H         1 <0>         0.0000
     29 H5          2.0451  -11.9846   -3.7737 H         1 <0>         0.0000
     30 H6          4.9301   -1.7375    0.9853 H         1 <0>         0.0000
     31 H7          2.7635   -7.0300   -3.3574 H         1 <0>         0.0000
     32 H8          5.4404   -9.7421   -5.9936 H         1 <0>         0.0000
     33 H9          4.1914   -9.4473   -7.2735 H         1 <0>         0.0000
     34 H10         0.1949   -8.7737    0.4078 H         1 <0>         0.0000
     35 H11        -0.7757   -7.7617   -0.6751 H         1 <0>         0.0000
     36 H12        -0.4157   -9.4173   -1.1246 H         1 <0>         0.0000
     37 H13         0.4777   -6.4539    0.4681 H         1 <0>         0.0000
@<TRIPOS>BOND
     1    1    2 ar
     2    1    3 ar
     3    1   25 1
     4    2    6 ar
     5    2   26 1
     6    3    8 ar
     7    3   27 1
     8    4    5 ar
     9    4    9 ar
    10    4   28 1
    11    5   10 ar
    12    5   29 1
    13    6   12 ar
    14    6   30 1
    15    7    9 ar
    16    7   11 ar
    17    7   31 1
    18    8   12 ar
    19    8   13 1
    20    9   14 1
    21   10   11 ar
    22   10   22 1
    23   11   23 1
    24   12   24 1
    25   13   17 2
    26   13   19 1
    27   14   16 1
    28   14   18 2
    29   15   22 1
    30   15   23 1
    31   15   32 1
    32   15   33 1
    33   16   34 1
    34   16   35 1
    35   16   36 1
    36   17   24 1
    37   18   19 1
    38   19   37 1
    39   20   24 2
    40   21   24 2
