@<TRIPOS>MOLECULE
*****
   47    47     0     0     0
SMALL
NO_CHARGES

@<TRIPOS>ATOM
      1 C1         -3.5654    0.4056    1.0149 C.ar      1 <0>         0.0000
      2 C2         -4.7004    0.6449    0.2403 C.ar      1 <0>         0.0000
      3 C3         -2.3440    2.0493   -0.2671 C.ar      1 <0>         0.0000
      4 C4         -2.3872    1.1079    0.7613 C.ar      1 <0>         0.0000
      5 C5         -4.6572    1.5863   -0.7881 C.ar      1 <0>         0.0000
      6 C6         -3.4790    2.2885   -1.0418 C.ar      1 <0>         0.0000
      7 C7          4.0238    1.6179    2.5061 C.3       1 <0>         0.0000
      8 C8          1.1604   -4.3367    2.1150 C.3       1 <0>         0.0000
      9 C9         -1.1597    0.8489    1.5999 C.3       1 <0>         0.0000
     10 C10         2.9511    0.5660    2.7498 C.3       1 <0>         0.0000
     11 C11         0.6191   -2.9339    2.3517 C.3       1 <0>         0.0000
     12 C12        -0.2717   -0.2549    1.0309 C.3       1 <0>         0.0000
     13 C13         1.9402    0.4811    1.6125 C.3       1 <0>         0.0000
     14 C14         1.4148   -1.8634    1.6146 C.3       1 <0>         0.0000
     15 C15        -5.2326    0.8667   -4.0062 C.3       1 <0>         0.0000
     16 N1         -5.8285    1.8196   -1.5738 N.pl3     1 <0>         0.0000
     17 N2          0.9013   -0.5170    1.8640 N.3       1 <0>         0.0000
     18 O1         -7.6718    0.9279   -3.1361 O.2       1 <0>         0.0000
     19 O2         -6.0672   -0.7285   -2.1214 O.2       1 <0>         0.0000
     20 O3         -3.4177    3.2124   -2.0419 O.3       1 <0>         0.0000
     21 F1         -3.9387    0.7296   -3.6285 F         1 <0>         0.0000
     22 F2         -5.4502    0.0070   -5.0304 F         1 <0>         0.0000
     23 F3         -5.3732    2.1201   -4.5035 F         1 <0>         0.0000
     24 S1         -6.3440    0.5885   -2.6594 S.o2      1 <0>         0.0000
     25 H1         -3.6080   -0.3302    1.8136 H         1 <0>         0.0000
     26 H2         -5.6131    0.0915    0.4460 H         1 <0>         0.0000
     27 H3         -1.4263    2.5973   -0.4667 H         1 <0>         0.0000
     28 H4          4.5787    1.4064    1.5865 H         1 <0>         0.0000
     29 H5          3.5653    2.6069    2.4046 H         1 <0>         0.0000
     30 H6          4.7355    1.6619    3.3362 H         1 <0>         0.0000
     31 H7          1.1444   -4.5886    1.0498 H         1 <0>         0.0000
     32 H8          2.1961   -4.4045    2.4632 H         1 <0>         0.0000
     33 H9          0.5751   -5.0868    2.6557 H         1 <0>         0.0000
     34 H10        -1.4817    0.5700    2.6112 H         1 <0>         0.0000
     35 H11        -0.5841    1.7767    1.7116 H         1 <0>         0.0000
     36 H12         2.4211    0.8144    3.6767 H         1 <0>         0.0000
     37 H13         3.4301   -0.4086    2.9012 H         1 <0>         0.0000
     38 H14         0.6525   -2.7224    3.4268 H         1 <0>         0.0000
     39 H15        -0.4334   -2.8977    2.0465 H         1 <0>         0.0000
     40 H16        -0.8334   -1.1926    0.9727 H         1 <0>         0.0000
     41 H17         0.0856   -0.0081    0.0257 H         1 <0>         0.0000
     42 H18         1.4352    1.4441    1.4878 H         1 <0>         0.0000
     43 H19         2.4274    0.2267    0.6660 H         1 <0>         0.0000
     44 H20         2.4571   -1.8752    1.9485 H         1 <0>         0.0000
     45 H21         1.4015   -2.0324    0.5332 H         1 <0>         0.0000
     46 H22        -5.9057    2.7810   -1.9426 H         1 <0>         0.0000
     47 H23        -2.5316    3.6047   -2.0810 H         1 <0>         0.0000
@<TRIPOS>BOND
     1    1    2 ar
     2    1    4 ar
     3    1   25 1
     4    2    5 ar
     5    2   26 1
     6    3    4 ar
     7    3    6 ar
     8    3   27 1
     9    4    9 1
    10    5    6 ar
    11    5   16 1
    12    6   20 1
    13    7   10 1
    14    7   28 1
    15    7   29 1
    16    7   30 1
    17    8   11 1
    18    8   31 1
    19    8   32 1
    20    8   33 1
    21    9   12 1
    22    9   34 1
    23    9   35 1
    24   10   13 1
    25   10   36 1
    26   10   37 1
    27   11   14 1
    28   11   38 1
    29   11   39 1
    30   12   17 1
    31   12   40 1
    32   12   41 1
    33   13   17 1
    34   13   42 1
    35   13   43 1
    36   14   17 1
    37   14   44 1
    38   14   45 1
    39   15   21 1
    40   15   22 1
    41   15   23 1
    42   15   24 1
    43   16   24 1
    44   16   46 1
    45   18   24 2
    46   19   24 2
    47   20   47 1
