@<TRIPOS>MOLECULE
*****
   20    20     0     0     0
SMALL
NO_CHARGES

@<TRIPOS>ATOM
      1 C1          6.8970   -5.3422    3.7471 C.ar      1 <0>         0.0000
      2 C2          7.0761   -6.6730    3.3699 C.ar      1 <0>         0.0000
      3 C3          5.6002   -4.9497    1.7468 C.ar      1 <0>         0.0000
      4 C4          5.7794   -6.2805    1.3695 C.ar      1 <0>         0.0000
      5 C5          6.1590   -4.4805    2.9356 C.ar      1 <0>         0.0000
      6 C6          6.5174   -7.1422    2.1810 C.ar      1 <0>         0.0000
      7 C7          6.3053   -1.1755    6.8118 C.2       1 <0>         0.0000
      8 C8          6.8067   -1.4229    5.5963 C.2       1 <0>         0.0000
      9 C9          6.8480   -2.7808    4.9726 C.3       1 <0>         0.0000
     10 F1          5.2361   -6.7168    0.2240 F         1 <0>         0.0000
     11 S1          5.9305   -2.7798    3.4169 S.3       1 <0>         0.0000
     12 Cl1         6.7404   -8.7861    1.7228 Cl        1 <0>         0.0000
     13 H1          7.3400   -4.9943    4.6773 H         1 <0>         0.0000
     14 H2          7.6528   -7.3329    4.0126 H         1 <0>         0.0000
     15 H3          5.0219   -4.2935    1.1010 H         1 <0>         0.0000
     16 H4          6.2942   -0.1744    7.2284 H         1 <0>         0.0000
     17 H5          5.8960   -1.9812    7.4114 H         1 <0>         0.0000
     18 H6          7.2302   -0.5941    5.0338 H         1 <0>         0.0000
     19 H7          6.4196   -3.5449    5.6292 H         1 <0>         0.0000
     20 H8          7.8868   -3.0591    4.7694 H         1 <0>         0.0000
@<TRIPOS>BOND
     1    1    2 ar
     2    1    5 ar
     3    1   13 1
     4    2    6 ar
     5    2   14 1
     6    3    4 ar
     7    3    5 ar
     8    3   15 1
     9    4    6 ar
    10    4   10 1
    11    5   11 1
    12    6   12 1
    13    7    8 2
    14    7   16 1
    15    7   17 1
    16    8    9 1
    17    8   18 1
    18    9   11 1
    19    9   19 1
    20    9   20 1
