@<TRIPOS>MOLECULE
*****
   23    24     0     0     0
SMALL
NO_CHARGES

@<TRIPOS>ATOM
      1 C1         -2.9177   -3.0841   -0.5101 C.ar      1 <0>         0.0000
      2 C2         -3.8984   -3.9351   -0.0007 C.ar      1 <0>         0.0000
      3 C3         -2.4286   -4.5398    1.8189 C.ar      1 <0>         0.0000
      4 C4         -1.6923   -2.9609    0.1450 C.ar      1 <0>         0.0000
      5 C5         -1.4478   -3.6888    1.3095 C.ar      1 <0>         0.0000
      6 C6         -3.6539   -4.6630    1.1638 C.ar      1 <0>         0.0000
      7 C7         -0.7444   -1.5360   -2.7019 C.2       1 <0>         0.0000
      8 C8         -1.1212   -0.5998   -0.6537 C.3       1 <0>         0.0000
      9 C9         -0.6507   -2.0294   -0.4338 C.3       1 <0>         0.0000
     10 N1         -0.2714   -2.4212   -1.7589 N.am      1 <0>         0.0000
     11 N2         -0.2061   -3.5788    1.9942 N.pl3     1 <0>         0.0000
     12 O1          0.7270   -4.3572    1.6856 O.3       1 <0>         0.0000
     13 O2         -0.6521   -1.6408   -3.9167 O.2       1 <0>         0.0000
     14 O3         -0.0815   -2.7068    2.8864 O.2       1 <0>         0.0000
     15 O4         -1.3664   -0.4901   -2.0687 O.3       1 <0>         0.0000
     16 F1         -4.5954   -5.4810    1.6522 F         1 <0>         0.0000
     17 H1         -3.1183   -2.5216   -1.4182 H         1 <0>         0.0000
     18 H2         -4.8523   -4.0316   -0.5108 H         1 <0>         0.0000
     19 H3         -2.2525   -5.1138    2.7253 H         1 <0>         0.0000
     20 H4         -2.0371   -0.3413   -0.1132 H         1 <0>         0.0000
     21 H5         -0.3391    0.1245   -0.4018 H         1 <0>         0.0000
     22 H6          0.2478   -2.0694    0.2254 H         1 <0>         0.0000
     23 H7          0.2211   -3.2799   -1.9848 H         1 <0>         0.0000
@<TRIPOS>BOND
     1    1    2 ar
     2    1    4 ar
     3    1   17 1
     4    2    6 ar
     5    2   18 1
     6    3    5 ar
     7    3    6 ar
     8    3   19 1
     9    4    5 ar
    10    4    9 1
    11    5   11 1
    12    6   16 1
    13    7   10 am
    14    7   13 2
    15    7   15 1
    16    8    9 1
    17    8   15 1
    18    8   20 1
    19    8   21 1
    20    9   10 1
    21    9   22 1
    22   10   23 1
    23   11   12 1
    24   11   14 2
