@<TRIPOS>MOLECULE
*****
   27    29     0     0     0
SMALL
NO_CHARGES

@<TRIPOS>ATOM
      1 C1         -1.1678    0.7182   -1.4377 C.ar      1 <0>         0.0000
      2 C2         -0.8873   -0.2869   -0.4998 C.ar      1 <0>         0.0000
      3 C3         -2.1843    0.5343   -2.3854 C.ar      1 <0>         0.0000
      4 C4         -1.6008   -1.4924   -0.4829 C.ar      1 <0>         0.0000
      5 C5         -2.8930   -0.6641   -2.3812 C.ar      1 <0>         0.0000
      6 C6         -2.6012   -1.6552   -1.4400 C.ar      1 <0>         0.0000
      7 C7         -6.4793   -0.5790   -3.4655 C.2       1 <0>         0.0000
      8 C8         -8.7190   -0.5054   -3.8267 C.3       1 <0>         0.0000
      9 C9         -4.1461   -2.6222   -2.7920 C.3       1 <0>         0.0000
     10 C10        -8.3109   -1.4594   -4.9728 C.3       1 <0>         0.0000
     11 C11        -4.0702   -1.1270   -3.2074 C.3       1 <0>         0.0000
     12 N1         -7.6040   -0.3483   -2.8994 N.2       1 <0>         0.0000
     13 N2         -5.2571   -0.3252   -2.8885 N.pl3     1 <0>         0.0000
     14 O1         -3.3987   -2.7628   -1.5523 O.3       1 <0>         0.0000
     15 S1         -6.5049   -1.1996   -5.1673 S.3       1 <0>         0.0000
     16 H1         -0.5963    1.6418   -1.4267 H         1 <0>         0.0000
     17 H2         -0.0977   -0.1307    0.2307 H         1 <0>         0.0000
     18 H3         -2.4207    1.3128   -3.1064 H         1 <0>         0.0000
     19 H4         -1.3889   -2.2731    0.2412 H         1 <0>         0.0000
     20 H5         -8.9896    0.4788   -4.2343 H         1 <0>         0.0000
     21 H6         -9.5947   -0.8947   -3.2980 H         1 <0>         0.0000
     22 H7         -5.1667   -2.9626   -2.6126 H         1 <0>         0.0000
     23 H8         -3.6711   -3.2600   -3.5446 H         1 <0>         0.0000
     24 H9         -8.4885   -2.5062   -4.7126 H         1 <0>         0.0000
     25 H10        -8.8168   -1.2302   -5.9125 H         1 <0>         0.0000
     26 H11        -3.8852   -1.0403   -4.2808 H         1 <0>         0.0000
     27 H12        -5.3423   -0.0508   -1.9138 H         1 <0>         0.0000
@<TRIPOS>BOND
     1    1    2 ar
     2    1    3 ar
     3    1   16 1
     4    2    4 ar
     5    2   17 1
     6    3    5 ar
     7    3   18 1
     8    4    6 ar
     9    4   19 1
    10    5    6 ar
    11    5   11 1
    12    6   14 1
    13    7   12 2
    14    7   13 1
    15    7   15 1
    16    8   10 1
    17    8   12 1
    18    8   20 1
    19    8   21 1
    20    9   11 1
    21    9   14 1
    22    9   22 1
    23    9   23 1
    24   10   15 1
    25   10   24 1
    26   10   25 1
    27   11   13 1
    28   11   26 1
    29   13   27 1
