@<TRIPOS>MOLECULE
*****
   38    39     0     0     0
SMALL
NO_CHARGES

@<TRIPOS>ATOM
      1 C1         -2.2363    2.4877    3.0948 C.ar      1 <0>         0.0000
      2 C2         -2.9331    2.8988    4.2266 C.ar      1 <0>         0.0000
      3 C3         -1.2914    1.8253    5.6084 C.ar      1 <0>         0.0000
      4 C4         -1.0716    1.7019    3.1730 C.ar      1 <0>         0.0000
      5 C5         -2.4627    2.5773    5.5098 C.ar      1 <0>         0.0000
      6 C6         -0.6171    1.3792    4.4628 C.ar      1 <0>         0.0000
      7 C7         -0.3970    1.3431    1.8275 C.2       1 <0>         0.0000
      8 C8         -2.4714    3.5851    7.9277 C.3       1 <0>         0.0000
      9 C9         -3.3214    4.4988    7.0656 C.3       1 <0>         0.0000
     10 C10        -3.2066    3.0233    6.7328 C.3       1 <0>         0.0000
     11 C11         3.3465    1.5870    2.0035 C.3       1 <0>         0.0000
     12 C12         2.1103    3.0520    3.6194 C.3       1 <0>         0.0000
     13 C13         4.0212    1.6190    4.4336 C.3       1 <0>         0.0000
     14 C14         2.8420    1.7065    3.4514 C.3       1 <0>         0.0000
     15 N1          1.9775    0.5020    3.6455 N.pl3     1 <0>         0.0000
     16 O1         -0.4023    2.2679    0.9802 O.co2     1 <0>         0.0000
     17 O2          0.0842    0.1759    1.7227 O.co2     1 <0>         0.0000
     18 O3          1.4374    0.9810    6.0766 O.2       1 <0>         0.0000
     19 O4          0.4252   -1.0268    4.9112 O.2       1 <0>         0.0000
     20 S1          0.8588    0.3733    4.8601 S.o2      1 <0>         0.0000
     21 H1         -2.5599    2.7862    2.1023 H         1 <0>         0.0000
     22 H2         -3.8346    3.5011    4.1239 H         1 <0>         0.0000
     23 H3         -0.8810    1.5918    6.5858 H         1 <0>         0.0000
     24 H4         -1.3928    3.6822    7.8489 H         1 <0>         0.0000
     25 H5         -2.8318    3.3309    8.9210 H         1 <0>         0.0000
     26 H6         -4.2608    4.8669    7.4705 H         1 <0>         0.0000
     27 H7         -2.8032    5.1935    6.4106 H         1 <0>         0.0000
     28 H8         -4.0897    2.4303    6.9690 H         1 <0>         0.0000
     29 H9          3.8658    0.6338    1.8563 H         1 <0>         0.0000
     30 H10         2.5145    1.6447    1.2951 H         1 <0>         0.0000
     31 H11         4.0475    2.4010    1.7881 H         1 <0>         0.0000
     32 H12         1.7062    3.1609    4.6292 H         1 <0>         0.0000
     33 H13         1.2997    3.1592    2.8948 H         1 <0>         0.0000
     34 H14         2.8226    3.8689    3.4530 H         1 <0>         0.0000
     35 H15         3.6648    1.6723    5.4643 H         1 <0>         0.0000
     36 H16         4.5490    0.6689    4.3009 H         1 <0>         0.0000
     37 H17         4.7247    2.4416    4.2550 H         1 <0>         0.0000
     38 H18         1.4922    0.1902    2.7823 H         1 <0>         0.0000
@<TRIPOS>BOND
     1    1    2 ar
     2    1    4 ar
     3    1   21 1
     4    2    5 ar
     5    2   22 1
     6    3    5 ar
     7    3    6 ar
     8    3   23 1
     9    4    6 ar
    10    4    7 1
    11    5   10 1
    12    6   20 1
    13    7   16 1
    14    7   17 2
    15    8    9 1
    16    8   10 1
    17    8   24 1
    18    8   25 1
    19    9   10 1
    20    9   26 1
    21    9   27 1
    22   10   28 1
    23   11   14 1
    24   11   29 1
    25   11   30 1
    26   11   31 1
    27   12   14 1
    28   12   32 1
    29   12   33 1
    30   12   34 1
    31   13   14 1
    32   13   35 1
    33   13   36 1
    34   13   37 1
    35   14   15 1
    36   15   20 1
    37   15   38 1
    38   18   20 2
    39   19   20 2
