@<TRIPOS>MOLECULE
*****
   28    30     0     0     0
SMALL
NO_CHARGES

@<TRIPOS>ATOM
      1 C1         -4.7391   -3.0642   -2.2056 C.ar      1 <0>         0.0000
      2 C2         -3.7134   -3.6892   -2.9341 C.ar      1 <0>         0.0000
      3 C3         -4.7451   -3.1156   -0.8073 C.ar      1 <0>         0.0000
      4 C4         -2.6756   -4.3838   -2.3007 C.ar      1 <0>         0.0000
      5 C5         -3.7139   -3.8068   -0.1692 C.ar      1 <0>         0.0000
      6 C6         -2.7033   -4.4289   -0.9096 C.ar      1 <0>         0.0000
      7 C7         -2.6904   -2.4020    3.1035 C.cat     1 <0>         0.0000
      8 C8         -1.9350   -1.1814    5.0043 C.3       1 <0>         0.0000
      9 C9         -2.3146   -5.1012    1.2113 C.3       1 <0>         0.0000
     10 C10        -2.8504   -2.2250    5.6476 C.3       1 <0>         0.0000
     11 C11        -3.3821   -3.9828    1.2885 C.3       1 <0>         0.0000
     12 N1         -2.2593   -1.2206    3.5673 N.pl3     1 <0>         0.0000
     13 N2         -2.8402   -2.6954    1.8232 N.pl3     1 <0>         0.0000
     14 O1         -1.7675   -5.0534   -0.1225 O.3       1 <0>         0.0000
     15 S1         -3.0513   -3.5489    4.3723 S.3       1 <0>         0.0000
     16 H1         -5.5345   -2.5460   -2.7319 H         1 <0>         0.0000
     17 H2         -3.7284   -3.6421   -4.0192 H         1 <0>         0.0000
     18 H3         -5.5387   -2.6375   -0.2384 H         1 <0>         0.0000
     19 H4         -1.8882   -4.8763   -2.8620 H         1 <0>         0.0000
     20 H5         -2.1342   -0.1836    5.3992 H         1 <0>         0.0000
     21 H6         -0.8779   -1.4255    5.1530 H         1 <0>         0.0000
     22 H7         -1.4951   -4.9864    1.9226 H         1 <0>         0.0000
     23 H8         -2.7977   -6.0729    1.3582 H         1 <0>         0.0000
     24 H9         -2.4105   -2.6676    6.5408 H         1 <0>         0.0000
     25 H10        -3.8384   -1.8241    5.8782 H         1 <0>         0.0000
     26 H11        -4.2306   -4.2623    1.9179 H         1 <0>         0.0000
     27 H12        -1.9104   -0.5041    2.9377 H         1 <0>         0.0000
     28 H13        -2.5486   -2.0183    1.1217 H         1 <0>         0.0000
@<TRIPOS>BOND
     1    1    2 ar
     2    1    3 ar
     3    1   16 1
     4    2    4 ar
     5    2   17 1
     6    3    5 ar
     7    3   18 1
     8    4    6 ar
     9    4   19 1
    10    5    6 ar
    11    5   11 1
    12    6   14 1
    13    7   12 1
    14    7   13 2
    15    7   15 1
    16    8   10 1
    17    8   12 1
    18    8   20 1
    19    8   21 1
    20    9   11 1
    21    9   14 1
    22    9   22 1
    23    9   23 1
    24   10   15 1
    25   10   24 1
    26   10   25 1
    27   11   13 1
    28   11   26 1
    29   12   27 1
    30   13   28 1
