@<TRIPOS>MOLECULE
*****
   19    20     0     0     0
SMALL
NO_CHARGES

@<TRIPOS>ATOM
      1 C1         -3.6081   -1.9517   -0.3757 C.2       1 <0>         0.0000
      2 C2         -4.1573   -1.0448   -1.2577 C.2       1 <0>         0.0000
      3 C3         -1.8123   -0.7613   -0.7856 C.2       1 <0>         0.0000
      4 C4          0.4816    0.5078    1.0625 C.2       1 <0>         0.0000
      5 C5         -0.1476    1.1495   -0.1825 C.3       1 <0>         0.0000
      6 C6         -0.3381   -0.3133   -0.7017 C.3       1 <0>         0.0000
      7 C7          0.5017   -0.7403   -1.8881 C.3       1 <0>         0.0000
      8 N1         -2.2634   -1.7909   -0.1041 N.2       1 <0>         0.0000
      9 N2          0.2722   -0.7384    0.5653 N.am      1 <0>         0.0000
     10 O1          0.9762    0.9020    2.0934 O.2       1 <0>         0.0000
     11 S1         -2.9507    0.0598   -1.7728 S.3       1 <0>         0.0000
     12 H1         -4.1498   -2.7574    0.1013 H         1 <0>         0.0000
     13 H2         -5.1760   -0.9811   -1.6119 H         1 <0>         0.0000
     14 H3         -1.0593    1.7146    0.0324 H         1 <0>         0.0000
     15 H4          0.5465    1.7718   -0.7546 H         1 <0>         0.0000
     16 H5          1.5319   -0.3946   -1.7703 H         1 <0>         0.0000
     17 H6          0.0981   -0.3191   -2.8124 H         1 <0>         0.0000
     18 H7          0.5095   -1.8297   -1.9775 H         1 <0>         0.0000
     19 H8          0.4981   -1.6432    0.9566 H         1 <0>         0.0000
@<TRIPOS>BOND
     1    1    2 2
     2    1    8 1
     3    1   12 1
     4    2   11 1
     5    2   13 1
     6    3    6 1
     7    3    8 2
     8    3   11 1
     9    4    5 1
    10    4    9 am
    11    4   10 2
    12    5    6 1
    13    5   14 1
    14    5   15 1
    15    6    7 1
    16    6    9 1
    17    7   16 1
    18    7   17 1
    19    7   18 1
    20    9   19 1
