@<TRIPOS>MOLECULE
*****
   33    35     0     0     0
SMALL
NO_CHARGES

@<TRIPOS>ATOM
      1 C1         -7.3478    1.8528   -2.7337 C.ar      1 <0>         0.0000
      2 C2         -7.7217    2.2585   -0.3815 C.ar      1 <0>         0.0000
      3 C3         -8.7091    2.0299   -2.9807 C.ar      1 <0>         0.0000
      4 C4         -9.0831    2.4356   -0.6285 C.ar      1 <0>         0.0000
      5 C5         -0.8772    0.5936   -0.2428 C.ar      1 <0>         0.0000
      6 C6         -2.1248   -0.0264   -0.3346 C.ar      1 <0>         0.0000
      7 C7         -1.8689    2.7321   -0.7717 C.ar      1 <0>         0.0000
      8 C8         -3.1479    2.1331   -0.8722 C.ar      1 <0>         0.0000
      9 C9         -6.8541    1.9670   -1.4341 C.ar      1 <0>         0.0000
     10 C10        -4.4271    2.7089   -1.1762 C.2       1 <0>         0.0000
     11 C11        -9.5768    2.3213   -1.9281 C.ar      1 <0>         0.0000
     12 C12        -0.7482    1.9583   -0.4586 C.ar      1 <0>         0.0000
     13 C13        -3.2525    0.7565   -0.6503 C.ar      1 <0>         0.0000
     14 C14        -5.4435    1.7834   -1.1782 C.2       1 <0>         0.0000
     15 C15        -4.6086    5.0063   -0.1886 C.3       1 <0>         0.0000
     16 C16        -4.6268    4.1552   -1.4577 C.3       1 <0>         0.0000
     17 O1        -10.9051    2.4941   -2.1691 O.3       1 <0>         0.0000
     18 O2          0.4756    2.5487   -0.3663 O.3       1 <0>         0.0000
     19 S1         -4.8813    0.2155   -0.8165 S.3       1 <0>         0.0000
     20 H1         -6.6843    1.6260   -3.5649 H         1 <0>         0.0000
     21 H2         -7.3523    2.3508    0.6370 H         1 <0>         0.0000
     22 H3         -9.0878    1.9396   -3.9952 H         1 <0>         0.0000
     23 H4         -9.7541    2.6625    0.1955 H         1 <0>         0.0000
     24 H5         -0.0038   -0.0058    0.0016 H         1 <0>         0.0000
     25 H6         -2.2162   -1.0953   -0.1636 H         1 <0>         0.0000
     26 H7         -1.7535    3.8007   -0.9378 H         1 <0>         0.0000
     27 H8         -5.3685    4.6650    0.5226 H         1 <0>         0.0000
     28 H9         -4.8088    6.0571   -0.4205 H         1 <0>         0.0000
     29 H10        -3.6339    4.9482    0.3076 H         1 <0>         0.0000
     30 H11        -3.8506    4.5275   -2.1480 H         1 <0>         0.0000
     31 H12        -5.5826    4.3202   -1.9841 H         1 <0>         0.0000
     32 H13       -11.3743    2.6897   -1.3424 H         1 <0>         0.0000
     33 H14         0.4033    3.5000   -0.5425 H         1 <0>         0.0000
@<TRIPOS>BOND
     1    1    3 ar
     2    1    9 ar
     3    1   20 1
     4    2    4 ar
     5    2    9 ar
     6    2   21 1
     7    3   11 ar
     8    3   22 1
     9    4   11 ar
    10    4   23 1
    11    5    6 ar
    12    5   12 ar
    13    5   24 1
    14    6   13 ar
    15    6   25 1
    16    7    8 ar
    17    7   12 ar
    18    7   26 1
    19    8   10 1
    20    8   13 ar
    21    9   14 1
    22   10   14 2
    23   10   16 1
    24   11   17 1
    25   12   18 1
    26   13   19 1
    27   14   19 1
    28   15   16 1
    29   15   27 1
    30   15   28 1
    31   15   29 1
    32   16   30 1
    33   16   31 1
    34   17   32 1
    35   18   33 1
