@<TRIPOS>MOLECULE
*****
   30    31     0     0     0
SMALL
NO_CHARGES

@<TRIPOS>ATOM
      1 C1          3.1445   -2.2812   -6.2449 C.2       1 <0>         0.0000
      2 C2          1.9967   -1.8554   -5.5350 C.2       1 <0>         0.0000
      3 C3          2.4670   -1.6343   -4.2382 C.2       1 <0>         0.0000
      4 C4          0.1475   -0.0298   -1.0132 C.3       1 <0>         0.0000
      5 C5          1.4742    0.6204   -1.4272 C.3       1 <0>         0.0000
      6 C6          0.1838   -1.5410   -1.2769 C.3       1 <0>         0.0000
      7 C7          1.8318    0.2630   -2.8713 C.3       1 <0>         0.0000
      8 C8          0.5667   -1.8301   -2.7305 C.3       1 <0>         0.0000
      9 C9          0.6048   -1.6756   -6.0743 C.3       1 <0>         0.0000
     10 C10         4.7427   -1.8176   -3.1516 C.3       1 <0>         0.0000
     11 N1          4.2387   -2.3151   -5.4759 N.2       1 <0>         0.0000
     12 N2          3.8072   -1.9325   -4.2527 N.pl3     1 <0>         0.0000
     13 N3          1.8559   -1.2000   -3.0463 N.pl3     1 <0>         0.0000
     14 H1          3.2173   -2.5581   -7.2909 H         1 <0>         0.0000
     15 H2         -0.6718    0.4188   -1.5920 H         1 <0>         0.0000
     16 H3         -0.0647    0.1712    0.0428 H         1 <0>         0.0000
     17 H4          1.4202    1.7104   -1.3248 H         1 <0>         0.0000
     18 H5          2.2777    0.2681   -0.7685 H         1 <0>         0.0000
     19 H6          0.9201   -2.0144   -0.6160 H         1 <0>         0.0000
     20 H7         -0.7909   -1.9942   -1.0618 H         1 <0>         0.0000
     21 H8          1.1055    0.7286   -3.5621 H         1 <0>         0.0000
     22 H9          2.8195    0.6546   -3.1307 H         1 <0>         0.0000
     23 H10         0.6656   -2.9061   -2.8988 H         1 <0>         0.0000
     24 H11        -0.2363   -1.4644   -3.3935 H         1 <0>         0.0000
     25 H12        -0.0823   -2.4530   -5.7204 H         1 <0>         0.0000
     26 H13         0.1774   -0.7080   -5.7914 H         1 <0>         0.0000
     27 H14         0.6144   -1.7220   -7.1676 H         1 <0>         0.0000
     28 H15         5.4244   -2.6697   -3.1769 H         1 <0>         0.0000
     29 H16         5.3257   -0.8929   -3.2260 H         1 <0>         0.0000
     30 H17         4.1754   -1.8139   -2.2197 H         1 <0>         0.0000
@<TRIPOS>BOND
     1    1    2 1
     2    1   11 2
     3    1   14 1
     4    2    3 2
     5    2    9 1
     6    3   12 1
     7    3   13 1
     8    4    6 1
     9    4    5 1
    10    4   15 1
    11    4   16 1
    12    5    7 1
    13    5   17 1
    14    5   18 1
    15    6    8 1
    16    6   19 1
    17    6   20 1
    18    7   13 1
    19    7   21 1
    20    7   22 1
    21    8   13 1
    22    8   23 1
    23    8   24 1
    24    9   25 1
    25    9   26 1
    26    9   27 1
    27   10   12 1
    28   10   28 1
    29   10   29 1
    30   10   30 1
    31   11   12 1
