@<TRIPOS>MOLECULE
*****
   52    55     0     0     0
SMALL
NO_CHARGES

@<TRIPOS>ATOM
      1 C1         -7.2064   -9.2102    6.9431 C.ar      1 <0>         0.0000
      2 C2         -8.0514   -8.7928    5.9147 C.ar      1 <0>         0.0000
      3 C3         -5.8635   -8.8329    6.9387 C.ar      1 <0>         0.0000
      4 C4         -0.1917   -2.3464    2.8821 C.ar      1 <0>         0.0000
      5 C5         -7.5535   -7.9982    4.8821 C.ar      1 <0>         0.0000
      6 C6         -5.3657   -8.0383    5.9061 C.ar      1 <0>         0.0000
      7 C7          0.2920   -3.1256    1.8352 C.ar      1 <0>         0.0000
      8 C8         -1.5615   -2.2709    3.1079 C.ar      1 <0>         0.0000
      9 C9         -1.9755   -3.7658    1.2261 C.ar      1 <0>         0.0000
     10 C10        -6.2107   -7.6209    4.8778 C.ar      1 <0>         0.0000
     11 C11        -0.5938   -3.8299    1.0107 C.ar      1 <0>         0.0000
     12 C12        -2.4464   -2.9751    2.2873 C.ar      1 <0>         0.0000
     13 C13        -2.3213   -5.2189   -0.6499 C.2       1 <0>         0.0000
     14 C14        -2.8794   -4.5220    0.3489 C.2       1 <0>         0.0000
     15 C15        -6.3139   -5.5003    3.6378 C.3       1 <0>         0.0000
     16 C16        -4.3078   -6.9507    3.4381 C.3       1 <0>         0.0000
     17 C17        -6.0462   -5.0018    2.2159 C.3       1 <0>         0.0000
     18 C18        -4.1041   -6.4045    2.0227 C.3       1 <0>         0.0000
     19 C19        -0.8383   -5.2705   -0.9179 C.3       1 <0>         0.0000
     20 C20        -0.5511   -4.6657   -2.2975 C.3       1 <0>         0.0000
     21 C21        -0.3713   -6.7310   -0.8882 C.3       1 <0>         0.0000
     22 C22        -4.3618   -4.5021    0.5686 C.3       1 <0>         0.0000
     23 N1         -5.7115   -6.8238    3.8416 N.pl3     1 <0>         0.0000
     24 N2         -4.6107   -5.0314    1.9090 N.3       1 <0>         0.0000
     25 O1         -0.0067   -4.5648    0.0202 O.3       1 <0>         0.0000
     26 O2         -3.7700   -2.8339    2.5879 O.3       1 <0>         0.0000
     27 H1         -7.5940   -9.8288    7.7473 H         1 <0>         0.0000
     28 H2         -9.0971   -9.0867    5.9182 H         1 <0>         0.0000
     29 H3         -5.2059   -9.1578    7.7394 H         1 <0>         0.0000
     30 H4          0.4974   -1.8005    3.5195 H         1 <0>         0.0000
     31 H5         -8.2214   -7.6791    4.0859 H         1 <0>         0.0000
     32 H6         -4.3178   -7.7497    5.9121 H         1 <0>         0.0000
     33 H7          1.3642   -3.1819    1.6640 H         1 <0>         0.0000
     34 H8         -1.9359   -1.6602    3.9255 H         1 <0>         0.0000
     35 H9         -2.9555   -5.7886   -1.3269 H         1 <0>         0.0000
     36 H10        -5.9022   -4.7891    4.3664 H         1 <0>         0.0000
     37 H11        -7.3982   -5.5497    3.7978 H         1 <0>         0.0000
     38 H12        -4.0017   -8.0041    3.4584 H         1 <0>         0.0000
     39 H13        -3.6673   -6.4050    4.1437 H         1 <0>         0.0000
     40 H14        -6.6127   -5.6077    1.5010 H         1 <0>         0.0000
     41 H15        -6.4150   -3.9747    2.1437 H         1 <0>         0.0000
     42 H16        -3.0317   -6.4184    1.8075 H         1 <0>         0.0000
     43 H17        -4.5950   -7.0645    1.2999 H         1 <0>         0.0000
     44 H18         0.5171   -4.7011   -2.4943 H         1 <0>         0.0000
     45 H19        -0.8882   -3.6328   -2.3184 H         1 <0>         0.0000
     46 H20        -1.0780   -5.2335   -3.0597 H         1 <0>         0.0000
     47 H21         0.6973   -6.7742   -1.0808 H         1 <0>         0.0000
     48 H22        -0.8993   -7.2964   -1.6512 H         1 <0>         0.0000
     49 H23        -0.5802   -7.1589    0.0886 H         1 <0>         0.0000
     50 H24        -4.8326   -5.1249   -0.1896 H         1 <0>         0.0000
     51 H25        -4.7106   -3.4746    0.4845 H         1 <0>         0.0000
     52 H26        -3.8771   -2.2454    3.3506 H         1 <0>         0.0000
@<TRIPOS>BOND
     1    1    3 ar
     2    1    2 ar
     3    1   27 1
     4    2    5 ar
     5    2   28 1
     6    3    6 ar
     7    3   29 1
     8    4    7 ar
     9    4    8 ar
    10    4   30 1
    11    5   10 ar
    12    5   31 1
    13    6   10 ar
    14    6   32 1
    15    7   11 ar
    16    7   33 1
    17    8   12 ar
    18    8   34 1
    19    9   11 ar
    20    9   12 ar
    21    9   14 1
    22   10   23 1
    23   11   25 1
    24   12   26 1
    25   13   14 2
    26   13   19 1
    27   13   35 1
    28   14   22 1
    29   15   17 1
    30   15   23 1
    31   15   36 1
    32   15   37 1
    33   16   18 1
    34   16   23 1
    35   16   38 1
    36   16   39 1
    37   17   24 1
    38   17   40 1
    39   17   41 1
    40   18   24 1
    41   18   42 1
    42   18   43 1
    43   19   20 1
    44   19   21 1
    45   19   25 1
    46   20   44 1
    47   20   45 1
    48   20   46 1
    49   21   47 1
    50   21   48 1
    51   21   49 1
    52   22   24 1
    53   22   50 1
    54   22   51 1
    55   26   52 1
