@<TRIPOS>MOLECULE
*****
   24    24     0     0     0
SMALL
NO_CHARGES

@<TRIPOS>ATOM
      1 C1          3.1332    3.0798   -4.3424 C.2       1 <0>         0.0000
      2 C2          3.9803    3.8101   -3.5161 C.2       1 <0>         0.0000
      3 C3          2.6842    1.9788   -3.5721 C.2       1 <0>         0.0000
      4 C4          3.2688    2.0501   -2.3044 C.2       1 <0>         0.0000
      5 C5          3.0117    1.2952   -1.0608 C.2       1 <0>         0.0000
      6 C6          4.8507    3.6945   -1.1796 C.3       1 <0>         0.0000
      7 C7          2.3396   -0.7693    0.0248 C.3       1 <0>         0.0000
      8 C8          3.2412   -0.8948   -2.2650 C.3       1 <0>         0.0000
      9 N1          4.0523    3.2059   -2.2984 N.pl3     1 <0>         0.0000
     10 N2          2.7860   -0.0558   -1.1643 N.am      1 <0>         0.0000
     11 O1          2.9680    1.8794    0.0347 O.2       1 <0>         0.0000
     12 O2          1.8005    0.9991   -3.9556 O.3       1 <0>         0.0000
     13 H1          2.8726    3.3182   -5.3664 H         1 <0>         0.0000
     14 H2          4.5441    4.7097   -3.7233 H         1 <0>         0.0000
     15 H3          4.2074    4.0137   -0.3592 H         1 <0>         0.0000
     16 H4          5.5127    2.9075   -0.8101 H         1 <0>         0.0000
     17 H5          5.4564    4.5306   -1.5354 H         1 <0>         0.0000
     18 H6          1.6392   -1.5577   -0.2709 H         1 <0>         0.0000
     19 H7          1.8470   -0.0727    0.7018 H         1 <0>         0.0000
     20 H8          3.1833   -1.2316    0.5561 H         1 <0>         0.0000
     21 H9          3.8991   -1.6811   -1.8715 H         1 <0>         0.0000
     22 H10         3.8025   -0.3063   -2.9881 H         1 <0>         0.0000
     23 H11         2.3980   -1.3652   -2.7811 H         1 <0>         0.0000
     24 H12         1.4375    1.2442   -4.8202 H         1 <0>         0.0000
@<TRIPOS>BOND
     1    1    2 2
     2    1    3 1
     3    1   13 1
     4    2    9 1
     5    2   14 1
     6    3    4 2
     7    3   12 1
     8    4    5 1
     9    4    9 1
    10    5   10 am
    11    5   11 2
    12    6    9 1
    13    6   15 1
    14    6   16 1
    15    6   17 1
    16    7   10 1
    17    7   18 1
    18    7   19 1
    19    7   20 1
    20    8   10 1
    21    8   21 1
    22    8   22 1
    23    8   23 1
    24   12   24 1
