@<TRIPOS>MOLECULE
*****
   24    25     0     0     0
SMALL
NO_CHARGES

@<TRIPOS>ATOM
      1 C1          2.0714   -0.5807    0.1067 C.ar      1 <0>         0.0000
      2 C2          0.9907    0.2658    0.3573 C.ar      1 <0>         0.0000
      3 C3          3.3478   -0.2453    0.5634 C.ar      1 <0>         0.0000
      4 C4          1.1804    1.4517    1.0658 C.ar      1 <0>         0.0000
      5 C5          4.8683    1.3264    1.7680 C.2       1 <0>         0.0000
      6 C6          3.5466    0.9421    1.2742 C.ar      1 <0>         0.0000
      7 C7          5.0330    2.4685    2.4466 C.2       1 <0>         0.0000
      8 C8          2.4575    1.7852    1.5213 C.ar      1 <0>         0.0000
      9 C9          3.8858    3.3820    2.7209 C.2       1 <0>         0.0000
     10 C10         6.3957    2.7686    2.9011 C.2       1 <0>         0.0000
     11 C11         8.0950    3.9452    3.9203 C.3       1 <0>         0.0000
     12 N1          6.6833    3.8309    3.5669 N.2       1 <0>         0.0000
     13 N2          2.6558    2.9795    2.2362 N.am      1 <0>         0.0000
     14 O1          4.0502    4.4282    3.3455 O.2       1 <0>         0.0000
     15 H1          1.9192   -1.5042   -0.4447 H         1 <0>         0.0000
     16 H2         -0.0001   -0.0003    0.0004 H         1 <0>         0.0000
     17 H3          4.1768   -0.9180    0.3581 H         1 <0>         0.0000
     18 H4          0.3318    2.1034    1.2559 H         1 <0>         0.0000
     19 H5          5.6956    0.6536    1.5620 H         1 <0>         0.0000
     20 H6          7.1520    2.0103    2.6317 H         1 <0>         0.0000
     21 H7          8.6374    4.4762    3.1337 H         1 <0>         0.0000
     22 H8          8.5329    2.9514    4.0450 H         1 <0>         0.0000
     23 H9          8.2007    4.4977    4.8574 H         1 <0>         0.0000
     24 H10         1.8524    3.5782    2.4054 H         1 <0>         0.0000
@<TRIPOS>BOND
     1    1    2 ar
     2    1    3 ar
     3    1   15 1
     4    2    4 ar
     5    2   16 1
     6    3    6 ar
     7    3   17 1
     8    4    8 ar
     9    4   18 1
    10    5    6 1
    11    5    7 2
    12    5   19 1
    13    6    8 ar
    14    7    9 1
    15    7   10 1
    16    8   13 1
    17    9   13 am
    18    9   14 2
    19   10   12 2
    20   10   20 1
    21   11   12 1
    22   11   21 1
    23   11   22 1
    24   11   23 1
    25   13   24 1
