@<TRIPOS>MOLECULE
*****
   41    42     0     0     0
SMALL
NO_CHARGES

@<TRIPOS>ATOM
      1 C1          0.9419   -2.8807   -8.8784 C.ar      1 <0>         0.0000
      2 C2         -0.2067   -2.1058   -8.8003 C.ar      1 <0>         0.0000
      3 C3          1.7656   -3.0666   -7.7552 C.ar      1 <0>         0.0000
      4 C4          0.2501   -1.6447   -6.4489 C.ar      1 <0>         0.0000
      5 C5         -0.5409   -1.4750   -7.5985 C.ar      1 <0>         0.0000
      6 C6          1.4131   -2.4468   -6.5423 C.ar      1 <0>         0.0000
      7 C7          2.9596   -3.9600   -7.8898 C.2       1 <0>         0.0000
      8 C8         -0.1986    2.0426   -1.6345 C.3       1 <0>         0.0000
      9 C9         -0.1831    0.5551   -1.1710 C.3       1 <0>         0.0000
     10 C10         0.0534    2.0155   -3.1640 C.3       1 <0>         0.0000
     11 C11         0.2308   -0.2634   -2.4109 C.3       1 <0>         0.0000
     12 C12        -0.2845    0.5753   -3.5909 C.3       1 <0>         0.0000
     13 C13        -2.5401    2.1197   -8.5019 C.3       1 <0>         0.0000
     14 C14         0.3067    0.2062   -4.9337 C.3       1 <0>         0.0000
     15 C15        -1.4077    1.1009   -8.3913 C.3       1 <0>         0.0000
     16 O1          3.5288   -4.5457   -6.9932 O.2       1 <0>         0.0000
     17 O2         -2.9383   -1.0604   -8.6376 O.2       1 <0>         0.0000
     18 O3         -2.5187   -0.1360   -6.2963 O.2       1 <0>         0.0000
     19 O4          3.3520   -4.0774   -9.1913 O.3       1 <0>         0.0000
     20 O5         -0.1093   -1.1448   -5.2422 O.3       1 <0>         0.0000
     21 S1         -2.0400   -0.4414   -7.6490 S.o2      1 <0>         0.0000
     22 Cl1         2.3717   -2.5963   -5.0984 Cl        1 <0>         0.0000
     23 H1          1.2067   -3.3677   -9.8090 H         1 <0>         0.0000
     24 H2         -0.8634   -2.0022   -9.6580 H         1 <0>         0.0000
     25 H3         -1.1658    2.5038   -1.4126 H         1 <0>         0.0000
     26 H4          0.5598    2.6402   -1.1202 H         1 <0>         0.0000
     27 H5          0.4908    0.3885   -0.3253 H         1 <0>         0.0000
     28 H6         -1.1832    0.2529   -0.8433 H         1 <0>         0.0000
     29 H7         -0.5340    2.7654   -3.7036 H         1 <0>         0.0000
     30 H8          1.1117    2.2184   -3.3749 H         1 <0>         0.0000
     31 H9          1.3246   -0.3381   -2.4736 H         1 <0>         0.0000
     32 H10        -0.1654   -1.2816   -2.4102 H         1 <0>         0.0000
     33 H11        -1.3724    0.4622   -3.6689 H         1 <0>         0.0000
     34 H12        -3.3492    1.7385   -9.1295 H         1 <0>         0.0000
     35 H13        -2.9453    2.3616   -7.5165 H         1 <0>         0.0000
     36 H14        -2.1552    3.0384   -8.9542 H         1 <0>         0.0000
     37 H15         1.4037    0.2470   -4.9125 H         1 <0>         0.0000
     38 H16        -0.0597    0.8832   -5.7132 H         1 <0>         0.0000
     39 H17        -0.5957    1.4529   -7.7506 H         1 <0>         0.0000
     40 H18        -0.9990    0.8243   -9.3665 H         1 <0>         0.0000
     41 H19         4.1028   -4.7018   -9.1843 H         1 <0>         0.0000
@<TRIPOS>BOND
     1    1    2 ar
     2    1    3 ar
     3    1   23 1
     4    2    5 ar
     5    2   24 1
     6    3    6 ar
     7    3    7 1
     8    4    5 ar
     9    4    6 ar
    10    4   20 1
    11    5   21 1
    12    6   22 1
    13    7   16 2
    14    7   19 1
    15    8    9 1
    16    8   10 1
    17    8   25 1
    18    8   26 1
    19    9   11 1
    20    9   27 1
    21    9   28 1
    22   10   12 1
    23   10   29 1
    24   10   30 1
    25   11   12 1
    26   11   31 1
    27   11   32 1
    28   12   14 1
    29   12   33 1
    30   13   15 1
    31   13   34 1
    32   13   35 1
    33   13   36 1
    34   14   20 1
    35   14   37 1
    36   14   38 1
    37   15   21 1
    38   15   39 1
    39   15   40 1
    40   17   21 2
    41   18   21 2
    42   19   41 1
