@<TRIPOS>MOLECULE
*****
   29    30     0     0     0
SMALL
NO_CHARGES

@<TRIPOS>ATOM
      1 C1          0.5031    4.8677    3.7993 C.ar      1 <0>         0.0000
      2 C2         -0.8331    5.2757    3.8565 C.ar      1 <0>         0.0000
      3 C3          0.9513    4.0864    2.7304 C.ar      1 <0>         0.0000
      4 C4         -1.7273    4.9044    2.8459 C.ar      1 <0>         0.0000
      5 C5          0.0796    3.7074    1.7016 C.ar      1 <0>         0.0000
      6 C6         -1.2465    4.1351    1.7984 C.ar      1 <0>         0.0000
      7 C7         -0.1358    0.5559    0.8911 C.cat     1 <0>         0.0000
      8 C8         -0.3331   -1.6718    1.4798 C.3       1 <0>         0.0000
      9 C9          0.8557   -1.0113    2.2000 C.3       1 <0>         0.0000
     10 C10         0.6321    3.7177   -0.7865 C.3       1 <0>         0.0000
     11 C11         0.5688    2.9070    0.5117 C.3       1 <0>         0.0000
     12 N1         -0.9856   -0.4802    0.9083 N.pl3     1 <0>         0.0000
     13 N2         -0.3043    1.7144    0.2894 N.pl3     1 <0>         0.0000
     14 O1          0.9767    0.3117    1.5619 O.3       1 <0>         0.0000
     15 F1         -2.1184    3.7602    0.8050 F         1 <0>         0.0000
     16 H1          1.1948    5.1569    4.5845 H         1 <0>         0.0000
     17 H2         -1.1849    5.8828    4.6851 H         1 <0>         0.0000
     18 H3          1.9915    3.7722    2.6881 H         1 <0>         0.0000
     19 H4         -2.7700    5.2058    2.8614 H         1 <0>         0.0000
     20 H5         -0.0196   -2.3589    0.6887 H         1 <0>         0.0000
     21 H6         -1.0013   -2.1871    2.1708 H         1 <0>         0.0000
     22 H7          0.6687   -0.8324    3.2595 H         1 <0>         0.0000
     23 H8          1.8058   -1.5221    2.0584 H         1 <0>         0.0000
     24 H9         -0.3527    4.1019   -1.0653 H         1 <0>         0.0000
     25 H10         1.0255    3.1088   -1.6054 H         1 <0>         0.0000
     26 H11         1.2948    4.5731   -0.6384 H         1 <0>         0.0000
     27 H12         1.5610    2.5153    0.7369 H         1 <0>         0.0000
     28 H13        -1.8209   -0.5220    0.3360 H         1 <0>         0.0000
     29 H14        -1.2067    1.8987   -0.1396 H         1 <0>         0.0000
@<TRIPOS>BOND
     1    1    2 ar
     2    1    3 ar
     3    1   16 1
     4    2    4 ar
     5    2   17 1
     6    3    5 ar
     7    3   18 1
     8    4    6 ar
     9    4   19 1
    10    5    6 ar
    11    5   11 1
    12    6   15 1
    13    7   12 1
    14    7   13 2
    15    7   14 1
    16    8    9 1
    17    8   12 1
    18    8   20 1
    19    8   21 1
    20    9   14 1
    21    9   22 1
    22    9   23 1
    23   10   11 1
    24   10   24 1
    25   10   25 1
    26   10   26 1
    27   11   13 1
    28   11   27 1
    29   12   28 1
    30   13   29 1
