@<TRIPOS>MOLECULE
*****
   19    20     0     0     0
SMALL
NO_CHARGES

@<TRIPOS>ATOM
      1 C1          3.2870   -2.3613    0.5215 C.2       1 <0>         0.0000
      2 C2          3.8428   -2.1309   -0.7059 C.2       1 <0>         0.0000
      3 C3          1.5892   -1.2407   -0.3636 C.2       1 <0>         0.0000
      4 C4         -0.2781    0.9788    0.8114 C.2       1 <0>         0.0000
      5 C5          0.2137    0.9375   -0.6507 C.3       1 <0>         0.0000
      6 C6          0.2167   -0.6209   -0.4741 C.3       1 <0>         0.0000
      7 C7         -0.6800   -1.4059   -1.4336 C.3       1 <0>         0.0000
      8 N1          2.0153   -1.8568    0.7048 N.2       1 <0>         0.0000
      9 N2         -0.3879   -0.4026    0.8586 N.am      1 <0>         0.0000
     10 O1         -0.4777    1.8447    1.6352 O.2       1 <0>         0.0000
     11 S1          2.7319   -1.2390   -1.6965 S.3       1 <0>         0.0000
     12 H1          3.7691   -2.8951    1.3330 H         1 <0>         0.0000
     13 H2          4.8180   -2.4220   -1.0737 H         1 <0>         0.0000
     14 H3         -0.4962    1.3171   -1.3888 H         1 <0>         0.0000
     15 H4          1.1921    1.3984   -0.7961 H         1 <0>         0.0000
     16 H5         -1.6755   -0.9542   -1.4598 H         1 <0>         0.0000
     17 H6         -0.7753   -2.4454   -1.1051 H         1 <0>         0.0000
     18 H7         -0.2645   -1.4042   -2.4463 H         1 <0>         0.0000
     19 H8         -0.2600   -0.9982    1.6729 H         1 <0>         0.0000
@<TRIPOS>BOND
     1    1    2 2
     2    1    8 1
     3    1   12 1
     4    2   11 1
     5    2   13 1
     6    3    6 1
     7    3    8 2
     8    3   11 1
     9    4    5 1
    10    4    9 am
    11    4   10 2
    12    5    6 1
    13    5   14 1
    14    5   15 1
    15    6    7 1
    16    6    9 1
    17    7   16 1
    18    7   17 1
    19    7   18 1
    20    9   19 1
