@<TRIPOS>MOLECULE
*****
   24    24     0     0     0
SMALL
NO_CHARGES

@<TRIPOS>ATOM
      1 C1          4.5441    1.3951   -4.4941 C.2       1 <0>         0.0000
      2 C2          3.8565    0.3334   -3.9812 C.2       1 <0>         0.0000
      3 C3          5.8740   -0.6578   -3.9713 C.2       1 <0>         0.0000
      4 C4          2.1794   -0.6724   -2.4832 C.2       1 <0>         0.0000
      5 C5          3.1622   -1.2390   -0.4030 C.3       1 <0>         0.0000
      6 C6          5.3846   -3.8318   -3.8166 C.3       1 <0>         0.0000
      7 C7          2.3812    0.2828   -3.6496 C.3       1 <0>         0.0000
      8 N1          4.5816   -0.8044   -3.7133 N.2       1 <0>         0.0000
      9 N2          6.8990   -1.5075   -3.8199 N.2       1 <0>         0.0000
     10 O1          1.5382   -1.7073   -2.5350 O.2       1 <0>         0.0000
     11 O2          6.0827   -2.5975   -1.5860 O.2       1 <0>         0.0000
     12 O3          7.8897   -3.6541   -2.9947 O.2       1 <0>         0.0000
     13 O4          2.8253   -0.2315   -1.3834 O.3       1 <0>         0.0000
     14 S1          6.2435    0.9747   -4.6491 S.3       1 <0>         0.0000
     15 S2          6.6442   -2.8604   -2.9364 S.o2      1 <0>         0.0000
     16 H1          4.1703    2.3753   -4.7618 H         1 <0>         0.0000
     17 H2          3.5076   -0.6877    0.4733 H         1 <0>         0.0000
     18 H3          3.9730   -1.8547   -0.8035 H         1 <0>         0.0000
     19 H4          2.2880   -1.8466   -0.1566 H         1 <0>         0.0000
     20 H5          5.2437   -4.7541   -3.2483 H         1 <0>         0.0000
     21 H6          4.4669   -3.2451   -3.8571 H         1 <0>         0.0000
     22 H7          5.7668   -4.0498   -4.8157 H         1 <0>         0.0000
     23 H8          2.0151    1.2808   -3.3873 H         1 <0>         0.0000
     24 H9          1.7886   -0.1014   -4.4849 H         1 <0>         0.0000
@<TRIPOS>BOND
     1    1    2 2
     2    1   14 1
     3    1   16 1
     4    2    7 1
     5    2    8 1
     6    3    8 2
     7    3    9 1
     8    3   14 1
     9    4    7 1
    10    4   10 2
    11    4   13 1
    12    5   13 1
    13    5   17 1
    14    5   18 1
    15    5   19 1
    16    6   15 1
    17    6   20 1
    18    6   21 1
    19    6   22 1
    20    7   23 1
    21    7   24 1
    22    9   15 1
    23   11   15 2
    24   12   15 2
