@<TRIPOS>MOLECULE
*****
   24    24     0     0     0
SMALL
NO_CHARGES

@<TRIPOS>ATOM
      1 C1          4.5578    1.0701   -4.9366 C.2       1 <0>         0.0000
      2 C2          3.9110    0.1998   -4.1061 C.2       1 <0>         0.0000
      3 C3          5.7740   -1.0314   -4.3432 C.2       1 <0>         0.0000
      4 C4          1.6585    1.3659   -4.2187 C.2       1 <0>         0.0000
      5 C5          1.2892    3.6454   -4.7181 C.3       1 <0>         0.0000
      6 C6          5.0258   -4.0858   -3.7264 C.3       1 <0>         0.0000
      7 C7          2.5407    0.3859   -3.4847 C.3       1 <0>         0.0000
      8 N1          4.5703   -0.9641   -3.7800 N.2       1 <0>         0.0000
      9 N2          6.7187   -1.9783   -4.3171 N.2       1 <0>         0.0000
     10 O1          0.7012    1.0826   -4.9168 O.2       1 <0>         0.0000
     11 O2          6.4149   -2.8213   -1.8610 O.2       1 <0>         0.0000
     12 O3          7.6606   -4.1768   -3.5866 O.2       1 <0>         0.0000
     13 O4          2.0457    2.6548   -4.0046 O.3       1 <0>         0.0000
     14 S1          6.1315    0.4205   -5.3567 S.3       1 <0>         0.0000
     15 S2          6.5673   -3.2304   -3.2767 S.o2      1 <0>         0.0000
     16 H1          4.2262    2.0377   -5.2861 H         1 <0>         0.0000
     17 H2          1.7389    4.6037   -4.4544 H         1 <0>         0.0000
     18 H3          0.2375    3.6195   -4.4190 H         1 <0>         0.0000
     19 H4          1.3538    3.4756   -5.7964 H         1 <0>         0.0000
     20 H5          4.9308   -4.9408   -3.0529 H         1 <0>         0.0000
     21 H6          4.2001   -3.3850   -3.6025 H         1 <0>         0.0000
     22 H7          5.1155   -4.4188   -4.7622 H         1 <0>         0.0000
     23 H8          2.0281   -0.5774   -3.4807 H         1 <0>         0.0000
     24 H9          2.6574    0.7131   -2.4443 H         1 <0>         0.0000
@<TRIPOS>BOND
     1    1    2 2
     2    1   14 1
     3    1   16 1
     4    2    7 1
     5    2    8 1
     6    3    8 2
     7    3    9 1
     8    3   14 1
     9    4    7 1
    10    4   10 2
    11    4   13 1
    12    5   13 1
    13    5   17 1
    14    5   18 1
    15    5   19 1
    16    6   15 1
    17    6   20 1
    18    6   21 1
    19    6   22 1
    20    7   23 1
    21    7   24 1
    22    9   15 1
    23   11   15 2
    24   12   15 2
