@<TRIPOS>MOLECULE
*****
   17    18     0     0     0
SMALL
NO_CHARGES

@<TRIPOS>ATOM
      1 C1         -1.4651   -0.3406   -0.8565 C.3       1 <0>         0.0000
      2 C2          0.6522    0.8755   -1.3110 C.3       1 <0>         0.0000
      3 C3         -0.9166    0.1763    0.4512 C.3       1 <0>         0.0000
      4 C4          0.3772    0.9300    0.1744 C.3       1 <0>         0.0000
      5 C5          0.3874   -0.3753    0.9524 C.3       1 <0>         0.0000
      6 N1         -0.2758   -0.2369   -1.8207 N.4       1 <0>         0.0000
      7 O1          0.5252   -0.3268    2.3333 O.3       1 <0>         0.0000
      8 H1         -1.8045   -1.3786   -0.8504 H         1 <0>         0.0000
      9 H2         -2.2585    0.3022   -1.2419 H         1 <0>         0.0000
     10 H3          0.3607    1.8015   -1.8099 H         1 <0>         0.0000
     11 H4          1.6737    0.6142   -1.5969 H         1 <0>         0.0000
     12 H5         -1.6225    0.5471    1.1864 H         1 <0>         0.0000
     13 H6          0.5948    1.8557    0.6959 H         1 <0>         0.0000
     14 H7          0.8054   -1.2664    0.4699 H         1 <0>         0.0000
     15 H8          0.2313   -1.1268   -1.8332 H         1 <0>         0.0000
     16 H9         -0.5802   -0.0671   -2.7850 H         1 <0>         0.0000
     17 H10         1.4653   -0.2520    2.5682 H         1 <0>         0.0000
@<TRIPOS>BOND
     1    1    3 1
     2    1    6 1
     3    1    8 1
     4    1    9 1
     5    2    4 1
     6    2    6 1
     7    2   10 1
     8    2   11 1
     9    3    4 1
    10    3    5 1
    11    3   12 1
    12    4    5 1
    13    4   13 1
    14    5    7 1
    15    5   14 1
    16    6   15 1
    17    6   16 1
    18    7   17 1
