@<TRIPOS>MOLECULE
*****
   24    24     0     0     0
SMALL
NO_CHARGES

@<TRIPOS>ATOM
      1 C1          4.6410    1.5967   -4.9447 C.2       1 <0>         0.0000
      2 C2          3.7413    0.9825   -4.1230 C.2       1 <0>         0.0000
      3 C3          5.3182   -0.6099   -3.9745 C.2       1 <0>         0.0000
      4 C4          2.2757    1.7812   -2.2694 C.2       1 <0>         0.0000
      5 C5          1.5921    0.8514   -0.2144 C.3       1 <0>         0.0000
      6 C6          8.2876   -1.0384   -2.5271 C.3       1 <0>         0.0000
      7 C7          2.3838    1.5416   -3.7632 C.3       1 <0>         0.0000
      8 N1          4.1099   -0.2265   -3.5839 N.2       1 <0>         0.0000
      9 N2          5.8799   -1.7634   -3.5661 N.2       1 <0>         0.0000
     10 O1          2.7382    2.7381   -1.6733 O.2       1 <0>         0.0000
     11 O2          7.9808   -1.5521   -5.0941 O.2       1 <0>         0.0000
     12 O3          7.7288   -3.4532   -3.4417 O.2       1 <0>         0.0000
     13 O4          1.5953    0.7856   -1.6488 O.3       1 <0>         0.0000
     14 S1          6.0668    0.6019   -5.1311 S.3       1 <0>         0.0000
     15 S2          7.4523   -2.0470   -3.7950 S.o2      1 <0>         0.0000
     16 H1          4.5452    2.5548   -5.4406 H         1 <0>         0.0000
     17 H2          1.0507   -0.0354    0.1179 H         1 <0>         0.0000
     18 H3          1.0931    1.7610    0.1331 H         1 <0>         0.0000
     19 H4          2.6163    0.8369    0.1665 H         1 <0>         0.0000
     20 H5          9.3633   -1.2002   -2.6282 H         1 <0>         0.0000
     21 H6          8.0409    0.0116   -2.6988 H         1 <0>         0.0000
     22 H7          7.9343   -1.3668   -1.5484 H         1 <0>         0.0000
     23 H8          2.2369    2.5009   -4.2656 H         1 <0>         0.0000
     24 H9          1.6005    0.8420   -4.0700 H         1 <0>         0.0000
@<TRIPOS>BOND
     1    1    2 2
     2    1   14 1
     3    1   16 1
     4    2    7 1
     5    2    8 1
     6    3    8 2
     7    3    9 1
     8    3   14 1
     9    4    7 1
    10    4   10 2
    11    4   13 1
    12    5   13 1
    13    5   17 1
    14    5   18 1
    15    5   19 1
    16    6   15 1
    17    6   20 1
    18    6   21 1
    19    6   22 1
    20    7   23 1
    21    7   24 1
    22    9   15 1
    23   11   15 2
    24   12   15 2
