@<TRIPOS>MOLECULE
*****
   19    20     0     0     0
SMALL
NO_CHARGES

@<TRIPOS>ATOM
      1 C1          3.5343   -2.0333   -1.1467 C.2       1 <0>         0.0000
      2 C2          3.8366   -2.1156    0.1855 C.2       1 <0>         0.0000
      3 C3          1.5958   -1.3155   -0.3542 C.2       1 <0>         0.0000
      4 C4         -0.6137    0.5488    1.1490 C.2       1 <0>         0.0000
      5 C5          0.1447    0.8232   -0.1653 C.3       1 <0>         0.0000
      6 C6          0.2038   -0.7413   -0.3281 C.3       1 <0>         0.0000
      7 C7         -0.6593   -1.2976   -1.4582 C.3       1 <0>         0.0000
      8 N1          2.2651   -1.5820   -1.4417 N.2       1 <0>         0.0000
      9 N2         -0.4145   -0.8153    1.0159 N.am      1 <0>         0.0000
     10 O1         -1.1895    1.2136    1.9824 O.2       1 <0>         0.0000
     11 S1          2.4785   -1.6071    1.1358 S.3       1 <0>         0.0000
     12 H1          4.2062   -2.2974   -1.9562 H         1 <0>         0.0000
     13 H2          4.7563   -2.4501    0.6476 H         1 <0>         0.0000
     14 H3         -0.4428    1.3407   -0.9258 H         1 <0>         0.0000
     15 H4          1.1109    1.3136   -0.0364 H         1 <0>         0.0000
     16 H5         -1.6472   -0.8276   -1.4395 H         1 <0>         0.0000
     17 H6         -0.7814   -2.3801   -1.3521 H         1 <0>         0.0000
     18 H7         -0.1838   -1.1071   -2.4225 H         1 <0>         0.0000
     19 H8         -0.9020   -1.5861    1.4652 H         1 <0>         0.0000
@<TRIPOS>BOND
     1    1    2 2
     2    1    8 1
     3    1   12 1
     4    2   11 1
     5    2   13 1
     6    3    6 1
     7    3    8 2
     8    3   11 1
     9    4    5 1
    10    4    9 am
    11    4   10 2
    12    5    6 1
    13    5   14 1
    14    5   15 1
    15    6    7 1
    16    6    9 1
    17    7   16 1
    18    7   17 1
    19    7   18 1
    20    9   19 1
