@<TRIPOS>MOLECULE
*****
   18    18     0     0     0
SMALL
NO_CHARGES

@<TRIPOS>ATOM
      1 C1          1.2661   -1.0416    0.0119 C.1       1 <0>         0.0000
      2 C2         -0.0941    0.9439    1.9374 C.2       1 <0>         0.0000
      3 C3         -0.2917    1.5958    4.0007 C.2       1 <0>         0.0000
      4 C4         -1.3578    1.5666   -0.1443 C.3       1 <0>         0.0000
      5 C5         -0.0858    0.9328    0.4199 C.3       1 <0>         0.0000
      6 N1          2.3138   -1.5397    0.1636 N.1       1 <0>         0.0000
      7 N2         -0.5291    1.9399    2.6484 N.2       1 <0>         0.0000
      8 N3          0.3733   -0.1277    2.6773 N.pl3     1 <0>         0.0000
      9 N4          0.4357    0.3684    3.9971 N.am      1 <0>         0.0000
     10 N5          0.0898   -0.4178   -0.1531 N.3       1 <0>         0.0000
     11 O1         -0.6304    2.1903    5.0033 O.2       1 <0>         0.0000
     12 H1         -2.2378    0.9716    0.1227 H         1 <0>         0.0000
     13 H2         -1.4902    2.5633    0.2775 H         1 <0>         0.0000
     14 H3         -1.2865    1.6298   -1.2324 H         1 <0>         0.0000
     15 H4          0.7799    1.5206    0.0974 H         1 <0>         0.0000
     16 H5          1.2195   -0.6061    2.3662 H         1 <0>         0.0000
     17 H6          0.1679   -0.3051    4.7097 H         1 <0>         0.0000
     18 H7         -0.7219   -1.0248   -0.0793 H         1 <0>         0.0000
@<TRIPOS>BOND
     1    1    6 3
     2    1   10 1
     3    2    5 1
     4    2    7 2
     5    2    8 1
     6    3    7 1
     7    3    9 am
     8    3   11 2
     9    4    5 1
    10    4   12 1
    11    4   13 1
    12    4   14 1
    13    5   10 1
    14    5   15 1
    15    8    9 1
    16    8   16 1
    17    9   17 1
    18   10   18 1
