@<TRIPOS>MOLECULE
*****
   24    24     0     0     0
SMALL
NO_CHARGES

@<TRIPOS>ATOM
      1 C1          3.8016    2.1880   -5.4325 C.2       1 <0>         0.0000
      2 C2          3.6151    1.1415   -4.5754 C.2       1 <0>         0.0000
      3 C3          5.5602    0.4118   -5.4290 C.2       1 <0>         0.0000
      4 C4          3.1048    0.6795   -2.2317 C.2       1 <0>         0.0000
      5 C5          4.3172   -1.0682   -1.1797 C.3       1 <0>         0.0000
      6 C6          5.6524   -2.7530   -4.9618 C.3       1 <0>         0.0000
      7 C7          2.4814    0.9975   -3.5810 C.3       1 <0>         0.0000
      8 N1          4.5725    0.1545   -4.5832 N.2       1 <0>         0.0000
      9 N2          6.6669   -0.2875   -5.7156 N.2       1 <0>         0.0000
     10 O1          3.4691    1.5141   -1.4224 O.2       1 <0>         0.0000
     11 O2          7.0757   -1.2565   -3.3140 O.2       1 <0>         0.0000
     12 O3          8.2126   -2.2235   -5.3478 O.2       1 <0>         0.0000
     13 O4          3.2612   -0.6535   -2.0758 O.3       1 <0>         0.0000
     14 S1          5.2952    1.9559   -6.3288 S.3       1 <0>         0.0000
     15 S2          7.0215   -1.5711   -4.7643 S.o2      1 <0>         0.0000
     16 H1          3.1870    3.0698   -5.5613 H         1 <0>         0.0000
     17 H2          4.1309   -2.1239   -0.9735 H         1 <0>         0.0000
     18 H3          4.2929   -0.4855   -0.2562 H         1 <0>         0.0000
     19 H4          5.2727   -0.9487   -1.6994 H         1 <0>         0.0000
     20 H5          5.9051   -3.6301   -4.3614 H         1 <0>         0.0000
     21 H6          4.7388   -2.2752   -4.6076 H         1 <0>         0.0000
     22 H7          5.5850   -3.0169   -6.0191 H         1 <0>         0.0000
     23 H8          1.9138    1.9271   -3.5087 H         1 <0>         0.0000
     24 H9          1.8190    0.1768   -3.8765 H         1 <0>         0.0000
@<TRIPOS>BOND
     1    1    2 2
     2    1   14 1
     3    1   16 1
     4    2    7 1
     5    2    8 1
     6    3    8 2
     7    3    9 1
     8    3   14 1
     9    4    7 1
    10    4   10 2
    11    4   13 1
    12    5   13 1
    13    5   17 1
    14    5   18 1
    15    5   19 1
    16    6   15 1
    17    6   20 1
    18    6   21 1
    19    6   22 1
    20    7   23 1
    21    7   24 1
    22    9   15 1
    23   11   15 2
    24   12   15 2
