@<TRIPOS>MOLECULE
*****
   25    25     0     0     0
SMALL
NO_CHARGES

@<TRIPOS>ATOM
      1 C1          4.4276    0.9648   -4.8398 C.2       1 <0>         0.0000
      2 C2          3.7675    0.0204   -4.1053 C.2       1 <0>         0.0000
      3 C3          5.5855   -1.1495   -4.5885 C.2       1 <0>         0.0000
      4 C4          2.4464    0.0504   -1.9383 C.2       1 <0>         0.0000
      5 C5          3.6209    0.5982    0.0353 C.3       1 <0>         0.0000
      6 C6          5.7504   -3.3814   -6.9521 C.3       1 <0>         0.0000
      7 C7          2.4228    0.1744   -3.4571 C.3       1 <0>         0.0000
      8 N1          4.4317   -1.1888   -3.9809 N.2       1 <0>         0.0000
      9 N2          6.4915   -2.2177   -4.5321 N.pl3     1 <0>         0.0000
     10 O1          1.5790   -0.4935   -1.2843 O.2       1 <0>         0.0000
     11 O2          7.8151   -1.7506   -6.6500 O.2       1 <0>         0.0000
     12 O3          7.8981   -4.0529   -5.5240 O.2       1 <0>         0.0000
     13 O4          3.5276    0.6559   -1.4040 O.3       1 <0>         0.0000
     14 S1          5.9695    0.3653   -5.3810 S.3       1 <0>         0.0000
     15 S2          7.1714   -2.8659   -5.9624 S.o2      1 <0>         0.0000
     16 H1          4.1014    1.9640   -5.0979 H         1 <0>         0.0000
     17 H2          4.5451    1.1181    0.2865 H         1 <0>         0.0000
     18 H3          3.6584   -0.4408    0.3698 H         1 <0>         0.0000
     19 H4          2.7611    1.0934    0.4926 H         1 <0>         0.0000
     20 H5          6.1482   -3.7580   -7.8961 H         1 <0>         0.0000
     21 H6          5.2180   -4.1674   -6.4155 H         1 <0>         0.0000
     22 H7          5.1139   -2.5130   -7.1258 H         1 <0>         0.0000
     23 H8          2.0038    1.1565   -3.6992 H         1 <0>         0.0000
     24 H9          1.7248   -0.5835   -3.8199 H         1 <0>         0.0000
     25 H10         6.1817   -2.9505   -3.8942 H         1 <0>         0.0000
@<TRIPOS>BOND
     1    1    2 2
     2    1   14 1
     3    1   16 1
     4    2    7 1
     5    2    8 1
     6    3    8 2
     7    3    9 1
     8    3   14 1
     9    4    7 1
    10    4   10 2
    11    4   13 1
    12    5   13 1
    13    5   17 1
    14    5   18 1
    15    5   19 1
    16    6   15 1
    17    6   20 1
    18    6   21 1
    19    6   22 1
    20    7   23 1
    21    7   24 1
    22    9   15 1
    23    9   25 1
    24   11   15 2
    25   12   15 2
