@<TRIPOS>MOLECULE
*****
   24    24     0     0     0
SMALL
NO_CHARGES

@<TRIPOS>ATOM
      1 C1          4.7736    1.4638   -4.8018 C.2       1 <0>         0.0000
      2 C2          3.8194    0.7169   -4.1752 C.2       1 <0>         0.0000
      3 C3          4.9824   -1.0243   -4.9896 C.2       1 <0>         0.0000
      4 C4          1.3023    0.7986   -3.8858 C.2       1 <0>         0.0000
      5 C5         -0.0211    0.3572   -5.7847 C.3       1 <0>         0.0000
      6 C6          5.4789   -2.5015   -7.9307 C.3       1 <0>         0.0000
      7 C7          2.6590    1.2697   -3.3923 C.3       1 <0>         0.0000
      8 N1          3.9298   -0.6495   -4.2755 N.2       1 <0>         0.0000
      9 N2          5.2789   -2.3166   -5.2230 N.2       1 <0>         0.0000
     10 O1          0.3836    0.4356   -3.1712 O.2       1 <0>         0.0000
     11 O2          6.6207   -4.1767   -6.2372 O.2       1 <0>         0.0000
     12 O3          7.5362   -1.8247   -6.4298 O.2       1 <0>         0.0000
     13 O4          1.2010    0.8687   -5.2344 O.3       1 <0>         0.0000
     14 S1          5.9532    0.4233   -5.5656 S.3       1 <0>         0.0000
     15 S2          6.3582   -2.7289   -6.3499 S.o2      1 <0>         0.0000
     16 H1          4.8469    2.5434   -4.8560 H         1 <0>         0.0000
     17 H2          0.0829    0.4538   -6.8664 H         1 <0>         0.0000
     18 H3         -0.8813    0.9318   -5.4279 H         1 <0>         0.0000
     19 H4         -0.1520   -0.6917   -5.5070 H         1 <0>         0.0000
     20 H5          6.1648   -2.7759   -8.7355 H         1 <0>         0.0000
     21 H6          4.6030   -3.1522   -7.9260 H         1 <0>         0.0000
     22 H7          5.1862   -1.4529   -8.0186 H         1 <0>         0.0000
     23 H8          2.7158    0.9753   -2.3406 H         1 <0>         0.0000
     24 H9          2.6672    2.3651   -3.4387 H         1 <0>         0.0000
@<TRIPOS>BOND
     1    1    2 2
     2    1   14 1
     3    1   16 1
     4    2    7 1
     5    2    8 1
     6    3    8 2
     7    3    9 1
     8    3   14 1
     9    4    7 1
    10    4   10 2
    11    4   13 1
    12    5   13 1
    13    5   17 1
    14    5   18 1
    15    5   19 1
    16    6   15 1
    17    6   20 1
    18    6   21 1
    19    6   22 1
    20    7   23 1
    21    7   24 1
    22    9   15 1
    23   11   15 2
    24   12   15 2
