@<TRIPOS>MOLECULE
*****
   24    24     0     0     0
SMALL
NO_CHARGES

@<TRIPOS>ATOM
      1 C1          4.6238    1.8621   -5.9044 C.2       1 <0>         0.0000
      2 C2          4.0621    1.4160   -4.7415 C.2       1 <0>         0.0000
      3 C3          5.8898    0.1193   -4.6362 C.2       1 <0>         0.0000
      4 C4          1.6906    0.7843   -4.3086 C.2       1 <0>         0.0000
      5 C5          0.8801   -1.2039   -3.3314 C.3       1 <0>         0.0000
      6 C6          5.1400   -2.3450   -2.7575 C.3       1 <0>         0.0000
      7 C7          2.7304    1.8828   -4.1979 C.3       1 <0>         0.0000
      8 N1          4.7531    0.4588   -4.0374 N.2       1 <0>         0.0000
      9 N2          6.8220   -0.7870   -4.3226 N.2       1 <0>         0.0000
     10 O1          0.9256    0.6291   -5.2457 O.2       1 <0>         0.0000
     11 O2          6.8067   -0.5695   -1.7187 O.2       1 <0>         0.0000
     12 O3          7.7669   -2.5958   -2.8761 O.2       1 <0>         0.0000
     13 O4          1.7180   -0.0417   -3.2355 O.3       1 <0>         0.0000
     14 S1          6.1518    1.0441   -6.1698 S.3       1 <0>         0.0000
     15 S2          6.7577   -1.5147   -2.8584 S.o2      1 <0>         0.0000
     16 H1          4.2258    2.5840   -6.6058 H         1 <0>         0.0000
     17 H2          1.0659   -1.7725   -2.4195 H         1 <0>         0.0000
     18 H3          1.1494   -1.7951   -4.2103 H         1 <0>         0.0000
     19 H4         -0.1740   -0.9191   -3.4014 H         1 <0>         0.0000
     20 H5          5.1200   -2.8710   -1.8000 H         1 <0>         0.0000
     21 H6          4.3617   -1.5840   -2.8165 H         1 <0>         0.0000
     22 H7          5.0733   -3.0528   -3.5864 H         1 <0>         0.0000
     23 H8          2.8484    2.1619   -3.1465 H         1 <0>         0.0000
     24 H9          2.3687    2.7375   -4.7726 H         1 <0>         0.0000
@<TRIPOS>BOND
     1    1    2 2
     2    1   14 1
     3    1   16 1
     4    2    7 1
     5    2    8 1
     6    3    8 2
     7    3    9 1
     8    3   14 1
     9    4    7 1
    10    4   10 2
    11    4   13 1
    12    5   13 1
    13    5   17 1
    14    5   18 1
    15    5   19 1
    16    6   15 1
    17    6   20 1
    18    6   21 1
    19    6   22 1
    20    7   23 1
    21    7   24 1
    22    9   15 1
    23   11   15 2
    24   12   15 2
