@<TRIPOS>MOLECULE
*****
   11    10     0     0     0
SMALL
NO_CHARGES

@<TRIPOS>ATOM
      1 C1          0.9396    0.4882    1.0661 C.2       1 <0>         0.0000
      2 C2          2.1464   -2.0362    1.6615 C.3       1 <0>         0.0000
      3 N1          0.8202    1.4434    0.1960 N.2       1 <0>         0.0000
      4 N2          0.0923    2.5884    0.6282 N.3       1 <0>         0.0000
      5 S1          0.4554    0.4386    2.7352 S.2       1 <0>         0.0000
      6 S2          1.7312   -0.9604    0.2500 S.3       1 <0>         0.0000
      7 H1          2.5539   -2.9582    1.2293 H         1 <0>         0.0000
      8 H2          1.2559   -2.2558    2.2534 H         1 <0>         0.0000
      9 H3          2.8914   -1.5734    2.3134 H         1 <0>         0.0000
     10 H4          0.6354    3.3943    0.3186 H         1 <0>         0.0000
     11 H5          0.0589    2.5887    1.6573 H         1 <0>         0.0000
@<TRIPOS>BOND
     1    1    3 1
     2    1    5 2
     3    1    6 1
     4    2    6 1
     5    2    7 1
     6    2    8 1
     7    2    9 1
     8    3    4 1
     9    4   10 1
    10    4   11 1
