@<TRIPOS>MOLECULE
*****
   27    28     0     0     0
SMALL
NO_CHARGES

@<TRIPOS>ATOM
      1 C1          0.4055   -0.8070   -3.6157 C.2       1 <0>         0.0000
      2 C2         -1.7375   -3.8112   -4.1469 C.3       1 <0>         0.0000
      3 C3         -0.7687   -3.4024   -5.2375 C.3       1 <0>         0.0000
      4 C4         -0.5719    0.7454   -0.9932 C.3       1 <0>         0.0000
      5 C5          0.3955   -0.0456    1.0483 C.3       1 <0>         0.0000
      6 C6         -1.3624   -2.3592   -4.3244 C.3       1 <0>         0.0000
      7 C7         -0.8412    0.7165    0.5220 C.3       1 <0>         0.0000
      8 C8          1.1715   -0.2776   -2.3980 C.3       1 <0>         0.0000
      9 N1          0.3720   -0.3663   -1.1829 N.3       1 <0>         0.0000
     10 N2         -0.5286   -1.7573   -3.3229 N.am      1 <0>         0.0000
     11 O1          0.6651   -0.4150   -4.7501 O.2       1 <0>         0.0000
     12 O2          1.2882   -0.1660   -0.0592 O.3       1 <0>         0.0000
     13 O3         -2.0011   -0.0286    0.8984 O.3       1 <0>         0.0000
     14 H1         -2.7433   -4.1113   -4.4247 H         1 <0>         0.0000
     15 H2         -1.3312   -4.3294   -3.2827 H         1 <0>         0.0000
     16 H3          0.2815   -3.6328   -5.0942 H         1 <0>         0.0000
     17 H4         -1.1061   -3.4160   -6.2689 H         1 <0>         0.0000
     18 H5         -1.4767    0.5713   -1.5812 H         1 <0>         0.0000
     19 H6         -0.1196    1.7045   -1.2900 H         1 <0>         0.0000
     20 H7          0.9374    0.4773    1.8382 H         1 <0>         0.0000
     21 H8          0.0670   -1.0315    1.3977 H         1 <0>         0.0000
     22 H9         -2.1071   -1.6957   -4.7594 H         1 <0>         0.0000
     23 H10        -0.8993    1.7356    0.9221 H         1 <0>         0.0000
     24 H11         2.0543   -0.9086   -2.2584 H         1 <0>         0.0000
     25 H12         1.5115    0.7419   -2.6229 H         1 <0>         0.0000
     26 H13        -0.7038   -1.9298   -2.3373 H         1 <0>         0.0000
     27 H14        -2.7856    0.5068    0.7031 H         1 <0>         0.0000
@<TRIPOS>BOND
     1    1    8 1
     2    1   10 am
     3    1   11 2
     4    2    3 1
     5    2    6 1
     6    2   14 1
     7    2   15 1
     8    3    6 1
     9    3   16 1
    10    3   17 1
    11    4    7 1
    12    4    9 1
    13    4   18 1
    14    4   19 1
    15    5    7 1
    16    5   12 1
    17    5   20 1
    18    5   21 1
    19    6   10 1
    20    6   22 1
    21    7   13 1
    22    7   23 1
    23    8    9 1
    24    8   24 1
    25    8   25 1
    26    9   12 1
    27   10   26 1
    28   13   27 1
