@<TRIPOS>MOLECULE
*****
   25    25     0     0     0
SMALL
NO_CHARGES

@<TRIPOS>ATOM
      1 C1          4.1491    1.9914   -4.8694 C.2       1 <0>         0.0000
      2 C2          4.0418    1.0958   -3.8420 C.2       1 <0>         0.0000
      3 C3          5.9163    0.3381   -4.7459 C.2       1 <0>         0.0000
      4 C4          2.1012   -0.2395   -2.8870 C.2       1 <0>         0.0000
      5 C5          1.0945   -1.8429   -4.2968 C.3       1 <0>         0.0000
      6 C6          5.9288   -2.3424   -6.5357 C.3       1 <0>         0.0000
      7 C7          2.9383    1.0319   -2.8277 C.3       1 <0>         0.0000
      8 N1          5.0531    0.1525   -3.7848 N.2       1 <0>         0.0000
      9 N2          7.0817   -0.4330   -4.8677 N.pl3     1 <0>         0.0000
     10 O1          1.6268   -0.7906   -1.9143 O.2       1 <0>         0.0000
     11 O2          7.3840   -0.3004   -7.3909 O.2       1 <0>         0.0000
     12 O3          8.5374   -2.1355   -6.0214 O.2       1 <0>         0.0000
     13 O4          1.9086   -0.6594   -4.1577 O.3       1 <0>         0.0000
     14 S1          5.5786    1.6859   -5.8113 S.3       1 <0>         0.0000
     15 S2          7.3841   -1.2927   -6.3203 S.o2      1 <0>         0.0000
     16 H1          3.4603    2.7787   -5.1472 H         1 <0>         0.0000
     17 H2          1.0493   -2.0400   -5.3679 H         1 <0>         0.0000
     18 H3          0.0941   -1.6671   -3.8948 H         1 <0>         0.0000
     19 H4          1.5517   -2.6818   -3.7671 H         1 <0>         0.0000
     20 H5          6.0531   -2.8557   -7.4907 H         1 <0>         0.0000
     21 H6          5.8908   -3.0574   -5.7132 H         1 <0>         0.0000
     22 H7          5.0416   -1.7083   -6.5540 H         1 <0>         0.0000
     23 H8          3.3387    1.0935   -1.8132 H         1 <0>         0.0000
     24 H9          2.2557    1.8769   -2.9652 H         1 <0>         0.0000
     25 H10         7.2322   -1.0252   -4.0509 H         1 <0>         0.0000
@<TRIPOS>BOND
     1    1    2 2
     2    1   14 1
     3    1   16 1
     4    2    7 1
     5    2    8 1
     6    3    8 2
     7    3    9 1
     8    3   14 1
     9    4    7 1
    10    4   10 2
    11    4   13 1
    12    5   13 1
    13    5   17 1
    14    5   18 1
    15    5   19 1
    16    6   15 1
    17    6   20 1
    18    6   21 1
    19    6   22 1
    20    7   23 1
    21    7   24 1
    22    9   15 1
    23    9   25 1
    24   11   15 2
    25   12   15 2
