@<TRIPOS>MOLECULE
*****
   25    25     0     0     0
SMALL
NO_CHARGES

@<TRIPOS>ATOM
      1 C1          3.6284    0.8188   -5.2504 C.2       1 <0>         0.0000
      2 C2          3.5324    0.6313   -3.8974 C.2       1 <0>         0.0000
      3 C3          5.2628   -0.6953   -4.2955 C.2       1 <0>         0.0000
      4 C4          2.3477    2.7409   -3.1800 C.2       1 <0>         0.0000
      5 C5          1.5216    4.4030   -4.6480 C.3       1 <0>         0.0000
      6 C6          5.0456   -3.9386   -4.4668 C.3       1 <0>         0.0000
      7 C7          2.5127    1.2474   -2.9661 C.3       1 <0>         0.0000
      8 N1          4.4639   -0.2432   -3.3653 N.2       1 <0>         0.0000
      9 N2          6.3548   -1.5238   -4.0004 N.pl3     1 <0>         0.0000
     10 O1          2.7524    3.6035   -2.4287 O.2       1 <0>         0.0000
     11 O2          6.5744   -2.7021   -6.2403 O.2       1 <0>         0.0000
     12 O3          7.6749   -3.6629   -4.1327 O.2       1 <0>         0.0000
     13 O4          1.6833    3.0019   -4.3341 O.3       1 <0>         0.0000
     14 S1          4.9515   -0.0957   -5.9086 S.3       1 <0>         0.0000
     15 S2          6.5592   -3.0151   -4.8145 S.o2      1 <0>         0.0000
     16 H1          2.9901    1.4159   -5.8866 H         1 <0>         0.0000
     17 H2          0.9770    4.4284   -5.5917 H         1 <0>         0.0000
     18 H3          2.4976    4.8828   -4.7507 H         1 <0>         0.0000
     19 H4          0.9543    4.9046   -3.8611 H         1 <0>         0.0000
     20 H5          5.1199   -4.8783   -5.0169 H         1 <0>         0.0000
     21 H6          4.9876   -4.1223   -3.3934 H         1 <0>         0.0000
     22 H7          4.1938   -3.3561   -4.8198 H         1 <0>         0.0000
     23 H8          1.5400    0.7618   -3.1009 H         1 <0>         0.0000
     24 H9          2.8413    1.0918   -1.9391 H         1 <0>         0.0000
     25 H10         6.5084   -1.6166   -2.9965 H         1 <0>         0.0000
@<TRIPOS>BOND
     1    1    2 2
     2    1   14 1
     3    1   16 1
     4    2    7 1
     5    2    8 1
     6    3    8 2
     7    3    9 1
     8    3   14 1
     9    4    7 1
    10    4   10 2
    11    4   13 1
    12    5   13 1
    13    5   17 1
    14    5   18 1
    15    5   19 1
    16    6   15 1
    17    6   20 1
    18    6   21 1
    19    6   22 1
    20    7   23 1
    21    7   24 1
    22    9   15 1
    23    9   25 1
    24   11   15 2
    25   12   15 2
