@<TRIPOS>MOLECULE
*****
   24    24     0     0     0
SMALL
NO_CHARGES

@<TRIPOS>ATOM
      1 C1          4.9280    2.3096   -5.4822 C.2       1 <0>         0.0000
      2 C2          4.2378    1.1710   -5.1768 C.2       1 <0>         0.0000
      3 C3          6.2080    0.1635   -5.5493 C.2       1 <0>         0.0000
      4 C4          2.2896    2.3666   -4.1600 C.2       1 <0>         0.0000
      5 C5          2.0875    3.5049   -2.1023 C.3       1 <0>         0.0000
      6 C6          5.6217   -2.9097   -6.2505 C.3       1 <0>         0.0000
      7 C7          2.7635    1.0984   -4.8258 C.3       1 <0>         0.0000
      8 N1          4.9329   -0.0163   -5.2120 N.2       1 <0>         0.0000
      9 N2          7.2113   -0.7020   -5.7351 N.2       1 <0>         0.0000
     10 O1          1.8694    3.3588   -4.7318 O.2       1 <0>         0.0000
     11 O2          6.6501   -2.4324   -3.8589 O.2       1 <0>         0.0000
     12 O3          8.2134   -2.9928   -5.7592 O.2       1 <0>         0.0000
     13 O4          2.4026    2.2947   -2.8074 O.3       1 <0>         0.0000
     14 S1          6.5946    1.9035   -5.8416 S.3       1 <0>         0.0000
     15 S2          7.0197   -2.2608   -5.2831 S.o2      1 <0>         0.0000
     16 H1          4.5534    3.3228   -5.5412 H         1 <0>         0.0000
     17 H2          2.2436    3.2779   -1.0469 H         1 <0>         0.0000
     18 H3          1.0502    3.8012   -2.2830 H         1 <0>         0.0000
     19 H4          2.7490    4.3154   -2.4203 H         1 <0>         0.0000
     20 H5          5.5082   -3.9608   -5.9750 H         1 <0>         0.0000
     21 H6          4.7345   -2.3302   -5.9955 H         1 <0>         0.0000
     22 H7          5.8716   -2.8136   -7.3090 H         1 <0>         0.0000
     23 H8          2.1615    0.9412   -5.7269 H         1 <0>         0.0000
     24 H9          2.6213    0.2500   -4.1534 H         1 <0>         0.0000
@<TRIPOS>BOND
     1    1    2 2
     2    1   14 1
     3    1   16 1
     4    2    7 1
     5    2    8 1
     6    3    8 2
     7    3    9 1
     8    3   14 1
     9    4    7 1
    10    4   10 2
    11    4   13 1
    12    5   13 1
    13    5   17 1
    14    5   18 1
    15    5   19 1
    16    6   15 1
    17    6   20 1
    18    6   21 1
    19    6   22 1
    20    7   23 1
    21    7   24 1
    22    9   15 1
    23   11   15 2
    24   12   15 2
