@<TRIPOS>MOLECULE
*****
   18    18     0     0     0
SMALL
NO_CHARGES

@<TRIPOS>ATOM
      1 C1          1.9019   -0.1535    0.1132 C.1       1 <0>         0.0000
      2 C2         -0.1290    1.1565    1.8263 C.2       1 <0>         0.0000
      3 C3         -0.6284    0.7936    3.9095 C.2       1 <0>         0.0000
      4 C4         -1.5268    1.1677   -0.2728 C.3       1 <0>         0.0000
      5 C5         -0.1210    1.1320    0.3146 C.3       1 <0>         0.0000
      6 N1          3.0473   -0.1085    0.3456 N.1       1 <0>         0.0000
      7 N2         -1.0862    0.6922    2.5718 N.2       1 <0>         0.0000
      8 N3          0.9605    1.6463    2.5252 N.pl3     1 <0>         0.0000
      9 N4          0.7273    1.2286    3.8530 N.am      1 <0>         0.0000
     10 N5          0.5872   -0.0913   -0.1644 N.3       1 <0>         0.0000
     11 O1         -1.2380    0.5680    4.9347 O.2       1 <0>         0.0000
     12 H1         -2.1223    0.3282    0.0945 H         1 <0>         0.0000
     13 H2         -2.0341    2.0867    0.0291 H         1 <0>         0.0000
     14 H3         -1.4690    1.1297   -1.3631 H         1 <0>         0.0000
     15 H4          0.4643    1.9798   -0.0519 H         1 <0>         0.0000
     16 H5          1.8911    1.4138    2.1719 H         1 <0>         0.0000
     17 H6          1.0107    1.8996    4.5617 H         1 <0>         0.0000
     18 H7          0.0832   -0.9535    0.0330 H         1 <0>         0.0000
@<TRIPOS>BOND
     1    1    6 3
     2    1   10 1
     3    2    5 1
     4    2    7 2
     5    2    8 1
     6    3    7 1
     7    3    9 am
     8    3   11 2
     9    4    5 1
    10    4   12 1
    11    4   13 1
    12    4   14 1
    13    5   10 1
    14    5   15 1
    15    8    9 1
    16    8   16 1
    17    9   17 1
    18   10   18 1
