@<TRIPOS>MOLECULE
*****
   11    10     0     0     0
SMALL
NO_CHARGES

@<TRIPOS>ATOM
      1 C1          0.4413    0.1960    0.8195 C.2       1 <0>         0.0000
      2 C2          2.1403   -1.9220    1.7992 C.3       1 <0>         0.0000
      3 N1          0.0726    1.0299   -0.1006 N.2       1 <0>         0.0000
      4 N2          0.4680    0.7527   -1.4540 N.3       1 <0>         0.0000
      5 S1          0.0660    0.3352    2.4978 S.2       1 <0>         0.0000
      6 S2          1.4785   -1.2732    0.2329 S.3       1 <0>         0.0000
      7 H1          2.7359   -2.8056    1.5397 H         1 <0>         0.0000
      8 H2          1.3238   -2.1908    2.4713 H         1 <0>         0.0000
      9 H3          2.7664   -1.1798    2.2992 H         1 <0>         0.0000
     10 H4          1.4566    0.4700   -1.4800 H         1 <0>         0.0000
     11 H5          0.4138    1.6565   -1.9216 H         1 <0>         0.0000
@<TRIPOS>BOND
     1    1    3 1
     2    1    5 2
     3    1    6 1
     4    2    6 1
     5    2    7 1
     6    2    8 1
     7    2    9 1
     8    3    4 1
     9    4   10 1
    10    4   11 1
