@<TRIPOS>MOLECULE
*****
   24    24     0     0     0
SMALL
NO_CHARGES

@<TRIPOS>ATOM
      1 C1          4.5323    2.1251   -4.1526 C.2       1 <0>         0.0000
      2 C2          3.7765    0.9879   -4.1416 C.2       1 <0>         0.0000
      3 C3          5.7355   -0.0271   -4.5618 C.2       1 <0>         0.0000
      4 C4          2.1117   -0.1722   -2.7809 C.2       1 <0>         0.0000
      5 C5          2.3371   -2.5240   -2.5590 C.3       1 <0>         0.0000
      6 C6          5.0520   -2.8356   -5.9364 C.3       1 <0>         0.0000
      7 C7          2.2952    0.9075   -3.8348 C.3       1 <0>         0.0000
      8 N1          4.4329   -0.1960   -4.3829 N.2       1 <0>         0.0000
      9 N2          6.7046   -0.9197   -4.8073 N.2       1 <0>         0.0000
     10 O1          2.1652    0.0166   -1.5786 O.2       1 <0>         0.0000
     11 O2          5.7139   -2.8826   -3.3791 O.2       1 <0>         0.0000
     12 O3          7.5200   -3.2699   -5.0973 O.2       1 <0>         0.0000
     13 O4          1.9453   -1.3834   -3.3563 O.3       1 <0>         0.0000
     14 S1          6.2099    1.7138   -4.4764 S.3       1 <0>         0.0000
     15 S2          6.3253   -2.5065   -4.6791 S.o2      1 <0>         0.0000
     16 H1          4.2186    3.1432   -3.9609 H         1 <0>         0.0000
     17 H2          1.9000   -3.3933   -3.0539 H         1 <0>         0.0000
     18 H3          1.9590   -2.4315   -1.5384 H         1 <0>         0.0000
     19 H4          3.4291   -2.5916   -2.5731 H         1 <0>         0.0000
     20 H5          4.8274   -3.9036   -5.8845 H         1 <0>         0.0000
     21 H6          4.1769   -2.2304   -5.6986 H         1 <0>         0.0000
     22 H7          5.4673   -2.5769   -6.9124 H         1 <0>         0.0000
     23 H8          1.9318    1.8604   -3.4453 H         1 <0>         0.0000
     24 H9          1.7350    0.6338   -4.7354 H         1 <0>         0.0000
@<TRIPOS>BOND
     1    1    2 2
     2    1   14 1
     3    1   16 1
     4    2    7 1
     5    2    8 1
     6    3    8 2
     7    3    9 1
     8    3   14 1
     9    4    7 1
    10    4   10 2
    11    4   13 1
    12    5   13 1
    13    5   17 1
    14    5   18 1
    15    5   19 1
    16    6   15 1
    17    6   20 1
    18    6   21 1
    19    6   22 1
    20    7   23 1
    21    7   24 1
    22    9   15 1
    23   11   15 2
    24   12   15 2
