@<TRIPOS>MOLECULE
*****
   17    17     0     0     0
SMALL
NO_CHARGES

@<TRIPOS>ATOM
      1 C1          0.8817   -4.7356    0.5704 C.1       1 <0>         0.0000
      2 C2          0.2171   -1.1088    0.5642 C.2       1 <0>         0.0000
      3 C3         -0.1245    0.7027    1.8562 C.2       1 <0>         0.0000
      4 C4         -1.2613   -2.9070   -0.4527 C.3       1 <0>         0.0000
      5 C5          0.1427   -2.4630   -0.0351 C.3       1 <0>         0.0000
      6 N1          0.9847   -5.8507    0.2210 N.1       1 <0>         0.0000
      7 N2          0.9353    0.9186    1.0141 N.2       1 <0>         0.0000
      8 N3          1.1237   -0.2082    0.2426 N.2       1 <0>         0.0000
      9 N4         -0.5954   -0.6092    1.5607 N.am      1 <0>         0.0000
     10 N5          0.6854   -3.4712    0.9686 N.3       1 <0>         0.0000
     11 O1         -0.6402    1.4368    2.7278 O.2       1 <0>         0.0000
     12 H1         -1.9407   -2.9081    0.4055 H         1 <0>         0.0000
     13 H2         -1.6504   -2.2133   -1.2031 H         1 <0>         0.0000
     14 H3         -1.2501   -3.9158   -0.8794 H         1 <0>         0.0000
     15 H4          0.8076   -2.4473   -0.9057 H         1 <0>         0.0000
     16 H5         -1.3517   -1.0646    2.0495 H         1 <0>         0.0000
     17 H6          1.4581   -3.0792    1.5004 H         1 <0>         0.0000
@<TRIPOS>BOND
     1    1    6 3
     2    1   10 1
     3    2    5 1
     4    2    8 2
     5    2    9 1
     6    3    7 1
     7    3    9 am
     8    3   11 2
     9    4    5 1
    10    4   12 1
    11    4   13 1
    12    4   14 1
    13    5   10 1
    14    5   15 1
    15    7    8 1
    16    9   16 1
    17   10   17 1
