@<TRIPOS>MOLECULE
*****
   24    24     0     0     0
SMALL
NO_CHARGES

@<TRIPOS>ATOM
      1 C1          4.1955    1.6628   -4.3562 C.2       1 <0>         0.0000
      2 C2          3.4494    0.5350   -4.1657 C.2       1 <0>         0.0000
      3 C3          5.1751   -0.4845   -5.1795 C.2       1 <0>         0.0000
      4 C4          1.1928   -0.3341   -4.5149 C.2       1 <0>         0.0000
      5 C5          0.9958   -2.5626   -5.3056 C.3       1 <0>         0.0000
      6 C6          5.0938   -3.5568   -4.2870 C.3       1 <0>         0.0000
      7 C7          2.0590    0.4790   -3.5669 C.3       1 <0>         0.0000
      8 N1          3.9930   -0.6500   -4.6028 N.2       1 <0>         0.0000
      9 N2          6.0074   -1.3770   -5.7330 N.2       1 <0>         0.0000
     10 O1          0.5717    0.1283   -5.4553 O.2       1 <0>         0.0000
     11 O2          6.5815   -3.7019   -6.4664 O.2       1 <0>         0.0000
     12 O3          4.1739   -2.9844   -6.6965 O.2       1 <0>         0.0000
     13 O4          1.2542   -1.6501   -4.2144 O.3       1 <0>         0.0000
     14 S1          5.7026    1.2431   -5.1568 S.3       1 <0>         0.0000
     15 S2          5.4527   -2.9019   -5.9461 S.o2      1 <0>         0.0000
     16 H1          3.9420    2.6864   -4.1119 H         1 <0>         0.0000
     17 H2          0.8326   -3.5372   -4.8419 H         1 <0>         0.0000
     18 H3          1.8842   -2.5929   -5.9436 H         1 <0>         0.0000
     19 H4          0.1135   -2.2521   -5.8698 H         1 <0>         0.0000
     20 H5          4.7614   -4.5888   -4.4215 H         1 <0>         0.0000
     21 H6          6.0165   -3.5226   -3.7044 H         1 <0>         0.0000
     22 H7          4.3134   -2.9398   -3.8410 H         1 <0>         0.0000
     23 H8          2.0862   -0.0132   -2.5887 H         1 <0>         0.0000
     24 H9          1.6435    1.4835   -3.4670 H         1 <0>         0.0000
@<TRIPOS>BOND
     1    1    2 2
     2    1   14 1
     3    1   16 1
     4    2    7 1
     5    2    8 1
     6    3    8 2
     7    3    9 1
     8    3   14 1
     9    4    7 1
    10    4   10 2
    11    4   13 1
    12    5   13 1
    13    5   17 1
    14    5   18 1
    15    5   19 1
    16    6   15 1
    17    6   20 1
    18    6   21 1
    19    6   22 1
    20    7   23 1
    21    7   24 1
    22    9   15 1
    23   11   15 2
    24   12   15 2
