@<TRIPOS>MOLECULE
*****
   24    24     0     0     0
SMALL
NO_CHARGES

@<TRIPOS>ATOM
      1 C1          4.7431    1.3608   -5.0611 C.2       1 <0>         0.0000
      2 C2          4.0654    0.7320   -4.0558 C.2       1 <0>         0.0000
      3 C3          5.3481   -1.0265   -4.6101 C.2       1 <0>         0.0000
      4 C4          2.1080    2.2787   -4.0018 C.2       1 <0>         0.0000
      5 C5          0.2737    2.3656   -5.4845 C.3       1 <0>         0.0000
      6 C6          5.5910   -3.2611   -7.0730 C.3       1 <0>         0.0000
      7 C7          2.9926    1.3661   -3.1886 C.3       1 <0>         0.0000
      8 N1          4.3872   -0.5802   -3.8083 N.2       1 <0>         0.0000
      9 N2          5.8151   -2.2879   -4.5422 N.2       1 <0>         0.0000
     10 O1          2.2692    3.4776   -4.1586 O.2       1 <0>         0.0000
     11 O2          7.2761   -4.1940   -5.2656 O.2       1 <0>         0.0000
     12 O3          7.7180   -1.9194   -6.2854 O.2       1 <0>         0.0000
     13 O4          1.0850    1.5967   -4.5841 O.3       1 <0>         0.0000
     14 S1          5.9256    0.2776   -5.7569 S.3       1 <0>         0.0000
     15 S2          6.7478   -2.8907   -5.7136 S.o2      1 <0>         0.0000
     16 H1          4.6386    2.3852   -5.3959 H         1 <0>         0.0000
     17 H2         -0.4746    1.6716   -5.8703 H         1 <0>         0.0000
     18 H3          0.8818    2.7636   -6.3015 H         1 <0>         0.0000
     19 H4         -0.2072    3.1975   -4.9619 H         1 <0>         0.0000
     20 H5          6.1707   -3.6800   -7.8989 H         1 <0>         0.0000
     21 H6          4.8586   -3.9816   -6.7058 H         1 <0>         0.0000
     22 H7          5.1051   -2.3322   -7.3797 H         1 <0>         0.0000
     23 H8          2.3976    0.5611   -2.7533 H         1 <0>         0.0000
     24 H9          3.4388    1.9578   -2.3832 H         1 <0>         0.0000
@<TRIPOS>BOND
     1    1    2 2
     2    1   14 1
     3    1   16 1
     4    2    7 1
     5    2    8 1
     6    3    8 2
     7    3    9 1
     8    3   14 1
     9    4    7 1
    10    4   10 2
    11    4   13 1
    12    5   13 1
    13    5   17 1
    14    5   18 1
    15    5   19 1
    16    6   15 1
    17    6   20 1
    18    6   21 1
    19    6   22 1
    20    7   23 1
    21    7   24 1
    22    9   15 1
    23   11   15 2
    24   12   15 2
