@<TRIPOS>MOLECULE
*****
   24    24     0     0     0
SMALL
NO_CHARGES

@<TRIPOS>ATOM
      1 C1          4.4846    2.3824   -5.5422 C.2       1 <0>         0.0000
      2 C2          4.0410    1.4314   -4.6683 C.2       1 <0>         0.0000
      3 C3          5.8847    0.3243   -5.3160 C.2       1 <0>         0.0000
      4 C4          2.0281    0.1611   -4.1189 C.2       1 <0>         0.0000
      5 C5          2.3020   -2.1457   -3.6309 C.3       1 <0>         0.0000
      6 C6          6.5878   -1.7586   -2.9884 C.3       1 <0>         0.0000
      7 C7          2.7465    1.4797   -3.8833 C.3       1 <0>         0.0000
      8 N1          4.8180    0.3055   -4.5296 N.2       1 <0>         0.0000
      9 N2          6.8641   -0.5760   -5.4784 N.2       1 <0>         0.0000
     10 O1          1.2527   -0.0521   -5.0340 O.2       1 <0>         0.0000
     11 O2          7.9148   -2.8029   -5.0214 O.2       1 <0>         0.0000
     12 O3          5.3962   -2.7216   -5.1409 O.2       1 <0>         0.0000
     13 O4          2.4149   -0.7655   -3.2145 O.3       1 <0>         0.0000
     14 S1          5.9894    1.8507   -6.2770 S.3       1 <0>         0.0000
     15 S2          6.6688   -2.0443   -4.7834 S.o2      1 <0>         0.0000
     16 H1          4.0146    3.3195   -5.8119 H         1 <0>         0.0000
     17 H2          2.3872   -2.7372   -2.7174 H         1 <0>         0.0000
     18 H3          3.1359   -2.3679   -4.3035 H         1 <0>         0.0000
     19 H4          1.3410   -2.3257   -4.1179 H         1 <0>         0.0000
     20 H5          6.4986   -2.7401   -2.5169 H         1 <0>         0.0000
     21 H6          7.5142   -1.2678   -2.6833 H         1 <0>         0.0000
     22 H7          5.7167   -1.1358   -2.7840 H         1 <0>         0.0000
     23 H8          2.9549    1.5925   -2.8140 H         1 <0>         0.0000
     24 H9          2.1179    2.3024   -4.2294 H         1 <0>         0.0000
@<TRIPOS>BOND
     1    1    2 2
     2    1   14 1
     3    1   16 1
     4    2    7 1
     5    2    8 1
     6    3    8 2
     7    3    9 1
     8    3   14 1
     9    4    7 1
    10    4   10 2
    11    4   13 1
    12    5   13 1
    13    5   17 1
    14    5   18 1
    15    5   19 1
    16    6   15 1
    17    6   20 1
    18    6   21 1
    19    6   22 1
    20    7   23 1
    21    7   24 1
    22    9   15 1
    23   11   15 2
    24   12   15 2
