@<TRIPOS>MOLECULE
*****
   24    24     0     0     0
SMALL
NO_CHARGES

@<TRIPOS>ATOM
      1 C1          4.5638    1.4629   -5.4034 C.2       1 <0>         0.0000
      2 C2          3.8050    0.5402   -4.7448 C.2       1 <0>         0.0000
      3 C3          4.9916   -0.9441   -5.9439 C.2       1 <0>         0.0000
      4 C4          1.3809    0.2781   -4.0600 C.2       1 <0>         0.0000
      5 C5         -0.1921   -0.0925   -5.7750 C.3       1 <0>         0.0000
      6 C6          8.0775   -2.2183   -6.0120 C.3       1 <0>         0.0000
      7 C7          2.7448    0.8558   -3.7238 C.3       1 <0>         0.0000
      8 N1          4.0424   -0.7830   -5.0318 N.2       1 <0>         0.0000
      9 N2          5.3834   -2.1572   -6.3769 N.2       1 <0>         0.0000
     10 O1          0.6465   -0.2917   -3.2708 O.2       1 <0>         0.0000
     11 O2          6.9965   -1.2358   -8.2057 O.2       1 <0>         0.0000
     12 O3          6.7804   -3.7176   -7.7570 O.2       1 <0>         0.0000
     13 O4          1.0410    0.5057   -5.3496 O.3       1 <0>         0.0000
     14 S1          5.6508    0.6690   -6.5198 S.3       1 <0>         0.0000
     15 S2          6.7353   -2.3360   -7.2397 S.o2      1 <0>         0.0000
     16 H1          4.5172    2.5426   -5.3261 H         1 <0>         0.0000
     17 H2         -0.2822    0.1480   -6.8351 H         1 <0>         0.0000
     18 H3         -1.0379    0.3157   -5.2133 H         1 <0>         0.0000
     19 H4         -0.1563   -1.1753   -5.6321 H         1 <0>         0.0000
     20 H5          9.0249   -2.3497   -6.5399 H         1 <0>         0.0000
     21 H6          8.0344   -1.2327   -5.5431 H         1 <0>         0.0000
     22 H7          7.9297   -3.0081   -5.2739 H         1 <0>         0.0000
     23 H8          3.0086    0.4539   -2.7415 H         1 <0>         0.0000
     24 H9          2.6329    1.9422   -3.6281 H         1 <0>         0.0000
@<TRIPOS>BOND
     1    1    2 2
     2    1   14 1
     3    1   16 1
     4    2    7 1
     5    2    8 1
     6    3    8 2
     7    3    9 1
     8    3   14 1
     9    4    7 1
    10    4   10 2
    11    4   13 1
    12    5   13 1
    13    5   17 1
    14    5   18 1
    15    5   19 1
    16    6   15 1
    17    6   20 1
    18    6   21 1
    19    6   22 1
    20    7   23 1
    21    7   24 1
    22    9   15 1
    23   11   15 2
    24   12   15 2
