@<TRIPOS>MOLECULE
*****
   24    24     0     0     0
SMALL
NO_CHARGES

@<TRIPOS>ATOM
      1 C1          4.8919    1.7090   -4.2602 C.2       1 <0>         0.0000
      2 C2          4.0966    0.6879   -3.8262 C.2       1 <0>         0.0000
      3 C3          5.9315   -0.5624   -4.1538 C.2       1 <0>         0.0000
      4 C4          1.7128   -0.0829   -4.1928 C.2       1 <0>         0.0000
      5 C5          1.1802   -0.9705   -6.3103 C.3       1 <0>         0.0000
      6 C6          4.9674   -3.5863   -4.5380 C.3       1 <0>         0.0000
      7 C7          2.6545    0.8250   -3.4205 C.3       1 <0>         0.0000
      8 N1          4.6614   -0.5652   -3.7612 N.2       1 <0>         0.0000
      9 N2          6.8266   -1.5461   -4.2911 N.2       1 <0>         0.0000
     10 O1          0.7984   -0.7235   -3.7038 O.2       1 <0>         0.0000
     11 O2          6.1738   -3.0351   -2.2461 O.2       1 <0>         0.0000
     12 O3          7.5566   -3.9340   -4.1563 O.2       1 <0>         0.0000
     13 O4          1.9766   -0.0750   -5.5211 O.3       1 <0>         0.0000
     14 S1          6.4926    1.0934   -4.6250 S.3       1 <0>         0.0000
     15 S2          6.4813   -3.0295   -3.6949 S.o2      1 <0>         0.0000
     16 H1          4.6273    2.7489   -4.4041 H         1 <0>         0.0000
     17 H2          1.5477   -0.8644   -7.3319 H         1 <0>         0.0000
     18 H3          0.1203   -0.7048   -6.2523 H         1 <0>         0.0000
     19 H4          1.3092   -1.9992   -5.9641 H         1 <0>         0.0000
     20 H5          4.7560   -4.5937   -4.1720 H         1 <0>         0.0000
     21 H6          4.1645   -2.8928   -4.2885 H         1 <0>         0.0000
     22 H7          5.1661   -3.5996   -5.6116 H         1 <0>         0.0000
     23 H8          2.5173    0.5741   -2.3651 H         1 <0>         0.0000
     24 H9          2.3198    1.8580   -3.5712 H         1 <0>         0.0000
@<TRIPOS>BOND
     1    1    2 2
     2    1   14 1
     3    1   16 1
     4    2    7 1
     5    2    8 1
     6    3    8 2
     7    3    9 1
     8    3   14 1
     9    4    7 1
    10    4   10 2
    11    4   13 1
    12    5   13 1
    13    5   17 1
    14    5   18 1
    15    5   19 1
    16    6   15 1
    17    6   20 1
    18    6   21 1
    19    6   22 1
    20    7   23 1
    21    7   24 1
    22    9   15 1
    23   11   15 2
    24   12   15 2
