@<TRIPOS>MOLECULE
*****
   25    25     0     0     0
SMALL
NO_CHARGES

@<TRIPOS>ATOM
      1 C1          1.0100    0.1683    3.0354 C.2       1 <0>         0.0000
      2 C2          1.0223   -0.2835    1.7629 C.2       1 <0>         0.0000
      3 C3          3.2478   -0.7400    2.3361 C.2       1 <0>         0.0000
      4 C4         -0.3341   -1.6865    0.1771 C.2       1 <0>         0.0000
      5 C5          0.7322   -3.3740   -1.1304 C.3       1 <0>         0.0000
      6 C6          6.1128   -3.1209    1.5565 C.3       1 <0>         0.0000
      7 C7         -0.1141   -0.3014    0.7786 C.3       1 <0>         0.0000
      8 N1          4.4792   -1.1746    2.2999 N.2       1 <0>         0.0000
      9 N2          2.2751   -0.7603    1.3768 N.pl3     1 <0>         0.0000
     10 O1         -1.3078   -2.3845    0.3581 O.2       1 <0>         0.0000
     11 O2          3.9841   -2.4681    0.0970 O.2       1 <0>         0.0000
     12 O3          5.9245   -0.8488    0.1934 O.2       1 <0>         0.0000
     13 O4          0.7303   -2.0334   -0.5818 O.3       1 <0>         0.0000
     14 S1          2.5877   -0.0002    3.7999 S.3       1 <0>         0.0000
     15 S2          5.0710   -1.8228    0.8819 S.o2      1 <0>         0.0000
     16 H1          0.1763    0.6005    3.5706 H         1 <0>         0.0000
     17 H2          1.7222   -3.4990   -1.5655 H         1 <0>         0.0000
     18 H3         -0.0503   -3.4650   -1.8865 H         1 <0>         0.0000
     19 H4          0.5631   -4.1021   -0.3352 H         1 <0>         0.0000
     20 H5          6.6073   -3.5955    0.7074 H         1 <0>         0.0000
     21 H6          6.8411   -2.6569    2.2215 H         1 <0>         0.0000
     22 H7          5.4831   -3.8314    2.0918 H         1 <0>         0.0000
     23 H8          0.0986    0.3964   -0.0400 H         1 <0>         0.0000
     24 H9         -1.0340    0.0057    1.2742 H         1 <0>         0.0000
     25 H10         2.4275   -1.2950    0.5176 H         1 <0>         0.0000
@<TRIPOS>BOND
     1    1    2 2
     2    1   14 1
     3    1   16 1
     4    2    7 1
     5    2    9 1
     6    3    8 2
     7    3    9 1
     8    3   14 1
     9    4    7 1
    10    4   10 2
    11    4   13 1
    12    5   13 1
    13    5   17 1
    14    5   18 1
    15    5   19 1
    16    6   15 1
    17    6   20 1
    18    6   21 1
    19    6   22 1
    20    7   23 1
    21    7   24 1
    22    8   15 1
    23    9   25 1
    24   11   15 2
    25   12   15 2
