@<TRIPOS>MOLECULE
*****
   25    25     0     0     0
SMALL
NO_CHARGES

@<TRIPOS>ATOM
      1 C1          4.6081    1.7028   -5.4450 C.2       1 <0>         0.0000
      2 C2          3.8301    0.9080   -4.6484 C.2       1 <0>         0.0000
      3 C3          5.4965   -0.5164   -4.9821 C.2       1 <0>         0.0000
      4 C4          1.9574    2.6196   -4.1996 C.2       1 <0>         0.0000
      5 C5          0.2128    4.0739   -3.5400 C.3       1 <0>         0.0000
      6 C6          8.8548   -1.6807   -5.6222 C.3       1 <0>         0.0000
      7 C7          2.5061    1.2212   -4.0073 C.3       1 <0>         0.0000
      8 N1          4.3506   -0.3505   -4.3865 N.2       1 <0>         0.0000
      9 N2          6.2094   -1.7272   -4.9526 N.pl3     1 <0>         0.0000
     10 O1          2.3968    3.4874   -4.9300 O.2       1 <0>         0.0000
     11 O2          7.9774   -0.5936   -3.3723 O.2       1 <0>         0.0000
     12 O3          7.8434   -3.1370   -3.6360 O.2       1 <0>         0.0000
     13 O4          0.8549    2.7847   -3.4330 O.3       1 <0>         0.0000
     14 S1          6.0395    0.8454   -5.9339 S.3       1 <0>         0.0000
     15 S2          7.7688   -1.7851   -4.1917 S.o2      1 <0>         0.0000
     16 H1          4.4256    2.7212   -5.7528 H         1 <0>         0.0000
     17 H2         -0.6432    4.0270   -2.8674 H         1 <0>         0.0000
     18 H3         -0.1122    4.2529   -4.5674 H         1 <0>         0.0000
     19 H4          0.9000    4.8665   -3.2358 H         1 <0>         0.0000
     20 H5          9.8751   -1.7443   -5.2398 H         1 <0>         0.0000
     21 H6          8.6297   -2.5157   -6.2850 H         1 <0>         0.0000
     22 H7          8.6929   -0.7218   -6.1153 H         1 <0>         0.0000
     23 H8          1.7492    0.5198   -4.3795 H         1 <0>         0.0000
     24 H9          2.5669    1.0227   -2.9323 H         1 <0>         0.0000
     25 H10         5.6433   -2.4719   -4.5419 H         1 <0>         0.0000
@<TRIPOS>BOND
     1    1    2 2
     2    1   14 1
     3    1   16 1
     4    2    7 1
     5    2    8 1
     6    3    8 2
     7    3    9 1
     8    3   14 1
     9    4    7 1
    10    4   10 2
    11    4   13 1
    12    5   13 1
    13    5   17 1
    14    5   18 1
    15    5   19 1
    16    6   15 1
    17    6   20 1
    18    6   21 1
    19    6   22 1
    20    7   23 1
    21    7   24 1
    22    9   15 1
    23    9   25 1
    24   11   15 2
    25   12   15 2
