@<TRIPOS>MOLECULE
*****
   27    28     0     0     0
SMALL
NO_CHARGES

@<TRIPOS>ATOM
      1 C1          1.0031   -1.4317   -3.7356 C.2       1 <0>         0.0000
      2 C2         -1.0313   -2.2256   -6.2093 C.3       1 <0>         0.0000
      3 C3         -2.0548   -2.8912   -5.3113 C.3       1 <0>         0.0000
      4 C4          0.4744   -0.1430   -0.1706 C.3       1 <0>         0.0000
      5 C5          0.0762   -2.4431    0.3664 C.3       1 <0>         0.0000
      6 C6         -0.5994   -2.8605   -4.9115 C.3       1 <0>         0.0000
      7 C7         -0.0708   -1.0278    0.9667 C.3       1 <0>         0.0000
      8 C8          1.2660   -0.6575   -2.4408 C.3       1 <0>         0.0000
      9 N1          0.3628   -1.0083   -1.3540 N.3       1 <0>         0.0000
     10 N2         -0.2269   -2.0114   -3.8161 N.am      1 <0>         0.0000
     11 O1          1.8475   -1.4585   -4.6278 O.2       1 <0>         0.0000
     12 O2          0.8485   -2.2883   -0.8229 O.3       1 <0>         0.0000
     13 O3         -1.4537   -0.8249    1.2606 O.3       1 <0>         0.0000
     14 H1         -0.7428   -2.7210   -7.1309 H         1 <0>         0.0000
     15 H2         -1.0210   -1.1415   -6.2466 H         1 <0>         0.0000
     16 H3         -2.7367   -2.2468   -4.7635 H         1 <0>         0.0000
     17 H4         -2.4757   -3.8452   -5.6142 H         1 <0>         0.0000
     18 H5         -0.1256    0.7590   -0.3164 H         1 <0>         0.0000
     19 H6          1.5220    0.1336    0.0256 H         1 <0>         0.0000
     20 H7          0.6145   -3.1450    1.0055 H         1 <0>         0.0000
     21 H8         -0.9271   -2.8252    0.1421 H         1 <0>         0.0000
     22 H9         -0.0357   -3.7884   -4.9838 H         1 <0>         0.0000
     23 H10         0.5317   -0.9007    1.8738 H         1 <0>         0.0000
     24 H11         2.3194   -0.8006   -2.1665 H         1 <0>         0.0000
     25 H12         1.1136    0.4044   -2.6606 H         1 <0>         0.0000
     26 H13        -0.7706   -2.0265   -2.9595 H         1 <0>         0.0000
     27 H14        -1.5434   -0.0015    1.7645 H         1 <0>         0.0000
@<TRIPOS>BOND
     1    1    8 1
     2    1   10 am
     3    1   11 2
     4    2    3 1
     5    2    6 1
     6    2   14 1
     7    2   15 1
     8    3    6 1
     9    3   16 1
    10    3   17 1
    11    4    7 1
    12    4    9 1
    13    4   18 1
    14    4   19 1
    15    5    7 1
    16    5   12 1
    17    5   20 1
    18    5   21 1
    19    6   10 1
    20    6   22 1
    21    7   13 1
    22    7   23 1
    23    8    9 1
    24    8   24 1
    25    8   25 1
    26    9   12 1
    27   10   26 1
    28   13   27 1
