@<TRIPOS>MOLECULE
*****
   29    30     0     0     0
SMALL
NO_CHARGES

@<TRIPOS>ATOM
      1 C1         -2.3659    0.8730   -1.1191 C.ar      1 <0>         0.0000
      2 C2         -3.7399    0.7089   -1.1052 C.ar      1 <0>         0.0000
      3 C3         -1.5905   -0.1246   -0.5632 C.ar      1 <0>         0.0000
      4 C4         -4.2475   -0.4420   -0.5366 C.ar      1 <0>         0.0000
      5 C5          0.4879    1.2136    0.1674 C.3       1 <0>         0.0000
      6 C6          0.6705   -0.1588    0.7425 C.3       1 <0>         0.0000
      7 C7         -0.1099    0.0163   -0.5592 C.3       1 <0>         0.0000
      8 C8          0.7792   -0.0475    3.2374 C.3       1 <0>         0.0000
      9 C9         -6.0560   -1.8503    0.0972 C.3       1 <0>         0.0000
     10 C10         0.0104   -0.5201    2.0305 C.3       1 <0>         0.0000
     11 N1         -2.1144   -1.2407   -0.0135 N.ar      1 <0>         0.0000
     12 N2         -3.4647   -1.4020   -0.0002 N.ar      1 <0>         0.0000
     13 N3          0.5206   -0.4308   -1.8169 N.3       1 <0>         0.0000
     14 O1         -5.6001   -0.6426   -0.5033 O.3       1 <0>         0.0000
     15 H1         -1.9234    1.7620   -1.5556 H         1 <0>         0.0000
     16 H2         -4.3915    1.4649   -1.5296 H         1 <0>         0.0000
     17 H3         -0.1811    1.9010    0.6734 H         1 <0>         0.0000
     18 H4          1.3589    1.6968   -0.2619 H         1 <0>         0.0000
     19 H5          1.6607   -0.5982    0.6784 H         1 <0>         0.0000
     20 H6          1.8000   -0.4473    3.2311 H         1 <0>         0.0000
     21 H7          0.2882   -0.3846    4.1565 H         1 <0>         0.0000
     22 H8          0.8426    1.0458    3.2428 H         1 <0>         0.0000
     23 H9         -7.1475   -1.8874    0.0596 H         1 <0>         0.0000
     24 H10        -5.7149   -1.8938    1.1346 H         1 <0>         0.0000
     25 H11        -5.6456   -2.6990   -0.4551 H         1 <0>         0.0000
     26 H12        -1.0069   -0.0913    2.0843 H         1 <0>         0.0000
     27 H13        -0.1158   -1.6149    2.1135 H         1 <0>         0.0000
     28 H14         0.5457    0.2153   -2.5660 H         1 <0>         0.0000
     29 H15         0.6976   -1.3995   -1.9156 H         1 <0>         0.0000
@<TRIPOS>BOND
     1    1    2 ar
     2    1    3 ar
     3    1   15 1
     4    2    4 ar
     5    2   16 1
     6    3    7 1
     7    3   11 ar
     8    4   12 ar
     9    4   14 1
    10    5    6 1
    11    5    7 1
    12    5   17 1
    13    5   18 1
    14    6    7 1
    15    6   10 1
    16    6   19 1
    17    7   13 1
    18    8   10 1
    19    8   20 1
    20    8   21 1
    21    8   22 1
    22    9   14 1
    23    9   23 1
    24    9   24 1
    25    9   25 1
    26   10   26 1
    27   10   27 1
    28   11   12 ar
    29   13   28 1
    30   13   29 1
