@<TRIPOS>MOLECULE
*****
   34    35     0     0     0
SMALL
NO_CHARGES

@<TRIPOS>ATOM
      1 C1         -2.0150    1.4955    1.4437 C.ar      1 <0>         0.0000
      2 C2         -1.6069    2.4203    0.4754 C.ar      1 <0>         0.0000
      3 C3         -1.3947    0.2464    1.4960 C.ar      1 <0>         0.0000
      4 C4         -0.5987    2.0847   -0.4267 C.ar      1 <0>         0.0000
      5 C5         -0.3630   -0.1030    0.6138 C.ar      1 <0>         0.0000
      6 C6          0.0328    0.8301   -0.3619 C.ar      1 <0>         0.0000
      7 C7          0.5591   -2.0354   -0.6752 C.3       1 <0>         0.0000
      8 C8          1.6127   -1.2738   -1.4711 C.3       1 <0>         0.0000
      9 C9          0.3079   -1.4578    0.7320 C.3       1 <0>         0.0000
     10 C10         1.5739   -1.3435    1.6227 C.3       1 <0>         0.0000
     11 C11         2.0502   -3.8850    1.6927 C.3       1 <0>         0.0000
     12 C12         1.8560   -2.5804    2.4936 C.3       1 <0>         0.0000
     13 C13         3.1067   -2.3156    3.3617 C.3       1 <0>         0.0000
     14 O1          2.9459   -3.7595    0.5953 O.3       1 <0>         0.0000
     15 O2          0.7767   -2.8644    3.3809 O.3       1 <0>         0.0000
     16 F1          2.9298   -1.2394    4.1693 F         1 <0>         0.0000
     17 F2          4.2087   -2.0694    2.5984 F         1 <0>         0.0000
     18 F3          3.4104   -3.3616    4.1590 F         1 <0>         0.0000
     19 S1          1.3326    0.5474   -1.5442 S.3       1 <0>         0.0000
     20 H1         -2.8110    1.7422    2.1409 H         1 <0>         0.0000
     21 H2         -2.0812    3.3962    0.4124 H         1 <0>         0.0000
     22 H3         -1.7145   -0.4841    2.2375 H         1 <0>         0.0000
     23 H4         -0.2981    2.7958   -1.1924 H         1 <0>         0.0000
     24 H5         -0.3927   -2.0226   -1.2170 H         1 <0>         0.0000
     25 H6          0.8908   -3.0747   -0.6227 H         1 <0>         0.0000
     26 H7          2.6067   -1.4474   -1.0554 H         1 <0>         0.0000
     27 H8          1.6219   -1.6198   -2.5076 H         1 <0>         0.0000
     28 H9         -0.3975   -2.1194    1.2446 H         1 <0>         0.0000
     29 H10         2.4536   -1.1111    1.0210 H         1 <0>         0.0000
     30 H11         1.4420   -0.4942    2.3011 H         1 <0>         0.0000
     31 H12         2.3481   -4.6885    2.3750 H         1 <0>         0.0000
     32 H13         1.0784   -4.1534    1.2779 H         1 <0>         0.0000
     33 H14         3.8515   -3.6900    0.9351 H         1 <0>         0.0000
     34 H15         0.5681   -2.0573    3.8807 H         1 <0>         0.0000
@<TRIPOS>BOND
     1    1    2 ar
     2    1    3 ar
     3    1   20 1
     4    2    4 ar
     5    2   21 1
     6    3    5 ar
     7    3   22 1
     8    4    6 ar
     9    4   23 1
    10    5    6 ar
    11    5    9 1
    12    6   19 1
    13    7    8 1
    14    7    9 1
    15    7   24 1
    16    7   25 1
    17    8   19 1
    18    8   26 1
    19    8   27 1
    20    9   10 1
    21    9   28 1
    22   10   12 1
    23   10   29 1
    24   10   30 1
    25   11   12 1
    26   11   14 1
    27   11   31 1
    28   11   32 1
    29   12   13 1
    30   12   15 1
    31   13   16 1
    32   13   17 1
    33   13   18 1
    34   14   33 1
    35   15   34 1
