@<TRIPOS>MOLECULE
*****
   34    36     0     0     0
SMALL
NO_CHARGES

@<TRIPOS>ATOM
      1 C1         -2.8236   -1.9404   -1.2489 C.ar      1 <0>         0.0000
      2 C2         -1.8744   -2.1821    0.9414 C.ar      1 <0>         0.0000
      3 C3         -2.0153   -0.8090   -1.4314 C.ar      1 <0>         0.0000
      4 C4         -2.7502   -2.6432   -0.0513 C.ar      1 <0>         0.0000
      5 C5         -1.1515   -0.4213   -0.3837 C.ar      1 <0>         0.0000
      6 C6         -1.2584    2.5685   -4.6171 C.3       1 <0>         0.0000
      7 C7         -2.0651    3.6079   -3.8676 C.3       1 <0>         0.0000
      8 C8          1.2199    0.5654   -0.3085 C.3       1 <0>         0.0000
      9 C9          0.6434    1.1145   -1.5937 C.3       1 <0>         0.0000
     10 C10        -2.4810    2.1618   -3.8399 C.3       1 <0>         0.0000
     11 C11        -0.2643    0.8012   -0.3934 C.3       1 <0>         0.0000
     12 C12        -0.8117    1.9569    0.4415 C.3       1 <0>         0.0000
     13 C13        -2.1093   -0.0938   -2.7576 C.3       1 <0>         0.0000
     14 N1         -1.1111   -1.1049    0.7717 N.ar      1 <0>         0.0000
     15 N2         -2.2947    1.3999   -2.5782 N.4       1 <0>         0.0000
     16 Cl1        -3.7245   -4.0543    0.2181 Cl        1 <0>         0.0000
     17 H1         -3.4990   -2.2764   -2.0312 H         1 <0>         0.0000
     18 H2         -1.7958   -2.7036    1.8930 H         1 <0>         0.0000
     19 H3         -1.3275    2.5263   -5.6987 H         1 <0>         0.0000
     20 H4         -0.2833    2.3065   -4.2175 H         1 <0>         0.0000
     21 H5         -1.6259    4.0333   -2.9693 H         1 <0>         0.0000
     22 H6         -2.6970    4.2911   -4.4246 H         1 <0>         0.0000
     23 H7          1.5671   -0.4620   -0.3184 H         1 <0>         0.0000
     24 H8          1.7969    1.2344    0.3216 H         1 <0>         0.0000
     25 H9          0.8476    2.1578   -1.8277 H         1 <0>         0.0000
     26 H10         0.6612    0.4453   -2.4493 H         1 <0>         0.0000
     27 H11        -3.3763    1.8436   -4.3633 H         1 <0>         0.0000
     28 H12        -0.1275    2.8104    0.4258 H         1 <0>         0.0000
     29 H13        -0.9312    1.6333    1.4788 H         1 <0>         0.0000
     30 H14        -1.7953    2.3072    0.0990 H         1 <0>         0.0000
     31 H15        -1.2169   -0.2059   -3.3749 H         1 <0>         0.0000
     32 H16        -2.9653   -0.4490   -3.3332 H         1 <0>         0.0000
     33 H17        -1.4548    1.7325   -2.0782 H         1 <0>         0.0000
     34 H18        -3.0881    1.5660   -1.9473 H         1 <0>         0.0000
@<TRIPOS>BOND
     1    1    3 ar
     2    1    4 ar
     3    1   17 1
     4    2    4 ar
     5    2   14 ar
     6    2   18 1
     7    3    5 ar
     8    3   13 1
     9    4   16 1
    10    5   11 1
    11    5   14 ar
    12    6    7 1
    13    6   10 1
    14    6   19 1
    15    6   20 1
    16    7   10 1
    17    7   21 1
    18    7   22 1
    19    8    9 1
    20    8   11 1
    21    8   23 1
    22    8   24 1
    23    9   11 1
    24    9   25 1
    25    9   26 1
    26   10   15 1
    27   10   27 1
    28   11   12 1
    29   12   28 1
    30   12   29 1
    31   12   30 1
    32   13   15 1
    33   13   31 1
    34   13   32 1
    35   15   33 1
    36   15   34 1
