@<TRIPOS>MOLECULE
*****
   35    35     0     0     0
SMALL
NO_CHARGES

@<TRIPOS>ATOM
      1 C1          2.0234   -1.6181   -0.0753 C.ar      1 <0>         0.0000
      2 C2          0.8873   -1.2649    0.6683 C.ar      1 <0>         0.0000
      3 C3          3.2278   -2.0429    1.9785 C.ar      1 <0>         0.0000
      4 C4          3.1970   -2.0125    0.5650 C.ar      1 <0>         0.0000
      5 C5          0.9059   -1.2975    2.0648 C.ar      1 <0>         0.0000
      6 C6          2.0995   -1.7062    2.7316 C.ar      1 <0>         0.0000
      7 C7         -3.7615    0.0151    2.8499 C.3       1 <0>         0.0000
      8 C8          3.1481   -2.2348    4.8133 C.3       1 <0>         0.0000
      9 C9          4.4542   -2.3108   -0.2261 C.3       1 <0>         0.0000
     10 C10        -2.3820   -0.3723    3.3942 C.3       1 <0>         0.0000
     11 C11         5.0824   -1.0166   -0.7615 C.3       1 <0>         0.0000
     12 C12        -1.3916   -0.6311    2.2704 C.3       1 <0>         0.0000
     13 N1          5.2075   -0.0224    0.3849 N.4       1 <0>         0.0000
     14 O1          2.0282   -1.7365    4.0817 O.3       1 <0>         0.0000
     15 O2         -0.1284   -0.9851    2.8687 O.3       1 <0>         0.0000
     16 H1          1.9676   -1.6039   -1.1616 H         1 <0>         0.0000
     17 H2         -0.0167   -0.9771    0.1452 H         1 <0>         0.0000
     18 H3          4.1217   -2.3962    2.4841 H         1 <0>         0.0000
     19 H4         -3.7142    0.9294    2.2479 H         1 <0>         0.0000
     20 H5         -4.1836   -0.7785    2.2235 H         1 <0>         0.0000
     21 H6         -4.4615    0.1956    3.6703 H         1 <0>         0.0000
     22 H7          2.8500   -2.2107    5.8608 H         1 <0>         0.0000
     23 H8          4.0302   -1.5966    4.6740 H         1 <0>         0.0000
     24 H9          3.3836   -3.2652    4.5231 H         1 <0>         0.0000
     25 H10         5.1835   -2.8510    0.3875 H         1 <0>         0.0000
     26 H11         4.2448   -2.9441   -1.0938 H         1 <0>         0.0000
     27 H12        -2.4546   -1.2733    4.0122 H         1 <0>         0.0000
     28 H13        -1.9873    0.4234    4.0352 H         1 <0>         0.0000
     29 H14         4.4348   -0.5371   -1.4967 H         1 <0>         0.0000
     30 H15         6.0788   -1.1531   -1.1863 H         1 <0>         0.0000
     31 H16        -1.7311   -1.4549    1.6293 H         1 <0>         0.0000
     32 H17        -1.2606    0.2646    1.6487 H         1 <0>         0.0000
     33 H18         5.4047    0.9325    0.0650 H         1 <0>         0.0000
     34 H19         5.9450   -0.2963    1.0437 H         1 <0>         0.0000
     35 H20         4.3134   -0.0340    0.9108 H         1 <0>         0.0000
@<TRIPOS>BOND
     1    1    2 ar
     2    1    4 ar
     3    1   16 1
     4    2    5 ar
     5    2   17 1
     6    3    4 ar
     7    3    6 ar
     8    3   18 1
     9    4    9 1
    10    5    6 ar
    11    5   15 1
    12    6   14 1
    13    7   10 1
    14    7   19 1
    15    7   20 1
    16    7   21 1
    17    8   14 1
    18    8   22 1
    19    8   23 1
    20    8   24 1
    21    9   11 1
    22    9   25 1
    23    9   26 1
    24   10   12 1
    25   10   27 1
    26   10   28 1
    27   11   13 1
    28   11   29 1
    29   11   30 1
    30   12   15 1
    31   12   31 1
    32   12   32 1
    33   13   33 1
    34   13   34 1
    35   13   35 1
