@<TRIPOS>MOLECULE
*****
   66    69     0     0     0
SMALL
NO_CHARGES

@<TRIPOS>ATOM
      1 C1          1.2327    8.6494    2.4534 C.ar      1 <0>         0.0000
      2 C2          4.0306    3.9987    2.1213 C.ar      1 <0>         0.0000
      3 C3          5.5076    4.6176    3.9488 C.ar      1 <0>         0.0000
      4 C4          4.7252    2.8000    1.9876 C.ar      1 <0>         0.0000
      5 C5          6.1988    3.4213    3.8103 C.ar      1 <0>         0.0000
      6 C6          2.3724    8.0802    3.0248 C.ar      1 <0>         0.0000
      7 C7          0.4425    7.9069    1.5792 C.ar      1 <0>         0.0000
      8 C8          4.4155    4.9312    3.1071 C.ar      1 <0>         0.0000
      9 C9          5.8075    2.5090    2.8228 C.ar      1 <0>         0.0000
     10 C10         0.8623    6.5822    1.2834 C.ar      1 <0>         0.0000
     11 C11         2.6790    6.7484    2.7034 C.ar      1 <0>         0.0000
     12 C12        -1.4036    7.7437    0.0056 C.2       1 <0>         0.0000
     13 C13         1.1934    1.4974   -1.3279 C.3       1 <0>         0.0000
     14 C14        -0.3436    1.5791   -1.2454 C.3       1 <0>         0.0000
     15 C15         1.9650    2.6334   -0.6338 C.3       1 <0>         0.0000
     16 C16        -0.9166    2.1157    0.0789 C.3       1 <0>         0.0000
     17 C17         1.3793    4.0472   -0.8022 C.3       1 <0>         0.0000
     18 C18        -1.0121    3.6500    0.1384 C.3       1 <0>         0.0000
     19 C19        -0.6049    6.6039   -0.6219 C.3       1 <0>         0.0000
     20 C20         0.3277    4.3888    0.2748 C.3       1 <0>         0.0000
     21 C21         0.3188    7.1824   -1.7141 C.3       1 <0>         0.0000
     22 C22        -1.4201    9.5518    1.6528 C.3       1 <0>         0.0000
     23 C23         7.4229    1.6503    0.0937 C.3       1 <0>         0.0000
     24 C24         8.9509    2.3117    1.9056 C.3       1 <0>         0.0000
     25 N1          1.9462    6.0308    1.8443 N.ar      1 <0>         0.0000
     26 N2         -0.7852    8.3774    1.0611 N.am      1 <0>         0.0000
     27 N3          0.0957    5.8401    0.4131 N.pl3     1 <0>         0.0000
     28 N4          3.7908    6.1586    3.3098 N.pl3     1 <0>         0.0000
     29 N5          7.9298    1.3664    1.4408 N.pl3     1 <0>         0.0000
     30 O1         -2.4912    8.0922   -0.4482 O.2       1 <0>         0.0000
     31 O2          7.4405    0.7062    3.8345 O.2       1 <0>         0.0000
     32 O3          5.8459    0.0243    1.9470 O.2       1 <0>         0.0000
     33 S1          6.7305    0.9999    2.5876 S.o2      1 <0>         0.0000
     34 H1          0.9603    9.6666    2.7129 H         1 <0>         0.0000
     35 H2          3.1892    4.2221    1.4861 H         1 <0>         0.0000
     36 H3          5.8054    5.3185    4.7264 H         1 <0>         0.0000
     37 H4          4.4114    2.0748    1.2437 H         1 <0>         0.0000
     38 H5          7.0207    3.1778    4.4759 H         1 <0>         0.0000
     39 H6          2.9942    8.6535    3.7061 H         1 <0>         0.0000
     40 H7          1.5295    0.5488   -0.8922 H         1 <0>         0.0000
     41 H8          1.4785    1.4596   -2.3865 H         1 <0>         0.0000
     42 H9         -0.7234    2.2101   -2.0592 H         1 <0>         0.0000
     43 H10        -0.7466    0.5783   -1.4382 H         1 <0>         0.0000
     44 H11         2.0384    2.4168    0.4384 H         1 <0>         0.0000
     45 H12         2.9956    2.6239   -1.0069 H         1 <0>         0.0000
     46 H13        -1.9336    1.7266    0.2018 H         1 <0>         0.0000
     47 H14        -0.3423    1.7324    0.9322 H         1 <0>         0.0000
     48 H15         2.1845    4.7826   -0.7109 H         1 <0>         0.0000
     49 H16         0.9560    4.1655   -1.8074 H         1 <0>         0.0000
     50 H17        -1.5416    3.9781   -0.7641 H         1 <0>         0.0000
     51 H18        -1.6360    3.9465    0.9893 H         1 <0>         0.0000
     52 H19        -1.3474    5.9587   -1.0860 H         1 <0>         0.0000
     53 H20         0.7601    4.0947    1.2338 H         1 <0>         0.0000
     54 H21         1.0891    7.8225   -1.2729 H         1 <0>         0.0000
     55 H22        -0.2702    7.7793   -2.4168 H         1 <0>         0.0000
     56 H23         0.8139    6.3820   -2.2672 H         1 <0>         0.0000
     57 H24        -0.8508   10.4612    1.4297 H         1 <0>         0.0000
     58 H25        -1.4946    9.4315    2.7379 H         1 <0>         0.0000
     59 H26        -2.4156    9.6444    1.2222 H         1 <0>         0.0000
     60 H27         6.6993    0.8864   -0.1900 H         1 <0>         0.0000
     61 H28         8.2675    1.6040   -0.5995 H         1 <0>         0.0000
     62 H29         6.9602    2.6465    0.0188 H         1 <0>         0.0000
     63 H30         9.3030    2.0096    2.8916 H         1 <0>         0.0000
     64 H31         8.5793    3.3474    1.9449 H         1 <0>         0.0000
     65 H32         9.7917    2.2682    1.2076 H         1 <0>         0.0000
     66 H33         4.2342    6.7440    4.0050 H         1 <0>         0.0000
@<TRIPOS>BOND
     1    1    6 ar
     2    1    7 ar
     3    1   34 1
     4    2    4 ar
     5    2    8 ar
     6    2   35 1
     7    3    5 ar
     8    3    8 ar
     9    3   36 1
    10    4    9 ar
    11    4   37 1
    12    5    9 ar
    13    5   38 1
    14    6   11 ar
    15    6   39 1
    16    7   10 ar
    17    7   26 1
    18    8   28 1
    19    9   33 1
    20   10   25 ar
    21   10   27 1
    22   11   25 ar
    23   11   28 1
    24   12   19 1
    25   12   26 am
    26   12   30 2
    27   13   14 1
    28   13   15 1
    29   13   40 1
    30   13   41 1
    31   14   16 1
    32   14   42 1
    33   14   43 1
    34   15   17 1
    35   15   44 1
    36   15   45 1
    37   16   18 1
    38   16   46 1
    39   16   47 1
    40   17   20 1
    41   17   48 1
    42   17   49 1
    43   18   20 1
    44   18   50 1
    45   18   51 1
    46   19   21 1
    47   19   27 1
    48   19   52 1
    49   20   27 1
    50   20   53 1
    51   21   54 1
    52   21   55 1
    53   21   56 1
    54   22   26 1
    55   22   57 1
    56   22   58 1
    57   22   59 1
    58   23   29 1
    59   23   60 1
    60   23   61 1
    61   23   62 1
    62   24   29 1
    63   24   63 1
    64   24   64 1
    65   24   65 1
    66   28   66 1
    67   29   33 1
    68   31   33 2
    69   32   33 2
