@<TRIPOS>MOLECULE
*****
   68    71     0     0     0
SMALL
NO_CHARGES

@<TRIPOS>ATOM
      1 C1         -1.2000   -0.0512    5.3424 C.ar      1 <0>         0.0000
      2 C2         -4.9954   -1.7829    5.2785 C.ar      1 <0>         0.0000
      3 C3         -2.1043    0.7605    4.6618 C.ar      1 <0>         0.0000
      4 C4         -5.7148   -0.8214    4.5585 C.ar      1 <0>         0.0000
      5 C5         -1.5069    1.2940    7.3302 C.ar      1 <0>         0.0000
      6 C6         -5.7869    0.6320    6.5034 C.ar      1 <0>         0.0000
      7 C7         -0.8897    0.2085    6.6833 C.ar      1 <0>         0.0000
      8 C8         -4.6492   -1.5254    6.6079 C.ar      1 <0>         0.0000
      9 C9         -5.0513   -0.3246    7.2076 C.ar      1 <0>         0.0000
     10 C10        -2.4244    2.1071    6.6760 C.ar      1 <0>         0.0000
     11 C11        -6.1063    0.3791    5.1649 C.ar      1 <0>         0.0000
     12 C12        -2.7203    1.8284    5.3226 C.ar      1 <0>         0.0000
     13 C13         1.1412   -2.4950    7.7871 C.2       1 <0>         0.0000
     14 C14         1.0475   -1.7659    8.9514 C.2       1 <0>         0.0000
     15 C15        -0.0285   -0.6871    7.4376 C.2       1 <0>         0.0000
     16 C16         1.6878   -3.8171    7.4451 C.2       1 <0>         0.0000
     17 C17        -2.8225   -4.2909    6.0778 C.2       1 <0>         0.0000
     18 C18        -4.6463   -0.2941    8.6657 C.3       1 <0>         0.0000
     19 C19        -3.6239   -1.4517    8.7750 C.3       1 <0>         0.0000
     20 C20        -3.9131   -2.4201    7.5910 C.3       1 <0>         0.0000
     21 C21         1.5874   -2.0808   10.3070 C.3       1 <0>         0.0000
     22 C22         1.3382   -4.3631    6.0894 C.3       1 <0>         0.0000
     23 C23        -3.3151    5.7687    7.7057 C.3       1 <0>         0.0000
     24 C24        -3.1140    3.2450    7.3863 C.3       1 <0>         0.0000
     25 C25        -2.6442   -3.0972    7.0627 C.3       1 <0>         0.0000
     26 C26        -2.5628    4.6312    7.0072 C.3       1 <0>         0.0000
     27 C27        -5.5247    3.0112    3.3189 C.3       1 <0>         0.0000
     28 C28        -6.5300    2.6468    4.4161 C.3       1 <0>         0.0000
     29 C29        -4.1949    2.2848    3.4676 C.3       1 <0>         0.0000
     30 N1          0.3032   -0.6229    8.7094 N.2       1 <0>         0.0000
     31 O1         -3.9980   -4.6739    5.8303 O.co2     1 <0>         0.0000
     32 O2          2.3649   -4.4298    8.2778 O.2       1 <0>         0.0000
     33 O3         -1.7343   -4.7558    5.6212 O.co2     1 <0>         0.0000
     34 O4          0.4576   -1.7856    6.8117 O.3       1 <0>         0.0000
     35 O5         -6.8685    1.2586    4.3921 O.3       1 <0>         0.0000
     36 O6         -3.6402    2.6549    4.7355 O.3       1 <0>         0.0000
     37 H1         -0.7637   -0.9093    4.8419 H         1 <0>         0.0000
     38 H2         -4.7171   -2.7357    4.8371 H         1 <0>         0.0000
     39 H3         -2.3440    0.5299    3.6309 H         1 <0>         0.0000
     40 H4         -5.9952   -0.9930    3.5217 H         1 <0>         0.0000
     41 H5         -1.2856    1.4666    8.3798 H         1 <0>         0.0000
     42 H6         -6.1152    1.5458    6.9927 H         1 <0>         0.0000
     43 H7         -4.2282    0.6730    8.9697 H         1 <0>         0.0000
     44 H8         -5.5259   -0.4768    9.2996 H         1 <0>         0.0000
     45 H9         -2.6128   -1.0487    8.6679 H         1 <0>         0.0000
     46 H10        -3.6648   -1.9606    9.7438 H         1 <0>         0.0000
     47 H11        -4.6053   -3.2128    7.9027 H         1 <0>         0.0000
     48 H12         2.3188   -1.3223   10.6100 H         1 <0>         0.0000
     49 H13         0.7768   -2.0657   11.0436 H         1 <0>         0.0000
     50 H14         2.0666   -3.0599   10.3055 H         1 <0>         0.0000
     51 H15         1.6162   -3.6493    5.3047 H         1 <0>         0.0000
     52 H16         0.2429   -4.5070    5.9997 H         1 <0>         0.0000
     53 H17         1.8604   -5.3102    5.9389 H         1 <0>         0.0000
     54 H18        -4.3772    5.7626    7.4323 H         1 <0>         0.0000
     55 H19        -3.2550    5.6738    8.7967 H         1 <0>         0.0000
     56 H20        -2.9057    6.7482    7.4329 H         1 <0>         0.0000
     57 H21        -4.1848    3.2151    7.1555 H         1 <0>         0.0000
     58 H22        -3.0168    3.1017    8.4688 H         1 <0>         0.0000
     59 H23        -2.0539   -3.4657    7.9132 H         1 <0>         0.0000
     60 H24        -2.0172   -2.3550    6.5647 H         1 <0>         0.0000
     61 H25        -1.4973    4.6735    7.2647 H         1 <0>         0.0000
     62 H26        -2.6288    4.7537    5.9211 H         1 <0>         0.0000
     63 H27        -5.9471    2.7561    2.3399 H         1 <0>         0.0000
     64 H28        -5.3599    4.0967    3.3383 H         1 <0>         0.0000
     65 H29        -6.1357    2.9423    5.3917 H         1 <0>         0.0000
     66 H30        -7.4668    3.1893    4.2504 H         1 <0>         0.0000
     67 H31        -3.4977    2.5656    2.6665 H         1 <0>         0.0000
     68 H32        -4.3557    1.2054    3.4296 H         1 <0>         0.0000
@<TRIPOS>BOND
     1    1    3 ar
     2    1    7 ar
     3    1   37 1
     4    2    4 ar
     5    2    8 ar
     6    2   38 1
     7    3   12 ar
     8    3   39 1
     9    4   11 ar
    10    4   40 1
    11    5    7 ar
    12    5   10 ar
    13    5   41 1
    14    6    9 ar
    15    6   11 ar
    16    6   42 1
    17    7   15 1
    18    8    9 ar
    19    8   20 1
    20    9   18 1
    21   10   12 ar
    22   10   24 1
    23   11   35 1
    24   12   36 1
    25   13   14 2
    26   13   16 1
    27   13   34 1
    28   14   21 1
    29   14   30 1
    30   15   30 2
    31   15   34 1
    32   16   22 1
    33   16   32 2
    34   17   25 1
    35   17   31 1
    36   17   33 2
    37   18   19 1
    38   18   43 1
    39   18   44 1
    40   19   20 1
    41   19   45 1
    42   19   46 1
    43   20   25 1
    44   20   47 1
    45   21   48 1
    46   21   49 1
    47   21   50 1
    48   22   51 1
    49   22   52 1
    50   22   53 1
    51   23   26 1
    52   23   54 1
    53   23   55 1
    54   23   56 1
    55   24   26 1
    56   24   57 1
    57   24   58 1
    58   25   59 1
    59   25   60 1
    60   26   61 1
    61   26   62 1
    62   27   28 1
    63   27   29 1
    64   27   63 1
    65   27   64 1
    66   28   35 1
    67   28   65 1
    68   28   66 1
    69   29   36 1
    70   29   67 1
    71   29   68 1
