@<TRIPOS>MOLECULE
*****
   25    26     0     0     0
SMALL
NO_CHARGES

@<TRIPOS>ATOM
      1 C1          1.9755   -2.8525    0.7112 C.ar      1 <0>         0.0000
      2 C2          0.9498   -2.5605    1.6004 C.ar      1 <0>         0.0000
      3 C3          1.7771   -0.2819    1.7771 C.ar      1 <0>         0.0000
      4 C4          5.1279   -6.9966   -2.9883 C.2       1 <0>         0.0000
      5 C5          2.9324   -1.8896    0.3295 C.ar      1 <0>         0.0000
      6 C6          0.8587   -1.2684    2.1303 C.ar      1 <0>         0.0000
      7 C7          2.8008   -0.6016    0.8833 C.ar      1 <0>         0.0000
      8 C8          5.2203   -4.8717   -2.5576 C.2       1 <0>         0.0000
      9 C9          4.0035   -2.2230   -0.6129 C.2       1 <0>         0.0000
     10 N1          5.4367   -6.3859   -4.1046 N.2       1 <0>         0.0000
     11 N2          5.4834   -5.0177   -3.8346 N.2       1 <0>         0.0000
     12 N3          4.1967   -3.4378   -0.9941 N.2       1 <0>         0.0000
     13 N4          4.9883   -6.0876   -1.9633 N.pl3     1 <0>         0.0000
     14 N5          4.7444   -6.4046   -0.6139 N.3       1 <0>         0.0000
     15 N6          5.2408   -3.6686   -1.8580 N.pl3     1 <0>         0.0000
     16 Cl1        -0.4295   -0.8781    3.2479 Cl        1 <0>         0.0000
     17 Cl2         3.9378    0.6783    0.4803 Cl        1 <0>         0.0000
     18 H1          2.0473   -3.8446    0.2781 H         1 <0>         0.0000
     19 H2          0.2219   -3.3161    1.8771 H         1 <0>         0.0000
     20 H3          1.7022    0.7181    2.1892 H         1 <0>         0.0000
     21 H4          4.9842   -8.0587   -2.8444 H         1 <0>         0.0000
     22 H5          4.6312   -1.4068   -0.9801 H         1 <0>         0.0000
     23 H6          4.0198   -5.7670   -0.2854 H         1 <0>         0.0000
     24 H7          5.5916   -6.1902   -0.0856 H         1 <0>         0.0000
     25 H8          5.5549   -2.8890   -2.4380 H         1 <0>         0.0000
@<TRIPOS>BOND
     1    1    2 ar
     2    1    5 ar
     3    1   18 1
     4    2    6 ar
     5    2   19 1
     6    3    6 ar
     7    3    7 ar
     8    3   20 1
     9    4   10 2
    10    4   13 1
    11    4   21 1
    12    5    7 ar
    13    5    9 1
    14    6   16 1
    15    7   17 1
    16    8   11 2
    17    8   13 1
    18    8   15 1
    19    9   12 2
    20    9   22 1
    21   10   11 1
    22   12   15 1
    23   13   14 1
    24   14   23 1
    25   14   24 1
    26   15   25 1
