@<TRIPOS>MOLECULE
*****
   56    60     0     0     0
SMALL
NO_CHARGES

@<TRIPOS>ATOM
      1 C1         -0.5105    0.9009    1.4045 C.ar      1 <0>         0.0000
      2 C2         -0.7033   -0.3003    0.6899 C.ar      1 <0>         0.0000
      3 C3         -7.8380   -1.6947   -0.1367 C.ar      1 <0>         0.0000
      4 C4         -1.4360    1.3249    2.3591 C.ar      1 <0>         0.0000
      5 C5         -2.8123    2.2596    5.1904 C.ar      1 <0>         0.0000
      6 C6         -5.1590    2.3911    4.6848 C.ar      1 <0>         0.0000
      7 C7         -6.9318   -2.0462    0.8719 C.ar      1 <0>         0.0000
      8 C8         -1.8378   -1.0858    0.9081 C.ar      1 <0>         0.0000
      9 C9         -7.3952   -1.3656   -1.4165 C.ar      1 <0>         0.0000
     10 C10        -2.9377    3.3044    6.1034 C.ar      1 <0>         0.0000
     11 C11        -5.2977    3.4382    5.6030 C.ar      1 <0>         0.0000
     12 C12        -5.1085   -1.7355   -0.6974 C.ar      1 <0>         0.0000
     13 C13        -2.5800    0.5446    2.6155 C.ar      1 <0>         0.0000
     14 C14        -3.9153    1.7805    4.4511 C.ar      1 <0>         0.0000
     15 C15        -3.7359    0.6935    3.4719 C.2       1 <0>         0.0000
     16 C16        -5.5634   -2.0729    0.5889 C.ar      1 <0>         0.0000
     17 C17        -2.7658   -0.6566    1.8654 C.ar      1 <0>         0.0000
     18 C18        -4.1851    3.9054    6.3127 C.ar      1 <0>         0.0000
     19 C19        -6.0201   -1.3778   -1.6946 C.ar      1 <0>         0.0000
     20 C20        -4.5725   -0.3931    3.2159 C.2       1 <0>         0.0000
     21 C21        -5.9320   -0.8019    3.8039 C.2       1 <0>         0.0000
     22 C22        -6.2517    7.7436    8.6313 C.3       1 <0>         0.0000
     23 C23        -4.8250    7.9579    8.1654 C.3       1 <0>         0.0000
     24 C24        -5.2861    6.5792    8.5738 C.3       1 <0>         0.0000
     25 C25        -4.2709   -0.9043   -3.2535 C.3       1 <0>         0.0000
     26 C26        -4.5635   -2.4088    1.6793 C.3       1 <0>         0.0000
     27 C27        -5.4820    5.5197    7.5225 C.3       1 <0>         0.0000
     28 N1         -3.9619   -1.2139    2.2674 N.pl3     1 <0>         0.0000
     29 O1         -6.0057   -2.0036    4.1857 O.co2     1 <0>         0.0000
     30 O2         -6.8250    0.0828    3.7961 O.co2     1 <0>         0.0000
     31 O3         -5.6602   -1.0216   -2.9785 O.3       1 <0>         0.0000
     32 O4         -4.2152    4.9390    7.2331 O.3       1 <0>         0.0000
     33 H1          0.3702    1.5073    1.2030 H         1 <0>         0.0000
     34 H2          0.0345   -0.6170   -0.0442 H         1 <0>         0.0000
     35 H3         -8.9021   -1.6616    0.0850 H         1 <0>         0.0000
     36 H4         -1.2825    2.2629    2.8851 H         1 <0>         0.0000
     37 H5         -1.8441    1.7821    5.0707 H         1 <0>         0.0000
     38 H6         -6.0270    2.0051    4.1594 H         1 <0>         0.0000
     39 H7         -7.2730   -2.2612    1.8802 H         1 <0>         0.0000
     40 H8         -1.9847   -2.0051    0.3469 H         1 <0>         0.0000
     41 H9         -8.0875   -1.0815   -2.2046 H         1 <0>         0.0000
     42 H10        -2.0823    3.6581    6.6737 H         1 <0>         0.0000
     43 H11        -6.2818    3.8708    5.7507 H         1 <0>         0.0000
     44 H12        -4.0419   -1.7332   -0.8909 H         1 <0>         0.0000
     45 H13        -6.5389    8.1227    9.6081 H         1 <0>         0.0000
     46 H14        -7.0414    7.7856    7.8855 H         1 <0>         0.0000
     47 H15        -4.6553    8.1316    7.1064 H         1 <0>         0.0000
     48 H16        -4.1422    8.4868    8.8241 H         1 <0>         0.0000
     49 H17        -4.9150    6.2059    9.5253 H         1 <0>         0.0000
     50 H18        -4.1966   -0.5524   -4.2849 H         1 <0>         0.0000
     51 H19        -3.7581   -1.8717   -3.1657 H         1 <0>         0.0000
     52 H20        -3.7869   -0.1815   -2.5850 H         1 <0>         0.0000
     53 H21        -5.0515   -2.9501    2.4902 H         1 <0>         0.0000
     54 H22        -3.7506   -3.0212    1.2790 H         1 <0>         0.0000
     55 H23        -5.9143    5.9660    6.6144 H         1 <0>         0.0000
     56 H24        -6.1779    4.7471    7.8794 H         1 <0>         0.0000
@<TRIPOS>BOND
     1    1    2 ar
     2    1    4 ar
     3    1   33 1
     4    2    8 ar
     5    2   34 1
     6    3    7 ar
     7    3    9 ar
     8    3   35 1
     9    4   13 ar
    10    4   36 1
    11    5   10 ar
    12    5   14 ar
    13    5   37 1
    14    6   11 ar
    15    6   14 ar
    16    6   38 1
    17    7   16 ar
    18    7   39 1
    19    8   17 ar
    20    8   40 1
    21    9   19 ar
    22    9   41 1
    23   10   18 ar
    24   10   42 1
    25   11   18 ar
    26   11   43 1
    27   12   16 ar
    28   12   19 ar
    29   12   44 1
    30   13   15 1
    31   13   17 ar
    32   14   15 1
    33   15   20 2
    34   16   26 1
    35   17   28 1
    36   18   32 1
    37   19   31 1
    38   20   21 1
    39   20   28 1
    40   21   29 1
    41   21   30 2
    42   22   23 1
    43   22   24 1
    44   22   45 1
    45   22   46 1
    46   23   24 1
    47   23   47 1
    48   23   48 1
    49   24   27 1
    50   24   49 1
    51   25   31 1
    52   25   50 1
    53   25   51 1
    54   25   52 1
    55   26   28 1
    56   26   53 1
    57   26   54 1
    58   27   32 1
    59   27   55 1
    60   27   56 1
