@<TRIPOS>MOLECULE
*****
   52    56     0     0     0
SMALL
NO_CHARGES

@<TRIPOS>ATOM
      1 C1         -1.1878    0.3993    1.4163 C.ar      1 <0>         0.0000
      2 C2         -1.3389   -0.8723    0.8267 C.ar      1 <0>         0.0000
      3 C3         -4.1660    3.4325    5.4814 C.ar      1 <0>         0.0000
      4 C4         -2.1860    0.9433    2.2277 C.ar      1 <0>         0.0000
      5 C5         -3.8849    2.2952    4.7318 C.ar      1 <0>         0.0000
      6 C6         -5.3612   -3.5138   -0.7218 C.ar      1 <0>         0.0000
      7 C7         -6.8730   -1.7863    0.0356 C.ar      1 <0>         0.0000
      8 C8         -2.5029   -1.6186    1.0326 C.ar      1 <0>         0.0000
      9 C9         -5.4589    3.9741    5.5223 C.ar      1 <0>         0.0000
     10 C10        -5.8704   -3.4142   -2.0231 C.ar      1 <0>         0.0000
     11 C11        -7.3887   -1.6706   -1.2569 C.ar      1 <0>         0.0000
     12 C12        -6.1988    2.1921    4.0318 C.ar      1 <0>         0.0000
     13 C13        -3.3622    0.2085    2.4691 C.ar      1 <0>         0.0000
     14 C14        -4.9029    1.6545    3.9870 C.ar      1 <0>         0.0000
     15 C15        -4.5953    0.4605    3.1869 C.2       1 <0>         0.0000
     16 C16        -5.8519   -2.7118    0.3137 C.ar      1 <0>         0.0000
     17 C17        -3.4943   -1.0724    1.8523 C.ar      1 <0>         0.0000
     18 C18        -6.4715    3.3354    4.7925 C.ar      1 <0>         0.0000
     19 C19        -6.8773   -2.4883   -2.2608 C.ar      1 <0>         0.0000
     20 C20        -5.4100   -0.6508    2.9901 C.2       1 <0>         0.0000
     21 C21        -6.8283   -0.9953    3.4598 C.2       1 <0>         0.0000
     22 C22       -10.3718    5.8237    6.4856 C.3       1 <0>         0.0000
     23 C23       -10.5966    4.3614    6.1530 C.3       1 <0>         0.0000
     24 C24        -9.5976    5.1671    5.3611 C.3       1 <0>         0.0000
     25 C25        -5.2919   -2.8279    1.7207 C.3       1 <0>         0.0000
     26 C26        -8.1266    4.9032    5.5421 C.3       1 <0>         0.0000
     27 N1         -4.7310   -1.5779    2.2092 N.pl3     1 <0>         0.0000
     28 O1         -7.7436   -0.3251    2.9063 O.co2     1 <0>         0.0000
     29 O2         -6.9031   -1.9459    4.2765 O.co2     1 <0>         0.0000
     30 O3         -7.7795    3.7723    4.7550 O.3       1 <0>         0.0000
     31 F1         -7.3836   -2.3775   -3.5279 F         1 <0>         0.0000
     32 H1         -0.2817    0.9711    1.2261 H         1 <0>         0.0000
     33 H2         -0.5501   -1.2717    0.1931 H         1 <0>         0.0000
     34 H3         -3.3742    3.9074    6.0580 H         1 <0>         0.0000
     35 H4         -2.0608    1.9367    2.6487 H         1 <0>         0.0000
     36 H5         -2.8868    1.8695    4.7506 H         1 <0>         0.0000
     37 H6         -4.5655   -4.2278   -0.5177 H         1 <0>         0.0000
     38 H7         -7.2666   -1.1564    0.8328 H         1 <0>         0.0000
     39 H8         -2.6353   -2.5846    0.5530 H         1 <0>         0.0000
     40 H9         -5.6535    4.8613    6.1145 H         1 <0>         0.0000
     41 H10        -5.4948   -4.0292   -2.8359 H         1 <0>         0.0000
     42 H11        -8.1778   -0.9606   -1.4873 H         1 <0>         0.0000
     43 H12        -7.0044    1.7117    3.4830 H         1 <0>         0.0000
     44 H13       -11.1466    6.5392    6.2244 H         1 <0>         0.0000
     45 H14        -9.8357    6.0600    7.4017 H         1 <0>         0.0000
     46 H15       -10.2017    3.6135    6.8344 H         1 <0>         0.0000
     47 H16       -11.5250    4.0793    5.6658 H         1 <0>         0.0000
     48 H17        -9.8851    5.4334    4.3469 H         1 <0>         0.0000
     49 H18        -6.0679   -3.1238    2.4307 H         1 <0>         0.0000
     50 H19        -4.5099   -3.5940    1.7502 H         1 <0>         0.0000
     51 H20        -7.9059    4.7123    6.6034 H         1 <0>         0.0000
     52 H21        -7.5390    5.7798    5.2295 H         1 <0>         0.0000
@<TRIPOS>BOND
     1    1    2 ar
     2    1    4 ar
     3    1   32 1
     4    2    8 ar
     5    2   33 1
     6    3    5 ar
     7    3    9 ar
     8    3   34 1
     9    4   13 ar
    10    4   35 1
    11    5   14 ar
    12    5   36 1
    13    6   10 ar
    14    6   16 ar
    15    6   37 1
    16    7   11 ar
    17    7   16 ar
    18    7   38 1
    19    8   17 ar
    20    8   39 1
    21    9   18 ar
    22    9   40 1
    23   10   19 ar
    24   10   41 1
    25   11   19 ar
    26   11   42 1
    27   12   14 ar
    28   12   18 ar
    29   12   43 1
    30   13   15 1
    31   13   17 ar
    32   14   15 1
    33   15   20 2
    34   16   25 1
    35   17   27 1
    36   18   30 1
    37   19   31 1
    38   20   21 1
    39   20   27 1
    40   21   28 1
    41   21   29 2
    42   22   23 1
    43   22   24 1
    44   22   44 1
    45   22   45 1
    46   23   24 1
    47   23   46 1
    48   23   47 1
    49   24   26 1
    50   24   48 1
    51   25   27 1
    52   25   49 1
    53   25   50 1
    54   26   30 1
    55   26   51 1
    56   26   52 1
