@<TRIPOS>MOLECULE
*****
   50    53     0     0     0
SMALL
NO_CHARGES

@<TRIPOS>ATOM
      1 C1          6.3352   -0.3419   -0.9667 C.ar      1 <0>         0.0000
      2 C2          1.0788    2.9508   -0.7785 C.ar      1 <0>         0.0000
      3 C3          7.3720   -0.4921   -0.0500 C.ar      1 <0>         0.0000
      4 C4          0.2051    3.9835   -0.4318 C.ar      1 <0>         0.0000
      5 C5          6.4385    1.5783    2.7709 C.2       1 <0>         0.0000
      6 C6          5.1202    1.1723    0.5238 C.ar      1 <0>         0.0000
      7 C7          7.6328    1.0475    3.1439 C.2       1 <0>         0.0000
      8 C8          6.1565    1.0396    1.4581 C.ar      1 <0>         0.0000
      9 C9          5.2136    0.4725   -0.6854 C.ar      1 <0>         0.0000
     10 C10         0.7620    2.0523   -1.8024 C.ar      1 <0>         0.0000
     11 C11        -0.4501    2.1635   -2.5265 C.ar      1 <0>         0.0000
     12 C12         7.2514    0.2063    1.1483 C.ar      1 <0>         0.0000
     13 C13        -1.2996    3.2375   -2.2066 C.ar      1 <0>         0.0000
     14 C14        -0.9596    4.1013   -1.1587 C.ar      1 <0>         0.0000
     15 C15         4.1552    0.5527   -1.7339 C.2       1 <0>         0.0000
     16 C16        -0.2551   -0.2320   -3.1252 C.3       1 <0>         0.0000
     17 C17         1.8013    1.0388   -2.2608 C.3       1 <0>         0.0000
     18 C18        -0.7494    1.1407   -3.6308 C.3       1 <0>         0.0000
     19 C19         1.2243   -0.3381   -2.7400 C.3       1 <0>         0.0000
     20 C20        -0.0598    1.5658   -4.9471 C.3       1 <0>         0.0000
     21 C21        -2.2537    0.9400   -3.9221 C.3       1 <0>         0.0000
     22 C22         1.3373   -1.4183   -1.6321 C.3       1 <0>         0.0000
     23 N1          2.9057    0.9266   -1.3152 N.am      1 <0>         0.0000
     24 O1          4.3931    0.2952   -2.9235 O.2       1 <0>         0.0000
     25 O2          8.1540    0.2091    2.1791 O.3       1 <0>         0.0000
     26 O3         -2.4507    3.4831   -2.9075 O.3       1 <0>         0.0000
     27 O4          1.9402   -0.7998   -3.8715 O.3       1 <0>         0.0000
     28 F1         -1.8444    5.1139   -0.8917 F         1 <0>         0.0000
     29 F2          0.6059   -2.5146   -1.9230 F         1 <0>         0.0000
     30 F3          2.6054   -1.8435   -1.4324 F         1 <0>         0.0000
     31 F4          0.8825   -0.9422   -0.4328 F         1 <0>         0.0000
     32 H1          6.3672   -0.8513   -1.9237 H         1 <0>         0.0000
     33 H2          2.0312    2.8814   -0.2677 H         1 <0>         0.0000
     34 H3          8.2332   -1.1199   -0.2557 H         1 <0>         0.0000
     35 H4          0.4280    4.6913    0.3602 H         1 <0>         0.0000
     36 H5          5.8341    2.2608    3.3536 H         1 <0>         0.0000
     37 H6          4.2848    1.8364    0.7261 H         1 <0>         0.0000
     38 H7          8.2379    1.1540    4.0334 H         1 <0>         0.0000
     39 H8         -0.8738   -0.4937   -2.2621 H         1 <0>         0.0000
     40 H9         -0.4302   -0.9910   -3.8911 H         1 <0>         0.0000
     41 H10         2.2518    1.4485   -3.1678 H         1 <0>         0.0000
     42 H11        -0.2391    0.8140   -5.7226 H         1 <0>         0.0000
     43 H12         1.0214    1.6755   -4.8485 H         1 <0>         0.0000
     44 H13        -0.4708    2.5206   -5.2893 H         1 <0>         0.0000
     45 H14        -2.3720    0.0515   -4.5515 H         1 <0>         0.0000
     46 H15        -2.6882    1.7883   -4.4480 H         1 <0>         0.0000
     47 H16        -2.8259    0.7819   -3.0029 H         1 <0>         0.0000
     48 H17         2.6718    0.7711   -0.3430 H         1 <0>         0.0000
     49 H18        -2.8774    4.2649   -2.5157 H         1 <0>         0.0000
     50 H19         2.8888   -0.5782   -3.7419 H         1 <0>         0.0000
@<TRIPOS>BOND
     1    1    3 ar
     2    1    9 ar
     3    1   32 1
     4    2    4 ar
     5    2   10 ar
     6    2   33 1
     7    3   12 ar
     8    3   34 1
     9    4   14 ar
    10    4   35 1
    11    5    7 2
    12    5    8 1
    13    5   36 1
    14    6    8 ar
    15    6    9 ar
    16    6   37 1
    17    7   25 1
    18    7   38 1
    19    8   12 ar
    20    9   15 1
    21   10   11 ar
    22   10   17 1
    23   11   13 ar
    24   11   18 1
    25   12   25 1
    26   13   14 ar
    27   13   26 1
    28   14   28 1
    29   15   23 am
    30   15   24 2
    31   16   18 1
    32   16   19 1
    33   16   39 1
    34   16   40 1
    35   17   19 1
    36   17   23 1
    37   17   41 1
    38   18   20 1
    39   18   21 1
    40   19   22 1
    41   19   27 1
    42   20   42 1
    43   20   43 1
    44   20   44 1
    45   21   45 1
    46   21   46 1
    47   21   47 1
    48   22   29 1
    49   22   30 1
    50   22   31 1
    51   23   48 1
    52   26   49 1
    53   27   50 1
