@<TRIPOS>MOLECULE
*****
   53    57     0     0     0
SMALL
NO_CHARGES

@<TRIPOS>ATOM
      1 C1         -1.1408    1.3328    1.4348 C.ar      1 <0>         0.0000
      2 C2         -1.1466    0.1356    0.6764 C.ar      1 <0>         0.0000
      3 C3         -3.6826    2.8135    6.6114 C.ar      1 <0>         0.0000
      4 C4         -2.0302    1.5162    2.4839 C.ar      1 <0>         0.0000
      5 C5         -3.3585    1.8069    5.6938 C.ar      1 <0>         0.0000
      6 C6         -2.9291   -4.1708    3.6539 C.ar      1 <0>         0.0000
      7 C7         -2.4271   -4.5798    1.3294 C.ar      1 <0>         0.0000
      8 C8         -2.0411   -0.8936    0.9450 C.ar      1 <0>         0.0000
      9 C9         -4.9423    3.4056    6.6079 C.ar      1 <0>         0.0000
     10 C10        -1.9780   -5.1179    4.0350 C.ar      1 <0>         0.0000
     11 C11        -1.4732   -5.5378    1.6895 C.ar      1 <0>         0.0000
     12 C12        -5.5841    1.9989    4.7370 C.ar      1 <0>         0.0000
     13 C13        -2.9405    0.4821    2.7839 C.ar      1 <0>         0.0000
     14 C14        -4.3124    1.3893    4.7558 C.ar      1 <0>         0.0000
     15 C15        -3.9755    0.3453    3.7640 C.2       1 <0>         0.0000
     16 C16        -3.1606   -3.8883    2.2995 C.ar      1 <0>         0.0000
     17 C17        -2.9446   -0.7071    2.0055 C.ar      1 <0>         0.0000
     18 C18        -5.9040    2.9987    5.6676 C.ar      1 <0>         0.0000
     19 C19        -1.2655   -5.7843    3.0411 C.ar      1 <0>         0.0000
     20 C20        -4.5657   -0.9063    3.5644 C.2       1 <0>         0.0000
     21 C21        -5.5934   -1.6008    4.3750 C.2       1 <0>         0.0000
     22 C22       -10.2877    3.5961    6.2371 C.3       1 <0>         0.0000
     23 C23       -10.7267    3.4251    4.7990 C.3       1 <0>         0.0000
     24 C24        -9.3736    4.0290    5.1141 C.3       1 <0>         0.0000
     25 C25        -4.1965   -2.8575    1.8961 C.3       1 <0>         0.0000
     26 C26        -8.1395    3.2280    4.8148 C.3       1 <0>         0.0000
     27 N1         -3.9397   -1.5346    2.4772 N.pl3     1 <0>         0.0000
     28 O1         -5.9929   -2.7307    4.1446 O.2       1 <0>         0.0000
     29 O2         -6.0897   -0.9408    5.4496 O.3       1 <0>         0.0000
     30 O3         -7.1089    3.6294    5.7340 O.3       1 <0>         0.0000
     31 F1         -0.3373   -6.7075    3.4062 F         1 <0>         0.0000
     32 H1         -0.4268    2.1134    1.1871 H         1 <0>         0.0000
     33 H2         -0.4316    0.0180   -0.1335 H         1 <0>         0.0000
     34 H3         -2.9458    3.1316    7.3442 H         1 <0>         0.0000
     35 H4         -2.0312    2.4339    3.0655 H         1 <0>         0.0000
     36 H5         -2.3814    1.3341    5.7116 H         1 <0>         0.0000
     37 H6         -3.5053   -3.6559    4.4160 H         1 <0>         0.0000
     38 H7         -2.5983   -4.3748    0.2747 H         1 <0>         0.0000
     39 H8         -2.0231   -1.8088    0.3636 H         1 <0>         0.0000
     40 H9         -5.2069    4.1819    7.3196 H         1 <0>         0.0000
     41 H10        -1.7897   -5.3485    5.0791 H         1 <0>         0.0000
     42 H11        -0.8970   -6.0797    0.9459 H         1 <0>         0.0000
     43 H12        -6.2942    1.6934    3.9776 H         1 <0>         0.0000
     44 H13       -10.7630    4.3696    6.8323 H         1 <0>         0.0000
     45 H14       -10.0108    2.7052    6.7937 H         1 <0>         0.0000
     46 H15       -10.7537    2.4176    4.3925 H         1 <0>         0.0000
     47 H16       -11.4971    4.0843    4.4111 H         1 <0>         0.0000
     48 H17        -9.2665    5.0990    4.9550 H         1 <0>         0.0000
     49 H18        -4.2032   -2.7406    0.8082 H         1 <0>         0.0000
     50 H19        -5.1882   -3.1717    2.2107 H         1 <0>         0.0000
     51 H20        -7.7981    3.4052    3.7862 H         1 <0>         0.0000
     52 H21        -8.3399    2.1548    4.9336 H         1 <0>         0.0000
     53 H22        -5.7041   -0.0459    5.5321 H         1 <0>         0.0000
@<TRIPOS>BOND
     1    1    2 ar
     2    1    4 ar
     3    1   32 1
     4    2    8 ar
     5    2   33 1
     6    3    5 ar
     7    3    9 ar
     8    3   34 1
     9    4   13 ar
    10    4   35 1
    11    5   14 ar
    12    5   36 1
    13    6   10 ar
    14    6   16 ar
    15    6   37 1
    16    7   11 ar
    17    7   16 ar
    18    7   38 1
    19    8   17 ar
    20    8   39 1
    21    9   18 ar
    22    9   40 1
    23   10   19 ar
    24   10   41 1
    25   11   19 ar
    26   11   42 1
    27   12   14 ar
    28   12   18 ar
    29   12   43 1
    30   13   15 1
    31   13   17 ar
    32   14   15 1
    33   15   20 2
    34   16   25 1
    35   17   27 1
    36   18   30 1
    37   19   31 1
    38   20   21 1
    39   20   27 1
    40   21   28 2
    41   21   29 1
    42   22   23 1
    43   22   24 1
    44   22   44 1
    45   22   45 1
    46   23   24 1
    47   23   46 1
    48   23   47 1
    49   24   26 1
    50   24   48 1
    51   25   27 1
    52   25   49 1
    53   25   50 1
    54   26   30 1
    55   26   51 1
    56   26   52 1
    57   29   53 1
