@<TRIPOS>MOLECULE
*****
   49    53     0     0     0
SMALL
NO_CHARGES

@<TRIPOS>ATOM
      1 C1         -3.3370   -1.8491    4.7977 C.ar      1 <0>         0.0000
      2 C2          2.2657   -0.0837   -0.1786 C.ar      1 <0>         0.0000
      3 C3         -3.2889   -0.9115    3.7637 C.ar      1 <0>         0.0000
      4 C4          1.1216    0.4514    0.4122 C.ar      1 <0>         0.0000
      5 C5         -2.8706   -1.5236    6.0750 C.ar      1 <0>         0.0000
      6 C6          4.2542   -1.6725   -1.8124 C.ar      1 <0>         0.0000
      7 C7          1.1187   -1.4484    1.9164 C.ar      1 <0>         0.0000
      8 C8          5.2802   -2.0132    0.3147 C.ar      1 <0>         0.0000
      9 C9         -2.2880    0.6975    5.2648 C.ar      1 <0>         0.0000
     10 C10         5.4859   -1.9861   -2.3889 C.ar      1 <0>         0.0000
     11 C11         2.8650   -1.2810    0.2471 C.ar      1 <0>         0.0000
     12 C12         4.1314   -1.6837   -0.4159 C.ar      1 <0>         0.0000
     13 C13         2.2619   -2.0004    1.3130 C.ar      1 <0>         0.0000
     14 C14        -2.7609    0.3702    3.9859 C.ar      1 <0>         0.0000
     15 C15         0.5514   -0.2470    1.4864 C.ar      1 <0>         0.0000
     16 C16        -2.3556   -0.2446    6.2909 C.ar      1 <0>         0.0000
     17 C17         6.4716   -2.3202   -0.3462 C.ar      1 <0>         0.0000
     18 C18         2.7099   -3.3050    1.8138 C.2       1 <0>         0.0000
     19 C19        -1.4371    1.2327    1.9235 C.2       1 <0>         0.0000
     20 C20        -3.9067    1.8319    2.1674 C.3       1 <0>         0.0000
     21 C21        -3.1389    2.7704    3.0545 C.3       1 <0>         0.0000
     22 C22        -2.6359    1.3496    2.8574 C.3       1 <0>         0.0000
     23 C23         7.6996   -2.7379    0.4259 C.3       1 <0>         0.0000
     24 N1          2.8881   -4.9974    3.0988 N.2       1 <0>         0.0000
     25 N2          6.5836   -2.3026   -1.6906 N.ar      1 <0>         0.0000
     26 N3          2.3314   -3.7805    3.0232 N.2       1 <0>         0.0000
     27 N4          3.4700   -4.1976    1.1462 N.2       1 <0>         0.0000
     28 N5          3.5645   -5.2497    1.9746 N.2       1 <0>         0.0000
     29 N6         -0.6027    0.1890    2.1888 N.am      1 <0>         0.0000
     30 O1         -1.2831    2.0428    1.0047 O.2       1 <0>         0.0000
     31 Cl1        -1.7682    0.1877    7.8925 Cl        1 <0>         0.0000
     32 H1         -3.7289   -2.8452    4.6116 H         1 <0>         0.0000
     33 H2          2.7386    0.4708   -0.9854 H         1 <0>         0.0000
     34 H3         -3.6459   -1.1735    2.7713 H         1 <0>         0.0000
     35 H4          0.6879    1.3795    0.0664 H         1 <0>         0.0000
     36 H5         -2.8967   -2.2478    6.8827 H         1 <0>         0.0000
     37 H6          3.3980   -1.4473   -2.4427 H         1 <0>         0.0000
     38 H7          0.6732   -2.0102    2.7339 H         1 <0>         0.0000
     39 H8          5.2394   -2.0522    1.3975 H         1 <0>         0.0000
     40 H9         -1.8625    1.6785    5.4514 H         1 <0>         0.0000
     41 H10         5.5942   -1.9864   -3.4742 H         1 <0>         0.0000
     42 H11        -4.8438    1.4264    2.5373 H         1 <0>         0.0000
     43 H12        -3.8380    1.9883    1.0961 H         1 <0>         0.0000
     44 H13        -2.5608    3.5506    2.5713 H         1 <0>         0.0000
     45 H14        -3.5577    3.0119    4.0268 H         1 <0>         0.0000
     46 H15         7.7874   -3.8308    0.4188 H         1 <0>         0.0000
     47 H16         8.6016   -2.3271   -0.0372 H         1 <0>         0.0000
     48 H17         7.6481   -2.4166    1.4700 H         1 <0>         0.0000
     49 H18        -0.8563   -0.4026    2.9703 H         1 <0>         0.0000
@<TRIPOS>BOND
     1    1    3 ar
     2    1    5 ar
     3    1   32 1
     4    2    4 ar
     5    2   11 ar
     6    2   33 1
     7    3   14 ar
     8    3   34 1
     9    4   15 ar
    10    4   35 1
    11    5   16 ar
    12    5   36 1
    13    6   10 ar
    14    6   12 ar
    15    6   37 1
    16    7   13 ar
    17    7   15 ar
    18    7   38 1
    19    8   12 ar
    20    8   17 ar
    21    8   39 1
    22    9   14 ar
    23    9   16 ar
    24    9   40 1
    25   10   25 ar
    26   10   41 1
    27   11   12 1
    28   11   13 ar
    29   13   18 1
    30   14   22 1
    31   15   29 1
    32   16   31 1
    33   17   23 1
    34   17   25 ar
    35   18   26 2
    36   18   27 1
    37   19   22 1
    38   19   29 am
    39   19   30 2
    40   20   21 1
    41   20   22 1
    42   20   42 1
    43   20   43 1
    44   21   22 1
    45   21   44 1
    46   21   45 1
    47   23   46 1
    48   23   47 1
    49   23   48 1
    50   24   26 1
    51   24   28 1
    52   27   28 2
    53   29   49 1
